                                  MODFLOW-2005     
      U.S. GEOLOGICAL SURVEY MODULAR FINITE-DIFFERENCE GROUND-WATER FLOW MODEL
                            VERSION 1.11.00 8/8/2013

 LIST FILE: supply2.lst
                         UNIT   10

 OPENING ..\data\supply.dis
 FILE TYPE:DIS   UNIT   11   STATUS:OLD    
 FORMAT:FORMATTED              ACCESS:SEQUENTIAL          

 OPENING ..\data\supply.ba6
 FILE TYPE:BAS6   UNIT   12   STATUS:OLD    
 FORMAT:FORMATTED              ACCESS:SEQUENTIAL          

 OPENING ..\data\supply_het.bc6
 FILE TYPE:BCF6   UNIT   13   STATUS:OLD    
 FORMAT:FORMATTED              ACCESS:SEQUENTIAL          

 OPENING ..\data\supply.rch
 FILE TYPE:RCH   UNIT   15   STATUS:OLD    
 FORMAT:FORMATTED              ACCESS:SEQUENTIAL          

 OPENING ..\data\supply2.sfr
 FILE TYPE:SFR   UNIT   16   STATUS:OLD    
 FORMAT:FORMATTED              ACCESS:SEQUENTIAL          

 OPENING ..\data\supply.oc
 FILE TYPE:OC   UNIT   17   STATUS:OLD    
 FORMAT:FORMATTED              ACCESS:SEQUENTIAL          

 OPENING ..\data\supply.pcg
 FILE TYPE:PCG   UNIT   18   STATUS:OLD    
 FORMAT:FORMATTED              ACCESS:SEQUENTIAL          

 OPENING supply2.wel
 FILE TYPE:WEL   UNIT   19   STATUS:OLD    
 FORMAT:FORMATTED              ACCESS:SEQUENTIAL          

 OPENING supply2sf.cbc
 FILE TYPE:DATA(BINARY)   UNIT   50   STATUS:UNKNOWN
 FORMAT:BINARY                 ACCESS:SEQUENTIAL          

 OPENING supply2hd.bhd
 FILE TYPE:DATA(BINARY)   UNIT   51   STATUS:UNKNOWN
 FORMAT:BINARY                 ACCESS:SEQUENTIAL          

 BAS -- BASIC PACKAGE, VERSION 7, 5/2/2005 INPUT READ FROM UNIT   12
 
 MODFLOW was compiled using uniform precision
 Precision of REAL and DOUBLE PRECISION variables:          15

 DISCRETIZATION INPUT DATA READ FROM UNIT   11
    1 LAYERS        25 ROWS        30 COLUMNS
   12 STRESS PERIOD(S) IN SIMULATION
 MODEL TIME UNIT IS DAYS
 MODEL LENGTH UNIT IS UNDEFINED
  Confining bed flag for each layer:
   0

                     DELR =   200.000    

                     DELC =   200.000    

 TOP ELEVATION OF LAYER 1 =  100.0000    

   MODEL LAYER BOTTOM EL. =   0.00000     FOR LAYER   1


 STRESS PERIOD     LENGTH       TIME STEPS     MULTIPLIER FOR DELT    SS FLAG
 ----------------------------------------------------------------------------
        1         92.00000          1                    1.500         TR
        2         91.00000          1                    1.500         TR
        3         91.00000          1                    1.500         TR
        4         91.00000          1                    1.500         TR
        5         92.00000          1                    1.500         TR
        6         91.00000          1                    1.500         TR
        7         91.00000          1                    1.500         TR
        8         91.00000          1                    1.500         TR
        9         92.00000          1                    1.500         TR
       10         91.00000          1                    1.500         TR
       11         91.00000          1                    1.500         TR
       12         91.00000          1                    1.500         TR

 TRANSIENT SIMULATION



 
 #MODOFC transient water supply sample problem                                   
 #                                                                               
 THE FREE FORMAT OPTION HAS BEEN SELECTED



                     BOUNDARY ARRAY FOR LAYER   1
 READING ON UNIT   12 WITH FORMAT: (20I4)              

 AQUIFER HEAD WILL BE SET TO   0.0000     AT ALL NO-FLOW NODES (IBOUND=0).



                       INITIAL HEAD FOR LAYER   1
 READING ON UNIT   12 WITH FORMAT: (10F13.0)           

 OUTPUT CONTROL IS SPECIFIED ONLY AT TIME STEPS FOR WHICH OUTPUT IS DESIRED
 COMPACT CELL-BY-CELL BUDGET FILES WILL BE WRITTEN
 HEAD PRINT FORMAT CODE IS  18    DRAWDOWN PRINT FORMAT CODE IS   0
 HEADS WILL BE SAVED ON UNIT   51    DRAWDOWNS WILL BE SAVED ON UNIT    0

 BCF -- BLOCK-CENTERED FLOW PACKAGE, VERSION 7, 5/2/2005
         INPUT READ FROM UNIT 13
 TRANSIENT SIMULATION
 HEAD AT CELLS THAT CONVERT TO DRY=   0.0000    
 WETTING CAPABILITY IS NOT ACTIVE
      LAYER  LAYER-TYPE CODE     INTERBLOCK T
      --------------------------------------------
         1            0          0 -- HARMONIC    

 COLUMN TO ROW ANISOTROPY =  1.000000    

     PRIMARY STORAGE COEF =  5.000000E-02 FOR LAYER   1



               TRANSMIS. ALONG ROWS FOR LAYER   1
 READING ON UNIT   13 WITH FORMAT: (FREE)              

 WEL -- WELL PACKAGE, VERSION 7, 5/2/2005 INPUT READ FROM UNIT   19
 # Well package input file written by MMProc
 No named parameters
 MAXIMUM OF      8 ACTIVE WELLS AT ONE TIME


     0 Well parameters

 RCH -- RECHARGE PACKAGE, VERSION 7, 5/2/2005 INPUT READ FROM UNIT   15
 No named parameters
 OPTION 1 -- RECHARGE TO TOP LAYER


     0 Recharge parameters

 SFR7 -- STREAMFLOW ROUTING PACKAGE, VERSION 1.0.7, 2013-01-15
         INPUT READ FROM UNIT  16
 #  Supply2 test problem for GWM-VI
 #  The eighth entry in the first data line is ISTCB2 -
 #    Setting this to a negative number indicates that
 #    streamflows out of the reach will be saved to a
 #    binary file.  The absolute value of ISTCB2 is the
 #    unit to which unformatted flows will be written.
 #
 No named parameters
 Segment information will not be 
 read by reach
 No named parameters
 No specifed inflow files


 NUMBER OF STREAM REACHES IS   40

 NUMBER OF STREAM SEGMENTS IS    3

 NUMBER OF STREAM PARAMETERS IS    0

 NUMBER OF STREAM SEGMENTS DEFINED USING PARAMETERS IS              0

 MAXIMUM ERROR FOR STREAM LEAKAGE RATES IS  1.00E-04

 CONSTANT FOR MANNINGS EQUATION IS  1.2839E+05





   STREAM NETWORK DESCRIPTION: 

   LAYER    ROW    COL   SEGMENT   REACH     LENGTH
                          NUMBER   NUMBER    IN CELL        
   --------------------------------------------------
      1     13      1       1        1    2.0000E+02
      1     13      2       1        2    2.0000E+02
      1     14      3       1        3    2.0000E+02
      1     15      4       1        4    2.0000E+02
      1     16      5       1        5    2.0000E+02
      1     16      6       1        6    2.0000E+02
      1     16      7       1        7    2.0000E+02
      1     16      8       1        8    2.0000E+02
      1     16      9       1        9    2.0000E+02
      1     16     10       1       10    2.0000E+02
      1     16     11       1       11    2.0000E+02
      1     16     12       1       12    2.0000E+02
      1     15     13       1       13    2.0000E+02
      1     14     14       1       14    2.0000E+02
      1     13     15       1       15    2.0000E+02
      1     12     16       1       16    2.0000E+02
      1     12     17       1       17    2.0000E+02
      1     12     18       1       18    2.0000E+02
      1     12     19       1       19    2.0000E+02
      1     13     20       1       20    2.0000E+02
      1     14     21       1       21    2.0000E+02
      1     14     22       1       22    2.0000E+02
      1      9     30       2        1    2.0000E+02
      1      9     29       2        2    2.0000E+02
      1      9     28       2        3    2.0000E+02
      1      9     27       2        4    2.0000E+02
      1     10     26       2        5    2.0000E+02
      1     11     25       2        6    2.0000E+02
      1     12     24       2        7    2.0000E+02
      1     13     23       2        8    2.0000E+02
      1     14     22       2        9    2.0000E+02
      1     14     22       3        1    2.0000E+02
      1     15     23       3        2    2.0000E+02
      1     15     24       3        3    2.0000E+02
      1     15     25       3        4    2.0000E+02
      1     15     26       3        5    2.0000E+02
      1     16     27       3        6    2.0000E+02
      1     17     28       3        7    2.0000E+02
      1     18     29       3        8    2.0000E+02
      1     18     30       3        9    2.0000E+02




 PCG -- CONJUGATE-GRADIENT SOLUTION PACKAGE, VERSION 7, 5/2/2005
 MAXIMUM OF    500 CALLS OF SOLUTION ROUTINE
 MAXIMUM OF      5 INTERNAL ITERATIONS PER CALL TO SOLUTION ROUTINE
 MATRIX PRECONDITIONING TYPE :    1



                                    SOLUTION BY THE CONJUGATE-GRADIENT METHOD
                                   -------------------------------------------
                    MAXIMUM NUMBER OF CALLS TO PCG ROUTINE =      500
                        MAXIMUM ITERATIONS PER CALL TO PCG =        5
                               MATRIX PRECONDITIONING TYPE =        1
        RELAXATION FACTOR (ONLY USED WITH PRECOND. TYPE 1) =    0.10000E+01
 PARAMETER OF POLYNOMIAL PRECOND. = 2 (2) OR IS CALCULATED :        0
                         HEAD CHANGE CRITERION FOR CLOSURE =    0.10000E-05
                     RESIDUAL CHANGE CRITERION FOR CLOSURE =    0.10000E+01
            PCG HEAD AND RESIDUAL CHANGE PRINTOUT INTERVAL =        1
     PRINTING FROM SOLVER IS LIMITED(1) OR SUPPRESSED (>1) =        1
                            STEADY-STATE DAMPING PARAMETER =    0.10000E+01
                               TRANSIENT DAMPING PARAMETER =    0.10000E+01
1
                            STRESS PERIOD NO.    1, LENGTH =   92.00000    
                            -----------------------------------------------

                              NUMBER OF TIME STEPS =     1

                               MULTIPLIER FOR DELT =     1.500

                            INITIAL TIME STEP SIZE =   92.00000    

 WELL NO.  LAYER   ROW   COL   STRESS RATE         
 --------------------------------------------------
      1      1     14      6       0.000    
      2      1      3      9       0.000    
      3      1     20     10       0.000    
      4      1     14     20       0.000    
      5      1     20     29      -8734.    
      6      1     15     15     -0.1244E+05
      7      1     17     29     -0.1509E+05
      8      1      6     23      -9237.    

      8 WELLS

                 RECHARGE =  5.000000E-04



 CLASSIFICATION & COUNT OF STREAM SEGMENTS BASED ON SOURCE OF INFLOW:

                HEADWATER     DIVERSION     RECEIVES TRIBUTARY FLOW
                ---------     ---------     -----------------------
                     2              0               1



                    INPUT DATA FOR EACH STREAM SEGMENT
 ---------------------------------------------------------------------------------------------

 SEGMENT    SEG.     INFLOW   OVERLAND   STREAM    STREAM   ICALC  OUTFLOW  DIVERSION PRIORITY
    NO.    LENGTH     RATE     RUNOFF      ET       PPT.    METH.  TO SEG.  FROM SEG.    NO.

      1  4.400E+03 1.000E+05 0.000E+00 0.000E+00 0.000E+00    1        3        0        0
      2  1.800E+03 5.000E+04 0.000E+00 0.000E+00 0.000E+00    1        3        0        0
      3  1.800E+03 0.000E+00 0.000E+00 0.000E+00 0.000E+00    1        0        0        0


         STREAMBED PROPERTIES AND STREAM DIMENSIONS

 SEGMENT     BED HYD. COND.      BED THICKNESS     ELEV.-TOP OF BED     WIDTH OF STREAM     DEPTH OF STREAM    STREAM ROUGHNESS
    No.     UPPER     LOWER     UPPER     LOWER     UPPER     LOWER     UPPER     LOWER     UPPER     LOWER   CHANNEL      BANK

     1  5.000E+00 5.000E+00 1.000E+00 1.000E+00 4.850E+01 3.800E+01 2.000E+01 2.000E+01                     5.000E-02
     2  5.000E+00 5.000E+00 1.000E+00 1.000E+00 4.025E+01 3.800E+01 2.000E+01 2.000E+01                     5.000E-02
     3  5.000E+00 5.000E+00 1.000E+00 1.000E+00 3.800E+01 3.000E+01 2.000E+01 2.000E+01                     5.000E-02



 
 SOLVING FOR HEAD 


     9 CALLS TO PCG ROUTINE FOR TIME STEP   1 IN STRESS PERIOD    1
    36 TOTAL ITERATIONS

 OUTPUT CONTROL FOR STRESS PERIOD    1   TIME STEP    1
    SAVE BUDGET
    SAVE HEAD FOR ALL LAYERS
    PRINT HEAD FOR ALL LAYERS
 UBDSV2 SAVING "STREAMFLOW OUT  " ON UNIT  50 AT TIME STEP  1, STRESS PERIOD   1



 STREAM LISTING     PERIOD      1   STEP        1

 LAYER ROW COL. STREAM  RCH.  FLOW INTO     FLOW TO   FLOW OUT OF   OVRLND.     DIRECT     STREAM       STREAM     STREAM     STREAM   STREAMBED  STREAMBED
                SEG.NO.  NO.  STRM. RCH.    AQUIFER    STRM. RCH.    RUNOFF     PRECIP       ET          HEAD       DEPTH      WIDTH   CONDCTNC.   GRADIENT

   1   13    1     1     1    1.0000E+05 -6.1217E+03   1.0612E+05  0.000E+00  0.000E+00  0.000E+00  4.84087E+01  1.473E-01  2.000E+01  2.000E+04 -3.061E-01
   1   13    2     1     2    1.0612E+05 -7.5914E+03   1.1371E+05  0.000E+00  0.000E+00  0.000E+00  4.79372E+01  1.531E-01  2.000E+01  2.000E+04 -3.796E-01
   1   14    3     1     3    1.1371E+05 -2.1986E+03   1.1591E+05  0.000E+00  0.000E+00  0.000E+00  4.74640E+01  1.572E-01  2.000E+01  2.000E+04 -1.099E-01
   1   15    4     1     4    1.1591E+05 -2.2694E+03   1.1818E+05  0.000E+00  0.000E+00  0.000E+00  4.69885E+01  1.590E-01  2.000E+01  2.000E+04 -1.135E-01
   1   16    5     1     5    1.1818E+05 -7.1736E+03   1.2535E+05  0.000E+00  0.000E+00  0.000E+00  4.65151E+01  1.628E-01  2.000E+01  2.000E+04 -3.587E-01
   1   16    6     1     6    1.2535E+05 -4.2932E+03   1.2965E+05  0.000E+00  0.000E+00  0.000E+00  4.60424E+01  1.674E-01  2.000E+01  2.000E+04 -2.147E-01
   1   16    7     1     7    1.2965E+05 -4.1236E+03   1.3377E+05  0.000E+00  0.000E+00  0.000E+00  4.55684E+01  1.706E-01  2.000E+01  2.000E+04 -2.062E-01
   1   16    8     1     8    1.3377E+05 -4.0751E+03   1.3785E+05  0.000E+00  0.000E+00  0.000E+00  4.50943E+01  1.738E-01  2.000E+01  2.000E+04 -2.038E-01
   1   16    9     1     9    1.3785E+05 -4.0512E+03   1.4190E+05  0.000E+00  0.000E+00  0.000E+00  4.46201E+01  1.769E-01  2.000E+01  2.000E+04 -2.026E-01
   1   16   10     1    10    1.4190E+05 -4.0238E+03   1.4592E+05  0.000E+00  0.000E+00  0.000E+00  4.41459E+01  1.800E-01  2.000E+01  2.000E+04 -2.012E-01
   1   16   11     1    11    1.4592E+05 -3.9992E+03   1.4992E+05  0.000E+00  0.000E+00  0.000E+00  4.36716E+01  1.830E-01  2.000E+01  2.000E+04 -2.000E-01
   1   16   12     1    12    1.4992E+05 -6.3485E+03   1.5627E+05  0.000E+00  0.000E+00  0.000E+00  4.31981E+01  1.868E-01  2.000E+01  2.000E+04 -3.174E-01
   1   15   13     1    13    1.5627E+05 -5.3943E+03   1.6166E+05  0.000E+00  0.000E+00  0.000E+00  4.27251E+01  1.910E-01  2.000E+01  2.000E+04 -2.697E-01
   1   14   14     1    14    1.6166E+05 -4.8730E+03   1.6654E+05  0.000E+00  0.000E+00  0.000E+00  4.22515E+01  1.947E-01  2.000E+01  2.000E+04 -2.436E-01
   1   13   15     1    15    1.6654E+05 -6.2934E+03   1.7283E+05  0.000E+00  0.000E+00  0.000E+00  4.17782E+01  1.987E-01  2.000E+01  2.000E+04 -3.147E-01
   1   12   16     1    16    1.7283E+05 -8.3661E+03   1.8120E+05  0.000E+00  0.000E+00  0.000E+00  4.13060E+01  2.038E-01  2.000E+01  2.000E+04 -4.183E-01
   1   12   17     1    17    1.8120E+05 -5.8608E+03   1.8706E+05  0.000E+00  0.000E+00  0.000E+00  4.08336E+01  2.086E-01  2.000E+01  2.000E+04 -2.930E-01
   1   12   18     1    18    1.8706E+05 -5.7860E+03   1.9284E+05  0.000E+00  0.000E+00  0.000E+00  4.03603E+01  2.126E-01  2.000E+01  2.000E+04 -2.893E-01
   1   12   19     1    19    1.9284E+05 -7.3612E+03   2.0020E+05  0.000E+00  0.000E+00  0.000E+00  3.98874E+01  2.170E-01  2.000E+01  2.000E+04 -3.681E-01
   1   13   20     1    20    2.0020E+05 -6.4376E+03   2.0664E+05  0.000E+00  0.000E+00  0.000E+00  3.94147E+01  2.215E-01  2.000E+01  2.000E+04 -3.219E-01
   1   14   21     1    21    2.0664E+05 -6.0974E+03   2.1274E+05  0.000E+00  0.000E+00  0.000E+00  3.89415E+01  2.256E-01  2.000E+01  2.000E+04 -3.049E-01
   1   14   22     1    22    2.1274E+05  3.6817E+03   2.0906E+05  0.000E+00  0.000E+00  0.000E+00  3.84650E+01  2.263E-01  2.000E+01  2.000E+04  1.841E-01
   1    9   30     2     1    5.0000E+04 -4.5622E+03   5.4562E+04  0.000E+00  0.000E+00  0.000E+00  4.02440E+01  1.190E-01  2.000E+01  2.000E+04 -2.281E-01
   1    9   29     2     2    5.4562E+04 -4.8436E+03   5.9406E+04  0.000E+00  0.000E+00  0.000E+00  4.00003E+01  1.253E-01  2.000E+01  2.000E+04 -2.422E-01
   1    9   28     2     3    5.9406E+04 -5.0859E+03   6.4492E+04  0.000E+00  0.000E+00  0.000E+00  3.97568E+01  1.318E-01  2.000E+01  2.000E+04 -2.543E-01
   1    9   27     2     4    6.4492E+04 -7.5997E+03   7.2091E+04  0.000E+00  0.000E+00  0.000E+00  3.95147E+01  1.397E-01  2.000E+01  2.000E+04 -3.800E-01
   1   10   26     2     5    7.2091E+04 -6.6903E+03   7.8782E+04  0.000E+00  0.000E+00  0.000E+00  3.92733E+01  1.483E-01  2.000E+01  2.000E+04 -3.345E-01
   1   11   25     2     6    7.8782E+04 -6.2784E+03   8.5060E+04  0.000E+00  0.000E+00  0.000E+00  3.90308E+01  1.558E-01  2.000E+01  2.000E+04 -3.139E-01
   1   12   24     2     7    8.5060E+04 -5.9476E+03   9.1008E+04  0.000E+00  0.000E+00  0.000E+00  3.87877E+01  1.627E-01  2.000E+01  2.000E+04 -2.974E-01
   1   13   23     2     8    9.1008E+04 -1.6120E+03   9.2620E+04  0.000E+00  0.000E+00  0.000E+00  3.85418E+01  1.668E-01  2.000E+01  2.000E+04 -8.060E-02
   1   14   22     2     9    9.2620E+04  2.3405E+02   9.2386E+04  0.000E+00  0.000E+00  0.000E+00  3.82926E+01  1.676E-01  2.000E+01  2.000E+04  1.170E-02
   1   14   22     3     1    3.0144E+05 -9.8072E+03   3.1125E+05  0.000E+00  0.000E+00  0.000E+00  3.77905E+01  2.350E-01  2.000E+01  2.000E+04 -4.904E-01
   1   15   23     3     2    3.1125E+05 -1.9534E+03   3.1320E+05  0.000E+00  0.000E+00  0.000E+00  3.69043E+01  2.377E-01  2.000E+01  2.000E+04 -9.767E-02
   1   15   24     3     3    3.1320E+05 -1.5190E+03   3.1472E+05  0.000E+00  0.000E+00  0.000E+00  3.60162E+01  2.385E-01  2.000E+01  2.000E+04 -7.595E-02
   1   15   25     3     4    3.1472E+05 -1.5658E+03   3.1629E+05  0.000E+00  0.000E+00  0.000E+00  3.51281E+01  2.392E-01  2.000E+01  2.000E+04 -7.829E-02
   1   15   26     3     5    3.1629E+05 -1.8110E+03   3.1810E+05  0.000E+00  0.000E+00  0.000E+00  3.42399E+01  2.399E-01  2.000E+01  2.000E+04 -9.055E-02
   1   16   27     3     6    3.1810E+05 -1.8799E+03   3.1998E+05  0.000E+00  0.000E+00  0.000E+00  3.33519E+01  2.408E-01  2.000E+01  2.000E+04 -9.399E-02
   1   17   28     3     7    3.1998E+05 -1.9021E+02   3.2017E+05  0.000E+00  0.000E+00  0.000E+00  3.24635E+01  2.412E-01  2.000E+01  2.000E+04 -9.511E-03
   1   18   29     3     8    3.2017E+05 -7.2907E+02   3.2090E+05  0.000E+00  0.000E+00  0.000E+00  3.15748E+01  2.414E-01  2.000E+01  2.000E+04 -3.645E-02
   1   18   30     3     9    3.2090E+05 -3.1391E+03   3.2404E+05  0.000E+00  0.000E+00  0.000E+00  3.06868E+01  2.423E-01  2.000E+01  2.000E+04 -1.570E-01



1
              HEAD IN LAYER   1 AT END OF TIME STEP   1 IN STRESS PERIOD    1
  ---------------------------------------------------------------------------

          1      2      3      4      5      6      7      8      9     10
         11     12     13     14     15     16     17     18     19     20
         21     22     23     24     25     26     27     28     29     30
 .........................................................................
   1  ****** ****** ****** ****** ****** ****** ****** ****** ****** ******
      ****** ****** ****** ****** ****** ****** ****** ****** ****** ******
      ****** ****** ****** ****** ****** ****** ****** ****** ****** ******
   2  ****** ****** ****** ****** ****** ****** ****** ****** ****** ******
      ****** ****** ****** ****** ****** ****** ****** ****** ****** ******
      ****** ****** ****** ****** ****** ****** ****** ****** ****** ******
   3  ****** ****** ****** ****** ****** ****** ****** ****** ****** ******
      ****** ****** ****** ****** ****** ****** ****** ****** ****** ******
      ****** ****** ****** ****** ****** ****** ****** ****** ****** ******
   4  ****** ****** ****** ****** ****** ****** ****** ****** ****** ******
      ****** ****** ****** ****** ****** ****** ****** ****** ****** ******
      ****** ****** ****** ****** ****** ****** ****** ****** ****** ******
   5  ****** ****** ****** ****** ****** ****** ****** ****** ****** ******
      ****** ****** ****** ****** ****** ****** ****** ****** ****** ******
      ****** ****** ****** ****** ****** ****** ****** ****** ****** ******
   6  ****** ****** ****** ****** ****** ****** ****** ****** ****** ******
      ****** ****** ****** ****** ****** ****** ****** ****** ****** ******
      ****** ****** ****** ****** ****** ****** ****** ****** ****** ******
   7  ****** ****** ****** ****** ****** ****** ****** ****** ****** ******
      ****** ****** ****** ****** ****** ****** ****** ****** ****** ******
      ****** ****** ****** ****** ****** ****** ****** ****** ****** ******
   8  ****** ****** ****** ****** ****** ****** ****** ****** ****** ******
      ****** ****** ****** ****** ****** ****** ****** ****** ****** ******
      ****** ****** ****** ****** ****** ****** ****** ****** ****** ******
   9  ****** ****** ****** ****** ****** ****** ****** ****** ****** ******
      ****** ****** ****** ****** ****** ****** ****** ****** ****** ******
      ****** ****** ****** ****** ****** ****** ****** ****** ****** ******
  10  ****** ****** ****** ****** ****** ****** ****** ****** ****** ******
      ****** ****** ****** ****** ****** ****** ****** ****** ****** ******
      ****** ****** ****** ****** ****** ****** ****** ****** ****** ******
  11  ****** ****** ****** ****** ****** ****** ****** ****** ****** ******
      ****** ****** ****** ****** ****** ****** ****** ****** ****** ******
      ****** ****** ****** ****** ****** ****** ****** ****** ****** ******
  12  ****** ****** ****** ****** ****** ****** ****** ****** ****** ******
      ****** ****** ****** ****** ****** ****** ****** ****** ****** ******
      ****** ****** ****** ****** ****** ****** ****** ****** ****** ******
  13  ****** ****** ****** ****** ****** ****** ****** ****** ****** ******
      ****** ****** ****** ****** ****** ****** ****** ****** ****** ******
      ****** ****** ****** ****** ****** ****** ****** ****** ****** ******
  14  ****** ****** ****** ****** ****** ****** ****** ****** ****** ******
      ****** ****** ****** ****** ****** ****** ****** ****** ****** ******
      ****** ****** ****** ****** ****** ****** ****** ****** ****** ******
  15  ****** ****** ****** ****** ****** ****** ****** ****** ****** ******
      ****** ****** ****** ****** ****** ****** ****** ****** ****** ******
      ****** ****** ****** ****** ****** ****** ****** ****** ****** ******
  16  ****** ****** ****** ****** ****** ****** ****** ****** ****** ******
      ****** ****** ****** ****** ****** ****** ****** ****** ****** ******
      ****** ****** ****** ****** ****** ****** ****** ****** ****** ******
  17  ****** ****** ****** ****** ****** ****** ****** ****** ****** ******
      ****** ****** ****** ****** ****** ****** ****** ****** ****** ******
      ****** ****** ****** ****** ****** ****** ****** ****** ****** ******
  18  ****** ****** ****** ****** ****** ****** ****** ****** ****** ******
      ****** ****** ****** ****** ****** ****** ****** ****** ****** ******
      ****** ****** ****** ****** ****** ****** ****** ****** ****** ******
  19  ****** ****** ****** ****** ****** ****** ****** ****** ****** ******
      ****** ****** ****** ****** ****** ****** ****** ****** ****** ******
      ****** ****** ****** ****** ****** ****** ****** ****** ****** ******
  20  ****** ****** ****** ****** ****** ****** ****** ****** ****** ******
      ****** ****** ****** ****** ****** ****** ****** ****** ****** ******
      ****** ****** ****** ****** ****** ****** ****** ****** ****** ******
  21  ****** ****** ****** ****** ****** ****** ****** ****** ****** ******
      ****** ****** ****** ****** ****** ****** ****** ****** ****** ******
      ****** ****** ****** ****** ****** ****** ****** ****** ****** ******
  22  ****** ****** ****** ****** ****** ****** ****** ****** ****** ******
      ****** ****** ****** ****** ****** ****** ****** ****** ****** ******
      ****** ****** ****** ****** ****** ****** ****** ****** ****** ******
  23  ****** ****** ****** ****** ****** ****** ****** ****** ****** ******
      ****** ****** ****** ****** ****** ****** ****** ****** ****** ******
      ****** ****** ****** ****** ****** ****** ****** ****** ****** ******
  24  ****** ****** ****** ****** ****** ****** ****** ****** ****** ******
      ****** ****** ****** ****** ****** ****** ****** ****** ****** ******
      ****** ****** ****** ****** ****** ****** ****** ****** ****** ******
  25  ****** ****** ****** ****** ****** ****** ****** ****** ****** ******
      ****** ****** ****** ****** ****** ****** ****** ****** ****** ******
      ****** ****** ****** ****** ****** ****** ****** ****** ****** ******

 HEAD WILL BE SAVED ON UNIT   51 AT END OF TIME STEP    1, STRESS PERIOD    1
1
  VOLUMETRIC BUDGET FOR ENTIRE MODEL AT END OF TIME STEP    1, STRESS PERIOD   1
  ------------------------------------------------------------------------------

     CUMULATIVE VOLUMES      L**3       RATES FOR THIS TIME STEP      L**3/T
     ------------------                 ------------------------

           IN:                                      IN:
           ---                                      ---
             STORAGE =    17756847.8938               STORAGE =      193009.2162
       CONSTANT HEAD =     1171526.6170         CONSTANT HEAD =       12733.9850
               WELLS =           0.0000                 WELLS =           0.0000
            RECHARGE =     1269600.0000              RECHARGE =       13800.0000
      STREAM LEAKAGE =      360250.1203        STREAM LEAKAGE =        3915.7622

            TOTAL IN =    20558224.6311              TOTAL IN =      223458.9634

          OUT:                                     OUT:
          ----                                     ----
             STORAGE =           0.0000               STORAGE =           0.0000
       CONSTANT HEAD =           0.0000         CONSTANT HEAD =           0.0000
               WELLS =     4186514.2119                 WELLS =       45505.5893
            RECHARGE =           0.0000              RECHARGE =           0.0000
      STREAM LEAKAGE =    16371710.7082        STREAM LEAKAGE =      177953.3773

           TOTAL OUT =    20558224.9201             TOTAL OUT =      223458.9665

            IN - OUT =          -0.2890              IN - OUT =      -3.1410E-03

 PERCENT DISCREPANCY =          -0.00     PERCENT DISCREPANCY =          -0.00






         TIME SUMMARY AT END OF TIME STEP    1 IN STRESS PERIOD    1
                    SECONDS     MINUTES      HOURS       DAYS        YEARS
                    -----------------------------------------------------------
   TIME STEP LENGTH 7.94880E+06 1.32480E+05  2208.0      92.000     0.25188    
 STRESS PERIOD TIME 7.94880E+06 1.32480E+05  2208.0      92.000     0.25188    
         TOTAL TIME 7.94880E+06 1.32480E+05  2208.0      92.000     0.25188    
1
1
                            STRESS PERIOD NO.    2, LENGTH =   91.00000    
                            -----------------------------------------------

                              NUMBER OF TIME STEPS =     1

                               MULTIPLIER FOR DELT =     1.500

                            INITIAL TIME STEP SIZE =   91.00000    

 WELL NO.  LAYER   ROW   COL   STRESS RATE         
 --------------------------------------------------
      1      1     14      6       0.000    
      2      1      3      9       0.000    
      3      1     20     10       0.000    
      4      1     14     20       0.000    
      5      1     20     29      -8734.    
      6      1     15     15     -0.1244E+05
      7      1     17     29     -0.1509E+05
      8      1      6     23      -9237.    

      8 WELLS

                 RECHARGE =  2.000000E-03

 REUSING STREAM SEGMENT DATA FROM LAST STRESS PERIOD
 
 SOLVING FOR HEAD 


     7 CALLS TO PCG ROUTINE FOR TIME STEP   1 IN STRESS PERIOD    2
    27 TOTAL ITERATIONS

 OUTPUT CONTROL FOR STRESS PERIOD    2   TIME STEP    1
    SAVE BUDGET
    SAVE HEAD FOR ALL LAYERS
    PRINT HEAD FOR ALL LAYERS
 UBDSV2 SAVING "STREAMFLOW OUT  " ON UNIT  50 AT TIME STEP  1, STRESS PERIOD   2



 STREAM LISTING     PERIOD      2   STEP        1

 LAYER ROW COL. STREAM  RCH.  FLOW INTO     FLOW TO   FLOW OUT OF   OVRLND.     DIRECT     STREAM       STREAM     STREAM     STREAM   STREAMBED  STREAMBED
                SEG.NO.  NO.  STRM. RCH.    AQUIFER    STRM. RCH.    RUNOFF     PRECIP       ET          HEAD       DEPTH      WIDTH   CONDCTNC.   GRADIENT

   1   13    1     1     1    1.0000E+05 -4.0076E+03   1.0401E+05  0.000E+00  0.000E+00  0.000E+00  4.84077E+01  1.464E-01  2.000E+01  2.000E+04 -2.004E-01
   1   13    2     1     2    1.0401E+05 -5.2701E+03   1.0928E+05  0.000E+00  0.000E+00  0.000E+00  4.79344E+01  1.503E-01  2.000E+01  2.000E+04 -2.635E-01
   1   14    3     1     3    1.0928E+05 -1.1155E+03   1.1039E+05  0.000E+00  0.000E+00  0.000E+00  4.74598E+01  1.530E-01  2.000E+01  2.000E+04 -5.577E-02
   1   15    4     1     4    1.1039E+05 -1.1422E+03   1.1154E+05  0.000E+00  0.000E+00  0.000E+00  4.69835E+01  1.540E-01  2.000E+01  2.000E+04 -5.711E-02
   1   16    5     1     5    1.1154E+05 -4.2310E+03   1.1577E+05  0.000E+00  0.000E+00  0.000E+00  4.65085E+01  1.562E-01  2.000E+01  2.000E+04 -2.116E-01
   1   16    6     1     6    1.1577E+05 -2.4884E+03   1.1825E+05  0.000E+00  0.000E+00  0.000E+00  4.60339E+01  1.589E-01  2.000E+01  2.000E+04 -1.244E-01
   1   16    7     1     7    1.1825E+05 -2.3873E+03   1.2064E+05  0.000E+00  0.000E+00  0.000E+00  4.55587E+01  1.609E-01  2.000E+01  2.000E+04 -1.194E-01
   1   16    8     1     8    1.2064E+05 -2.3466E+03   1.2299E+05  0.000E+00  0.000E+00  0.000E+00  4.50833E+01  1.628E-01  2.000E+01  2.000E+04 -1.173E-01
   1   16    9     1     9    1.2299E+05 -2.3069E+03   1.2530E+05  0.000E+00  0.000E+00  0.000E+00  4.46079E+01  1.647E-01  2.000E+01  2.000E+04 -1.153E-01
   1   16   10     1    10    1.2530E+05 -2.2487E+03   1.2754E+05  0.000E+00  0.000E+00  0.000E+00  4.41324E+01  1.665E-01  2.000E+01  2.000E+04 -1.124E-01
   1   16   11     1    11    1.2754E+05 -2.1780E+03   1.2972E+05  0.000E+00  0.000E+00  0.000E+00  4.36569E+01  1.682E-01  2.000E+01  2.000E+04 -1.089E-01
   1   16   12     1    12    1.2972E+05 -3.3267E+03   1.3305E+05  0.000E+00  0.000E+00  0.000E+00  4.31818E+01  1.704E-01  2.000E+01  2.000E+04 -1.663E-01
   1   15   13     1    13    1.3305E+05 -1.9851E+03   1.3503E+05  0.000E+00  0.000E+00  0.000E+00  4.27065E+01  1.725E-01  2.000E+01  2.000E+04 -9.926E-02
   1   14   14     1    14    1.3503E+05 -1.3201E+03   1.3635E+05  0.000E+00  0.000E+00  0.000E+00  4.22305E+01  1.737E-01  2.000E+01  2.000E+04 -6.601E-02
   1   13   15     1    15    1.3635E+05 -2.8020E+03   1.3916E+05  0.000E+00  0.000E+00  0.000E+00  4.17548E+01  1.753E-01  2.000E+01  2.000E+04 -1.401E-01
   1   12   16     1    16    1.3916E+05 -5.1543E+03   1.4431E+05  0.000E+00  0.000E+00  0.000E+00  4.12806E+01  1.783E-01  2.000E+01  2.000E+04 -2.577E-01
   1   12   17     1    17    1.4431E+05 -3.2799E+03   1.4759E+05  0.000E+00  0.000E+00  0.000E+00  4.08065E+01  1.815E-01  2.000E+01  2.000E+04 -1.640E-01
   1   12   18     1    18    1.4759E+05 -3.1950E+03   1.5079E+05  0.000E+00  0.000E+00  0.000E+00  4.03316E+01  1.839E-01  2.000E+01  2.000E+04 -1.598E-01
   1   12   19     1    19    1.5079E+05 -4.1227E+03   1.5491E+05  0.000E+00  0.000E+00  0.000E+00  3.98570E+01  1.866E-01  2.000E+01  2.000E+04 -2.061E-01
   1   13   20     1    20    1.5491E+05 -3.2039E+03   1.5811E+05  0.000E+00  0.000E+00  0.000E+00  3.93824E+01  1.893E-01  2.000E+01  2.000E+04 -1.602E-01
   1   14   21     1    21    1.5811E+05 -3.2459E+03   1.6136E+05  0.000E+00  0.000E+00  0.000E+00  3.89075E+01  1.916E-01  2.000E+01  2.000E+04 -1.623E-01
   1   14   22     1    22    1.6136E+05  4.4696E+03   1.5689E+05  0.000E+00  0.000E+00  0.000E+00  3.84298E+01  1.911E-01  2.000E+01  2.000E+04  2.235E-01
   1    9   30     2     1    5.0000E+04 -1.6988E+03   5.1699E+04  0.000E+00  0.000E+00  0.000E+00  4.02420E+01  1.170E-01  2.000E+01  2.000E+04 -8.494E-02
   1    9   29     2     2    5.1699E+04 -1.9900E+03   5.3689E+04  0.000E+00  0.000E+00  0.000E+00  3.99946E+01  1.196E-01  2.000E+01  2.000E+04 -9.950E-02
   1    9   28     2     3    5.3689E+04 -2.2381E+03   5.5927E+04  0.000E+00  0.000E+00  0.000E+00  3.97474E+01  1.224E-01  2.000E+01  2.000E+04 -1.119E-01
   1    9   27     2     4    5.5927E+04 -3.8661E+03   5.9793E+04  0.000E+00  0.000E+00  0.000E+00  3.95015E+01  1.265E-01  2.000E+01  2.000E+04 -1.933E-01
   1   10   26     2     5    5.9793E+04 -2.8597E+03   6.2653E+04  0.000E+00  0.000E+00  0.000E+00  3.92558E+01  1.308E-01  2.000E+01  2.000E+04 -1.430E-01
   1   11   25     2     6    6.2653E+04 -2.6534E+03   6.5306E+04  0.000E+00  0.000E+00  0.000E+00  3.90093E+01  1.343E-01  2.000E+01  2.000E+04 -1.327E-01
   1   12   24     2     7    6.5306E+04 -2.7316E+03   6.8038E+04  0.000E+00  0.000E+00  0.000E+00  3.87627E+01  1.377E-01  2.000E+01  2.000E+04 -1.366E-01
   1   13   23     2     8    6.8038E+04 -5.5436E+02   6.8592E+04  0.000E+00  0.000E+00  0.000E+00  3.85147E+01  1.397E-01  2.000E+01  2.000E+04 -2.772E-02
   1   14   22     2     9    6.8592E+04  1.1610E+03   6.7431E+04  0.000E+00  0.000E+00  0.000E+00  3.82644E+01  1.394E-01  2.000E+01  2.000E+04  5.805E-02
   1   14   22     3     1    2.2432E+05 -9.0698E+03   2.3339E+05  0.000E+00  0.000E+00  0.000E+00  3.77528E+01  1.973E-01  2.000E+01  2.000E+04 -4.535E-01
   1   15   23     3     2    2.3339E+05 -9.9076E+02   2.3438E+05  0.000E+00  0.000E+00  0.000E+00  3.68665E+01  1.998E-01  2.000E+01  2.000E+04 -4.954E-02
   1   15   24     3     3    2.3438E+05 -6.4164E+02   2.3502E+05  0.000E+00  0.000E+00  0.000E+00  3.59780E+01  2.003E-01  2.000E+01  2.000E+04 -3.208E-02
   1   15   25     3     4    2.3502E+05 -6.4358E+02   2.3567E+05  0.000E+00  0.000E+00  0.000E+00  3.50895E+01  2.006E-01  2.000E+01  2.000E+04 -3.218E-02
   1   15   26     3     5    2.3567E+05 -6.6877E+02   2.3633E+05  0.000E+00  0.000E+00  0.000E+00  3.42009E+01  2.009E-01  2.000E+01  2.000E+04 -3.344E-02
   1   16   27     3     6    2.3633E+05 -5.4806E+02   2.3688E+05  0.000E+00  0.000E+00  0.000E+00  3.33124E+01  2.012E-01  2.000E+01  2.000E+04 -2.740E-02
   1   17   28     3     7    2.3688E+05  3.6283E+03   2.3325E+05  0.000E+00  0.000E+00  0.000E+00  3.24227E+01  2.005E-01  2.000E+01  2.000E+04  1.814E-01
   1   18   29     3     8    2.3325E+05  2.9119E+03   2.3034E+05  0.000E+00  0.000E+00  0.000E+00  3.15321E+01  1.988E-01  2.000E+01  2.000E+04  1.456E-01
   1   18   30     3     9    2.3034E+05 -1.0764E+02   2.3045E+05  0.000E+00  0.000E+00  0.000E+00  3.06425E+01  1.981E-01  2.000E+01  2.000E+04 -5.382E-03



1
              HEAD IN LAYER   1 AT END OF TIME STEP   1 IN STRESS PERIOD    2
  ---------------------------------------------------------------------------

          1      2      3      4      5      6      7      8      9     10
         11     12     13     14     15     16     17     18     19     20
         21     22     23     24     25     26     27     28     29     30
 .........................................................................
   1  ****** ****** ****** ****** ****** ****** ****** ****** ****** ******
      ****** ****** ****** ****** ****** ****** ****** ****** ****** ******
      ****** ****** ****** ****** ****** ****** ****** ****** ****** ******
   2  ****** ****** ****** ****** ****** ****** ****** ****** ****** ******
      ****** ****** ****** ****** ****** ****** ****** ****** ****** ******
      ****** ****** ****** ****** ****** ****** ****** ****** ****** ******
   3  ****** ****** ****** ****** ****** ****** ****** ****** ****** ******
      ****** ****** ****** ****** ****** ****** ****** ****** ****** ******
      ****** ****** ****** ****** ****** ****** ****** ****** ****** ******
   4  ****** ****** ****** ****** ****** ****** ****** ****** ****** ******
      ****** ****** ****** ****** ****** ****** ****** ****** ****** ******
      ****** ****** ****** ****** ****** ****** ****** ****** ****** ******
   5  ****** ****** ****** ****** ****** ****** ****** ****** ****** ******
      ****** ****** ****** ****** ****** ****** ****** ****** ****** ******
      ****** ****** ****** ****** ****** ****** ****** ****** ****** ******
   6  ****** ****** ****** ****** ****** ****** ****** ****** ****** ******
      ****** ****** ****** ****** ****** ****** ****** ****** ****** ******
      ****** ****** ****** ****** ****** ****** ****** ****** ****** ******
   7  ****** ****** ****** ****** ****** ****** ****** ****** ****** ******
      ****** ****** ****** ****** ****** ****** ****** ****** ****** ******
      ****** ****** ****** ****** ****** ****** ****** ****** ****** ******
   8  ****** ****** ****** ****** ****** ****** ****** ****** ****** ******
      ****** ****** ****** ****** ****** ****** ****** ****** ****** ******
      ****** ****** ****** ****** ****** ****** ****** ****** ****** ******
   9  ****** ****** ****** ****** ****** ****** ****** ****** ****** ******
      ****** ****** ****** ****** ****** ****** ****** ****** ****** ******
      ****** ****** ****** ****** ****** ****** ****** ****** ****** ******
  10  ****** ****** ****** ****** ****** ****** ****** ****** ****** ******
      ****** ****** ****** ****** ****** ****** ****** ****** ****** ******
      ****** ****** ****** ****** ****** ****** ****** ****** ****** ******
  11  ****** ****** ****** ****** ****** ****** ****** ****** ****** ******
      ****** ****** ****** ****** ****** ****** ****** ****** ****** ******
      ****** ****** ****** ****** ****** ****** ****** ****** ****** ******
  12  ****** ****** ****** ****** ****** ****** ****** ****** ****** ******
      ****** ****** ****** ****** ****** ****** ****** ****** ****** ******
      ****** ****** ****** ****** ****** ****** ****** ****** ****** ******
  13  ****** ****** ****** ****** ****** ****** ****** ****** ****** ******
      ****** ****** ****** ****** ****** ****** ****** ****** ****** ******
      ****** ****** ****** ****** ****** ****** ****** ****** ****** ******
  14  ****** ****** ****** ****** ****** ****** ****** ****** ****** ******
      ****** ****** ****** ****** ****** ****** ****** ****** ****** ******
      ****** ****** ****** ****** ****** ****** ****** ****** ****** ******
  15  ****** ****** ****** ****** ****** ****** ****** ****** ****** ******
      ****** ****** ****** ****** ****** ****** ****** ****** ****** ******
      ****** ****** ****** ****** ****** ****** ****** ****** ****** ******
  16  ****** ****** ****** ****** ****** ****** ****** ****** ****** ******
      ****** ****** ****** ****** ****** ****** ****** ****** ****** ******
      ****** ****** ****** ****** ****** ****** ****** ****** ****** ******
  17  ****** ****** ****** ****** ****** ****** ****** ****** ****** ******
      ****** ****** ****** ****** ****** ****** ****** ****** ****** ******
      ****** ****** ****** ****** ****** ****** ****** ****** ****** ******
  18  ****** ****** ****** ****** ****** ****** ****** ****** ****** ******
      ****** ****** ****** ****** ****** ****** ****** ****** ****** ******
      ****** ****** ****** ****** ****** ****** ****** ****** ****** ******
  19  ****** ****** ****** ****** ****** ****** ****** ****** ****** ******
      ****** ****** ****** ****** ****** ****** ****** ****** ****** ******
      ****** ****** ****** ****** ****** ****** ****** ****** ****** ******
  20  ****** ****** ****** ****** ****** ****** ****** ****** ****** ******
      ****** ****** ****** ****** ****** ****** ****** ****** ****** ******
      ****** ****** ****** ****** ****** ****** ****** ****** ****** ******
  21  ****** ****** ****** ****** ****** ****** ****** ****** ****** ******
      ****** ****** ****** ****** ****** ****** ****** ****** ****** ******
      ****** ****** ****** ****** ****** ****** ****** ****** ****** ******
  22  ****** ****** ****** ****** ****** ****** ****** ****** ****** ******
      ****** ****** ****** ****** ****** ****** ****** ****** ****** ******
      ****** ****** ****** ****** ****** ****** ****** ****** ****** ******
  23  ****** ****** ****** ****** ****** ****** ****** ****** ****** ******
      ****** ****** ****** ****** ****** ****** ****** ****** ****** ******
      ****** ****** ****** ****** ****** ****** ****** ****** ****** ******
  24  ****** ****** ****** ****** ****** ****** ****** ****** ****** ******
      ****** ****** ****** ****** ****** ****** ****** ****** ****** ******
      ****** ****** ****** ****** ****** ****** ****** ****** ****** ******
  25  ****** ****** ****** ****** ****** ****** ****** ****** ****** ******
      ****** ****** ****** ****** ****** ****** ****** ****** ****** ******
      ****** ****** ****** ****** ****** ****** ****** ****** ****** ******

 HEAD WILL BE SAVED ON UNIT   51 AT END OF TIME STEP    1, STRESS PERIOD    2
1
  VOLUMETRIC BUDGET FOR ENTIRE MODEL AT END OF TIME STEP    1, STRESS PERIOD   2
  ------------------------------------------------------------------------------

     CUMULATIVE VOLUMES      L**3       RATES FOR THIS TIME STEP      L**3/T
     ------------------                 ------------------------

           IN:                                      IN:
           ---                                      ---
             STORAGE =    22615586.7778               STORAGE =       53392.7350
       CONSTANT HEAD =     2751506.6796         CONSTANT HEAD =       17362.4183
               WELLS =           0.0000                 WELLS =           0.0000
            RECHARGE =     6292800.0000              RECHARGE =       55200.0000
      STREAM LEAKAGE =     1467788.6859        STREAM LEAKAGE =       12170.7535

            TOTAL IN =    33127682.1434              TOTAL IN =      138125.9067

          OUT:                                     OUT:
          ----                                     ----
             STORAGE =           0.0000               STORAGE =           0.0000
       CONSTANT HEAD =           0.0000         CONSTANT HEAD =           0.0000
               WELLS =     8327522.8345                 WELLS =       45505.5893
            RECHARGE =           0.0000              RECHARGE =           0.0000
      STREAM LEAKAGE =    24800160.5507        STREAM LEAKAGE =       92620.3279

           TOTAL OUT =    33127683.3852             TOTAL OUT =      138125.9172

            IN - OUT =          -1.2418              IN - OUT =      -1.0471E-02

 PERCENT DISCREPANCY =          -0.00     PERCENT DISCREPANCY =          -0.00






         TIME SUMMARY AT END OF TIME STEP    1 IN STRESS PERIOD    2
                    SECONDS     MINUTES      HOURS       DAYS        YEARS
                    -----------------------------------------------------------
   TIME STEP LENGTH 7.86240E+06 1.31040E+05  2184.0      91.000     0.24914    
 STRESS PERIOD TIME 7.86240E+06 1.31040E+05  2184.0      91.000     0.24914    
         TOTAL TIME 1.58112E+07 2.63520E+05  4392.0      183.00     0.50103    
1
1
                            STRESS PERIOD NO.    3, LENGTH =   91.00000    
                            -----------------------------------------------

                              NUMBER OF TIME STEPS =     1

                               MULTIPLIER FOR DELT =     1.500

                            INITIAL TIME STEP SIZE =   91.00000    

 WELL NO.  LAYER   ROW   COL   STRESS RATE         
 --------------------------------------------------
      1      1     14      6       0.000    
      2      1      3      9       0.000    
      3      1     20     10       0.000    
      4      1     14     20       0.000    
      5      1     20     29      -8734.    
      6      1     15     15     -0.1244E+05
      7      1     17     29     -0.1509E+05
      8      1      6     23      -9237.    

      8 WELLS

                 RECHARGE =   0.00000    

 REUSING STREAM SEGMENT DATA FROM LAST STRESS PERIOD
 
 SOLVING FOR HEAD 


     7 CALLS TO PCG ROUTINE FOR TIME STEP   1 IN STRESS PERIOD    3
    27 TOTAL ITERATIONS

 OUTPUT CONTROL FOR STRESS PERIOD    3   TIME STEP    1
    SAVE BUDGET
    SAVE HEAD FOR ALL LAYERS
    PRINT HEAD FOR ALL LAYERS
 UBDSV2 SAVING "STREAMFLOW OUT  " ON UNIT  50 AT TIME STEP  1, STRESS PERIOD   3



 STREAM LISTING     PERIOD      3   STEP        1

 LAYER ROW COL. STREAM  RCH.  FLOW INTO     FLOW TO   FLOW OUT OF   OVRLND.     DIRECT     STREAM       STREAM     STREAM     STREAM   STREAMBED  STREAMBED
                SEG.NO.  NO.  STRM. RCH.    AQUIFER    STRM. RCH.    RUNOFF     PRECIP       ET          HEAD       DEPTH      WIDTH   CONDCTNC.   GRADIENT

   1   13    1     1     1    1.0000E+05 -2.7632E+03   1.0276E+05  0.000E+00  0.000E+00  0.000E+00  4.84072E+01  1.458E-01  2.000E+01  2.000E+04 -1.382E-01
   1   13    2     1     2    1.0276E+05 -3.8730E+03   1.0664E+05  0.000E+00  0.000E+00  0.000E+00  4.79328E+01  1.487E-01  2.000E+01  2.000E+04 -1.936E-01
   1   14    3     1     3    1.0664E+05 -6.5502E+02   1.0729E+05  0.000E+00  0.000E+00  0.000E+00  4.74574E+01  1.506E-01  2.000E+01  2.000E+04 -3.275E-02
   1   15    4     1     4    1.0729E+05 -6.3703E+02   1.0793E+05  0.000E+00  0.000E+00  0.000E+00  4.69807E+01  1.512E-01  2.000E+01  2.000E+04 -3.185E-02
   1   16    5     1     5    1.0793E+05 -2.4298E+03   1.1036E+05  0.000E+00  0.000E+00  0.000E+00  4.65047E+01  1.524E-01  2.000E+01  2.000E+04 -1.215E-01
   1   16    6     1     6    1.1036E+05 -1.4810E+03   1.1184E+05  0.000E+00  0.000E+00  0.000E+00  4.60291E+01  1.541E-01  2.000E+01  2.000E+04 -7.405E-02
   1   16    7     1     7    1.1184E+05 -1.4370E+03   1.1328E+05  0.000E+00  0.000E+00  0.000E+00  4.55530E+01  1.553E-01  2.000E+01  2.000E+04 -7.185E-02
   1   16    8     1     8    1.1328E+05 -1.4128E+03   1.1469E+05  0.000E+00  0.000E+00  0.000E+00  4.50769E+01  1.565E-01  2.000E+01  2.000E+04 -7.064E-02
   1   16    9     1     9    1.1469E+05 -1.3752E+03   1.1606E+05  0.000E+00  0.000E+00  0.000E+00  4.46008E+01  1.576E-01  2.000E+01  2.000E+04 -6.876E-02
   1   16   10     1    10    1.1606E+05 -1.3141E+03   1.1738E+05  0.000E+00  0.000E+00  0.000E+00  4.41246E+01  1.587E-01  2.000E+01  2.000E+04 -6.570E-02
   1   16   11     1    11    1.1738E+05 -1.2324E+03   1.1861E+05  0.000E+00  0.000E+00  0.000E+00  4.36484E+01  1.598E-01  2.000E+01  2.000E+04 -6.162E-02
   1   16   12     1    12    1.1861E+05 -1.6724E+03   1.2028E+05  0.000E+00  0.000E+00  0.000E+00  4.31723E+01  1.609E-01  2.000E+01  2.000E+04 -8.362E-02
   1   15   13     1    13    1.2028E+05 -2.9794E+02   1.2058E+05  0.000E+00  0.000E+00  0.000E+00  4.26958E+01  1.617E-01  2.000E+01  2.000E+04 -1.490E-02
   1   14   14     1    14    1.2058E+05  4.1050E+02   1.2017E+05  0.000E+00  0.000E+00  0.000E+00  4.22185E+01  1.617E-01  2.000E+01  2.000E+04  2.053E-02
   1   13   15     1    15    1.2017E+05 -1.0730E+03   1.2124E+05  0.000E+00  0.000E+00  0.000E+00  4.17415E+01  1.619E-01  2.000E+01  2.000E+04 -5.365E-02
   1   12   16     1    16    1.2124E+05 -3.3703E+03   1.2461E+05  0.000E+00  0.000E+00  0.000E+00  4.12660E+01  1.637E-01  2.000E+01  2.000E+04 -1.685E-01
   1   12   17     1    17    1.2461E+05 -1.9767E+03   1.2659E+05  0.000E+00  0.000E+00  0.000E+00  4.07909E+01  1.659E-01  2.000E+01  2.000E+04 -9.884E-02
   1   12   18     1    18    1.2659E+05 -1.9051E+03   1.2850E+05  0.000E+00  0.000E+00  0.000E+00  4.03151E+01  1.674E-01  2.000E+01  2.000E+04 -9.526E-02
   1   12   19     1    19    1.2850E+05 -2.4948E+03   1.3099E+05  0.000E+00  0.000E+00  0.000E+00  3.98396E+01  1.691E-01  2.000E+01  2.000E+04 -1.247E-01
   1   13   20     1    20    1.3099E+05 -1.7068E+03   1.3270E+05  0.000E+00  0.000E+00  0.000E+00  3.93639E+01  1.707E-01  2.000E+01  2.000E+04 -8.534E-02
   1   14   21     1    21    1.3270E+05 -1.7173E+03   1.3441E+05  0.000E+00  0.000E+00  0.000E+00  3.88880E+01  1.721E-01  2.000E+01  2.000E+04 -8.586E-02
   1   14   22     1    22    1.3441E+05  4.8395E+03   1.2957E+05  0.000E+00  0.000E+00  0.000E+00  3.84095E+01  1.709E-01  2.000E+01  2.000E+04  2.420E-01
   1    9   30     2     1    5.0000E+04 -4.4357E+02   5.0444E+04  0.000E+00  0.000E+00  0.000E+00  4.02412E+01  1.162E-01  2.000E+01  2.000E+04 -2.218E-02
   1    9   29     2     2    5.0444E+04 -7.3538E+02   5.1179E+04  0.000E+00  0.000E+00  0.000E+00  3.99920E+01  1.170E-01  2.000E+01  2.000E+04 -3.677E-02
   1    9   28     2     3    5.1179E+04 -9.6667E+02   5.2146E+04  0.000E+00  0.000E+00  0.000E+00  3.97432E+01  1.182E-01  2.000E+01  2.000E+04 -4.833E-02
   1    9   27     2     4    5.2146E+04 -2.0244E+03   5.4170E+04  0.000E+00  0.000E+00  0.000E+00  3.94952E+01  1.202E-01  2.000E+01  2.000E+04 -1.012E-01
   1   10   26     2     5    5.4170E+04 -1.1555E+03   5.5325E+04  0.000E+00  0.000E+00  0.000E+00  3.92473E+01  1.223E-01  2.000E+01  2.000E+04 -5.777E-02
   1   11   25     2     6    5.5325E+04 -1.0765E+03   5.6402E+04  0.000E+00  0.000E+00  0.000E+00  3.89988E+01  1.238E-01  2.000E+01  2.000E+04 -5.383E-02
   1   12   24     2     7    5.6402E+04 -1.3303E+03   5.7732E+04  0.000E+00  0.000E+00  0.000E+00  3.87504E+01  1.254E-01  2.000E+01  2.000E+04 -6.651E-02
   1   13   23     2     8    5.7732E+04 -2.1243E+02   5.7945E+04  0.000E+00  0.000E+00  0.000E+00  3.85014E+01  1.264E-01  2.000E+01  2.000E+04 -1.062E-02
   1   14   22     2     9    5.7945E+04  1.6593E+03   5.6285E+04  0.000E+00  0.000E+00  0.000E+00  3.82505E+01  1.255E-01  2.000E+01  2.000E+04  8.296E-02
   1   14   22     3     1    1.8586E+05 -8.7087E+03   1.9457E+05  0.000E+00  0.000E+00  0.000E+00  3.77321E+01  1.765E-01  2.000E+01  2.000E+04 -4.354E-01
   1   15   23     3     2    1.9457E+05 -5.8674E+02   1.9516E+05  0.000E+00  0.000E+00  0.000E+00  3.68458E+01  1.791E-01  2.000E+01  2.000E+04 -2.934E-02
   1   15   24     3     3    1.9516E+05 -3.1188E+02   1.9547E+05  0.000E+00  0.000E+00  0.000E+00  3.59571E+01  1.794E-01  2.000E+01  2.000E+04 -1.559E-02
   1   15   25     3     4    1.9547E+05 -2.9652E+02   1.9576E+05  0.000E+00  0.000E+00  0.000E+00  3.50684E+01  1.795E-01  2.000E+01  2.000E+04 -1.483E-02
   1   15   26     3     5    1.9576E+05 -2.5303E+02   1.9602E+05  0.000E+00  0.000E+00  0.000E+00  3.41797E+01  1.797E-01  2.000E+01  2.000E+04 -1.265E-02
   1   16   27     3     6    1.9602E+05 -6.2403E+01   1.9608E+05  0.000E+00  0.000E+00  0.000E+00  3.32909E+01  1.798E-01  2.000E+01  2.000E+04 -3.120E-03
   1   17   28     3     7    1.9608E+05  5.1501E+03   1.9093E+05  0.000E+00  0.000E+00  0.000E+00  3.24006E+01  1.784E-01  2.000E+01  2.000E+04  2.575E-01
   1   18   29     3     8    1.9093E+05  4.6187E+03   1.8631E+05  0.000E+00  0.000E+00  0.000E+00  3.15090E+01  1.757E-01  2.000E+01  2.000E+04  2.309E-01
   1   18   30     3     9    1.8631E+05  1.1630E+03   1.8515E+05  0.000E+00  0.000E+00  0.000E+00  3.06185E+01  1.740E-01  2.000E+01  2.000E+04  5.815E-02



1
              HEAD IN LAYER   1 AT END OF TIME STEP   1 IN STRESS PERIOD    3
  ---------------------------------------------------------------------------

          1      2      3      4      5      6      7      8      9     10
         11     12     13     14     15     16     17     18     19     20
         21     22     23     24     25     26     27     28     29     30
 .........................................................................
   1  ****** ****** ****** ****** ****** ****** ****** ****** ****** ******
      ****** ****** ****** ****** ****** ****** ****** ****** ****** ******
      ****** ****** ****** ****** ****** ****** ****** ****** ****** ******
   2  ****** ****** ****** ****** ****** ****** ****** ****** ****** ******
      ****** ****** ****** ****** ****** ****** ****** ****** ****** ******
      ****** ****** ****** ****** ****** ****** ****** ****** ****** ******
   3  ****** ****** ****** ****** ****** ****** ****** ****** ****** ******
      ****** ****** ****** ****** ****** ****** ****** ****** ****** ******
      ****** ****** ****** ****** ****** ****** ****** ****** ****** ******
   4  ****** ****** ****** ****** ****** ****** ****** ****** ****** ******
      ****** ****** ****** ****** ****** ****** ****** ****** ****** ******
      ****** ****** ****** ****** ****** ****** ****** ****** ****** ******
   5  ****** ****** ****** ****** ****** ****** ****** ****** ****** ******
      ****** ****** ****** ****** ****** ****** ****** ****** ****** ******
      ****** ****** ****** ****** ****** ****** ****** ****** ****** ******
   6  ****** ****** ****** ****** ****** ****** ****** ****** ****** ******
      ****** ****** ****** ****** ****** ****** ****** ****** ****** ******
      ****** ****** ****** ****** ****** ****** ****** ****** ****** ******
   7  ****** ****** ****** ****** ****** ****** ****** ****** ****** ******
      ****** ****** ****** ****** ****** ****** ****** ****** ****** ******
      ****** ****** ****** ****** ****** ****** ****** ****** ****** ******
   8  ****** ****** ****** ****** ****** ****** ****** ****** ****** ******
      ****** ****** ****** ****** ****** ****** ****** ****** ****** ******
      ****** ****** ****** ****** ****** ****** ****** ****** ****** ******
   9  ****** ****** ****** ****** ****** ****** ****** ****** ****** ******
      ****** ****** ****** ****** ****** ****** ****** ****** ****** ******
      ****** ****** ****** ****** ****** ****** ****** ****** ****** ******
  10  ****** ****** ****** ****** ****** ****** ****** ****** ****** ******
      ****** ****** ****** ****** ****** ****** ****** ****** ****** ******
      ****** ****** ****** ****** ****** ****** ****** ****** ****** ******
  11  ****** ****** ****** ****** ****** ****** ****** ****** ****** ******
      ****** ****** ****** ****** ****** ****** ****** ****** ****** ******
      ****** ****** ****** ****** ****** ****** ****** ****** ****** ******
  12  ****** ****** ****** ****** ****** ****** ****** ****** ****** ******
      ****** ****** ****** ****** ****** ****** ****** ****** ****** ******
      ****** ****** ****** ****** ****** ****** ****** ****** ****** ******
  13  ****** ****** ****** ****** ****** ****** ****** ****** ****** ******
      ****** ****** ****** ****** ****** ****** ****** ****** ****** ******
      ****** ****** ****** ****** ****** ****** ****** ****** ****** ******
  14  ****** ****** ****** ****** ****** ****** ****** ****** ****** ******
      ****** ****** ****** ****** ****** ****** ****** ****** ****** ******
      ****** ****** ****** ****** ****** ****** ****** ****** ****** ******
  15  ****** ****** ****** ****** ****** ****** ****** ****** ****** ******
      ****** ****** ****** ****** ****** ****** ****** ****** ****** ******
      ****** ****** ****** ****** ****** ****** ****** ****** ****** ******
  16  ****** ****** ****** ****** ****** ****** ****** ****** ****** ******
      ****** ****** ****** ****** ****** ****** ****** ****** ****** ******
      ****** ****** ****** ****** ****** ****** ****** ****** ****** ******
  17  ****** ****** ****** ****** ****** ****** ****** ****** ****** ******
      ****** ****** ****** ****** ****** ****** ****** ****** ****** ******
      ****** ****** ****** ****** ****** ****** ****** ****** ****** ******
  18  ****** ****** ****** ****** ****** ****** ****** ****** ****** ******
      ****** ****** ****** ****** ****** ****** ****** ****** ****** ******
      ****** ****** ****** ****** ****** ****** ****** ****** ****** ******
  19  ****** ****** ****** ****** ****** ****** ****** ****** ****** ******
      ****** ****** ****** ****** ****** ****** ****** ****** ****** ******
      ****** ****** ****** ****** ****** ****** ****** ****** ****** ******
  20  ****** ****** ****** ****** ****** ****** ****** ****** ****** ******
      ****** ****** ****** ****** ****** ****** ****** ****** ****** ******
      ****** ****** ****** ****** ****** ****** ****** ****** ****** ******
  21  ****** ****** ****** ****** ****** ****** ****** ****** ****** ******
      ****** ****** ****** ****** ****** ****** ****** ****** ****** ******
      ****** ****** ****** ****** ****** ****** ****** ****** ****** ******
  22  ****** ****** ****** ****** ****** ****** ****** ****** ****** ******
      ****** ****** ****** ****** ****** ****** ****** ****** ****** ******
      ****** ****** ****** ****** ****** ****** ****** ****** ****** ******
  23  ****** ****** ****** ****** ****** ****** ****** ****** ****** ******
      ****** ****** ****** ****** ****** ****** ****** ****** ****** ******
      ****** ****** ****** ****** ****** ****** ****** ****** ****** ******
  24  ****** ****** ****** ****** ****** ****** ****** ****** ****** ******
      ****** ****** ****** ****** ****** ****** ****** ****** ****** ******
      ****** ****** ****** ****** ****** ****** ****** ****** ****** ******
  25  ****** ****** ****** ****** ****** ****** ****** ****** ****** ******
      ****** ****** ****** ****** ****** ****** ****** ****** ****** ******
      ****** ****** ****** ****** ****** ****** ****** ****** ****** ******

 HEAD WILL BE SAVED ON UNIT   51 AT END OF TIME STEP    1, STRESS PERIOD    3
1
  VOLUMETRIC BUDGET FOR ENTIRE MODEL AT END OF TIME STEP    1, STRESS PERIOD   3
  ------------------------------------------------------------------------------

     CUMULATIVE VOLUMES      L**3       RATES FOR THIS TIME STEP      L**3/T
     ------------------                 ------------------------

           IN:                                      IN:
           ---                                      ---
             STORAGE =    27592919.2918               STORAGE =       54695.9617
       CONSTANT HEAD =     5113634.6480         CONSTANT HEAD =       25957.4502
               WELLS =           0.0000                 WELLS =           0.0000
            RECHARGE =     6292800.0000              RECHARGE =           0.0000
      STREAM LEAKAGE =     3091321.0338        STREAM LEAKAGE =       17841.0148

            TOTAL IN =    42090674.9735              TOTAL IN =       98494.4267

          OUT:                                     OUT:
          ----                                     ----
             STORAGE =           0.0000               STORAGE =           0.0000
       CONSTANT HEAD =           0.0000         CONSTANT HEAD =           0.0000
               WELLS =    12468531.4571                 WELLS =       45505.5893
            RECHARGE =           0.0000              RECHARGE =           0.0000
      STREAM LEAKAGE =    29622145.4346        STREAM LEAKAGE =       52988.8449

           TOTAL OUT =    42090676.8916             TOTAL OUT =       98494.4341

            IN - OUT =          -1.9181              IN - OUT =      -7.4317E-03

 PERCENT DISCREPANCY =          -0.00     PERCENT DISCREPANCY =          -0.00






         TIME SUMMARY AT END OF TIME STEP    1 IN STRESS PERIOD    3
                    SECONDS     MINUTES      HOURS       DAYS        YEARS
                    -----------------------------------------------------------
   TIME STEP LENGTH 7.86240E+06 1.31040E+05  2184.0      91.000     0.24914    
 STRESS PERIOD TIME 7.86240E+06 1.31040E+05  2184.0      91.000     0.24914    
         TOTAL TIME 2.36736E+07 3.94560E+05  6576.0      274.00     0.75017    
1
1
                            STRESS PERIOD NO.    4, LENGTH =   91.00000    
                            -----------------------------------------------

                              NUMBER OF TIME STEPS =     1

                               MULTIPLIER FOR DELT =     1.500

                            INITIAL TIME STEP SIZE =   91.00000    

 WELL NO.  LAYER   ROW   COL   STRESS RATE         
 --------------------------------------------------
      1      1     14      6       0.000    
      2      1      3      9       0.000    
      3      1     20     10       0.000    
      4      1     14     20       0.000    
      5      1     20     29      -8734.    
      6      1     15     15     -0.1244E+05
      7      1     17     29     -0.1509E+05
      8      1      6     23      -9237.    

      8 WELLS

                 RECHARGE =  1.000000E-03

 REUSING STREAM SEGMENT DATA FROM LAST STRESS PERIOD
 
 SOLVING FOR HEAD 


     6 CALLS TO PCG ROUTINE FOR TIME STEP   1 IN STRESS PERIOD    4
    23 TOTAL ITERATIONS

 OUTPUT CONTROL FOR STRESS PERIOD    4   TIME STEP    1
    SAVE BUDGET
    SAVE HEAD FOR ALL LAYERS
    PRINT HEAD FOR ALL LAYERS
 UBDSV2 SAVING "STREAMFLOW OUT  " ON UNIT  50 AT TIME STEP  1, STRESS PERIOD   4



 STREAM LISTING     PERIOD      4   STEP        1

 LAYER ROW COL. STREAM  RCH.  FLOW INTO     FLOW TO   FLOW OUT OF   OVRLND.     DIRECT     STREAM       STREAM     STREAM     STREAM   STREAMBED  STREAMBED
                SEG.NO.  NO.  STRM. RCH.    AQUIFER    STRM. RCH.    RUNOFF     PRECIP       ET          HEAD       DEPTH      WIDTH   CONDCTNC.   GRADIENT

   1   13    1     1     1    1.0000E+05 -2.5349E+03   1.0253E+05  0.000E+00  0.000E+00  0.000E+00  4.84071E+01  1.457E-01  2.000E+01  2.000E+04 -1.267E-01
   1   13    2     1     2    1.0253E+05 -3.6074E+03   1.0614E+05  0.000E+00  0.000E+00  0.000E+00  4.79325E+01  1.484E-01  2.000E+01  2.000E+04 -1.804E-01
   1   14    3     1     3    1.0614E+05 -6.2734E+02   1.0677E+05  0.000E+00  0.000E+00  0.000E+00  4.74570E+01  1.502E-01  2.000E+01  2.000E+04 -3.137E-02
   1   15    4     1     4    1.0677E+05 -5.9919E+02   1.0737E+05  0.000E+00  0.000E+00  0.000E+00  4.69802E+01  1.507E-01  2.000E+01  2.000E+04 -2.996E-02
   1   16    5     1     5    1.0737E+05 -2.1260E+03   1.0949E+05  0.000E+00  0.000E+00  0.000E+00  4.65041E+01  1.519E-01  2.000E+01  2.000E+04 -1.063E-01
   1   16    6     1     6    1.0949E+05 -1.3316E+03   1.1083E+05  0.000E+00  0.000E+00  0.000E+00  4.60283E+01  1.533E-01  2.000E+01  2.000E+04 -6.658E-02
   1   16    7     1     7    1.1083E+05 -1.2987E+03   1.1213E+05  0.000E+00  0.000E+00  0.000E+00  4.55521E+01  1.544E-01  2.000E+01  2.000E+04 -6.493E-02
   1   16    8     1     8    1.1213E+05 -1.2782E+03   1.1340E+05  0.000E+00  0.000E+00  0.000E+00  4.50759E+01  1.555E-01  2.000E+01  2.000E+04 -6.391E-02
   1   16    9     1     9    1.1340E+05 -1.2427E+03   1.1465E+05  0.000E+00  0.000E+00  0.000E+00  4.45997E+01  1.565E-01  2.000E+01  2.000E+04 -6.214E-02
   1   16   10     1    10    1.1465E+05 -1.1841E+03   1.1583E+05  0.000E+00  0.000E+00  0.000E+00  4.41234E+01  1.575E-01  2.000E+01  2.000E+04 -5.920E-02
   1   16   11     1    11    1.1583E+05 -1.1007E+03   1.1693E+05  0.000E+00  0.000E+00  0.000E+00  4.36471E+01  1.584E-01  2.000E+01  2.000E+04 -5.504E-02
   1   16   12     1    12    1.1693E+05 -1.3951E+03   1.1833E+05  0.000E+00  0.000E+00  0.000E+00  4.31708E+01  1.595E-01  2.000E+01  2.000E+04 -6.975E-02
   1   15   13     1    13    1.1833E+05 -4.4310E+01   1.1837E+05  0.000E+00  0.000E+00  0.000E+00  4.26941E+01  1.600E-01  2.000E+01  2.000E+04 -2.215E-03
   1   14   14     1    14    1.1837E+05  6.8349E+02   1.1769E+05  0.000E+00  0.000E+00  0.000E+00  4.22166E+01  1.598E-01  2.000E+01  2.000E+04  3.417E-02
   1   13   15     1    15    1.1769E+05 -7.7747E+02   1.1846E+05  0.000E+00  0.000E+00  0.000E+00  4.17394E+01  1.598E-01  2.000E+01  2.000E+04 -3.887E-02
   1   12   16     1    16    1.1846E+05 -2.9807E+03   1.2144E+05  0.000E+00  0.000E+00  0.000E+00  4.12636E+01  1.613E-01  2.000E+01  2.000E+04 -1.490E-01
   1   12   17     1    17    1.2144E+05 -1.7385E+03   1.2318E+05  0.000E+00  0.000E+00  0.000E+00  4.07882E+01  1.632E-01  2.000E+01  2.000E+04 -8.692E-02
   1   12   18     1    18    1.2318E+05 -1.6809E+03   1.2486E+05  0.000E+00  0.000E+00  0.000E+00  4.03123E+01  1.646E-01  2.000E+01  2.000E+04 -8.405E-02
   1   12   19     1    19    1.2486E+05 -2.2128E+03   1.2708E+05  0.000E+00  0.000E+00  0.000E+00  3.98366E+01  1.661E-01  2.000E+01  2.000E+04 -1.106E-01
   1   13   20     1    20    1.2708E+05 -1.5201E+03   1.2860E+05  0.000E+00  0.000E+00  0.000E+00  3.93608E+01  1.676E-01  2.000E+01  2.000E+04 -7.601E-02
   1   14   21     1    21    1.2860E+05 -1.4650E+03   1.3006E+05  0.000E+00  0.000E+00  0.000E+00  3.88847E+01  1.688E-01  2.000E+01  2.000E+04 -7.325E-02
   1   14   22     1    22    1.3006E+05  4.8809E+03   1.2518E+05  0.000E+00  0.000E+00  0.000E+00  3.84061E+01  1.674E-01  2.000E+01  2.000E+04  2.440E-01
   1    9   30     2     1    5.0000E+04 -3.3528E+02   5.0335E+04  0.000E+00  0.000E+00  0.000E+00  4.02411E+01  1.161E-01  2.000E+01  2.000E+04 -1.676E-02
   1    9   29     2     2    5.0335E+04 -6.1964E+02   5.0955E+04  0.000E+00  0.000E+00  0.000E+00  3.99918E+01  1.168E-01  2.000E+01  2.000E+04 -3.098E-02
   1    9   28     2     3    5.0955E+04 -8.2934E+02   5.1784E+04  0.000E+00  0.000E+00  0.000E+00  3.97428E+01  1.178E-01  2.000E+01  2.000E+04 -4.147E-02
   1    9   27     2     4    5.1784E+04 -1.7225E+03   5.3507E+04  0.000E+00  0.000E+00  0.000E+00  3.94945E+01  1.195E-01  2.000E+01  2.000E+04 -8.612E-02
   1   10   26     2     5    5.3507E+04 -9.7408E+02   5.4481E+04  0.000E+00  0.000E+00  0.000E+00  3.92463E+01  1.213E-01  2.000E+01  2.000E+04 -4.870E-02
   1   11   25     2     6    5.4481E+04 -9.4069E+02   5.5421E+04  0.000E+00  0.000E+00  0.000E+00  3.89976E+01  1.226E-01  2.000E+01  2.000E+04 -4.703E-02
   1   12   24     2     7    5.5421E+04 -1.2159E+03   5.6637E+04  0.000E+00  0.000E+00  0.000E+00  3.87491E+01  1.241E-01  2.000E+01  2.000E+04 -6.079E-02
   1   13   23     2     8    5.6637E+04 -2.3576E+02   5.6873E+04  0.000E+00  0.000E+00  0.000E+00  3.85000E+01  1.250E-01  2.000E+01  2.000E+04 -1.179E-02
   1   14   22     2     9    5.6873E+04  1.7397E+03   5.5133E+04  0.000E+00  0.000E+00  0.000E+00  3.82490E+01  1.240E-01  2.000E+01  2.000E+04  8.698E-02
   1   14   22     3     1    1.8031E+05 -8.6612E+03   1.8898E+05  0.000E+00  0.000E+00  0.000E+00  3.77290E+01  1.734E-01  2.000E+01  2.000E+04 -4.331E-01
   1   15   23     3     2    1.8898E+05 -5.5732E+02   1.8953E+05  0.000E+00  0.000E+00  0.000E+00  3.68427E+01  1.760E-01  2.000E+01  2.000E+04 -2.787E-02
   1   15   24     3     3    1.8953E+05 -3.0720E+02   1.8984E+05  0.000E+00  0.000E+00  0.000E+00  3.59540E+01  1.762E-01  2.000E+01  2.000E+04 -1.536E-02
   1   15   25     3     4    1.8984E+05 -2.9147E+02   1.9013E+05  0.000E+00  0.000E+00  0.000E+00  3.50653E+01  1.764E-01  2.000E+01  2.000E+04 -1.457E-02
   1   15   26     3     5    1.9013E+05 -2.5751E+02   1.9039E+05  0.000E+00  0.000E+00  0.000E+00  3.41766E+01  1.766E-01  2.000E+01  2.000E+04 -1.288E-02
   1   16   27     3     6    1.9039E+05 -5.5041E+01   1.9044E+05  0.000E+00  0.000E+00  0.000E+00  3.32878E+01  1.767E-01  2.000E+01  2.000E+04 -2.752E-03
   1   17   28     3     7    1.9044E+05  5.2497E+03   1.8519E+05  0.000E+00  0.000E+00  0.000E+00  3.23974E+01  1.752E-01  2.000E+01  2.000E+04  2.625E-01
   1   18   29     3     8    1.8519E+05  4.9058E+03   1.8029E+05  0.000E+00  0.000E+00  0.000E+00  3.15057E+01  1.723E-01  2.000E+01  2.000E+04  2.453E-01
   1   18   30     3     9    1.8029E+05  1.3173E+03   1.7897E+05  0.000E+00  0.000E+00  0.000E+00  3.06150E+01  1.706E-01  2.000E+01  2.000E+04  6.587E-02



1
              HEAD IN LAYER   1 AT END OF TIME STEP   1 IN STRESS PERIOD    4
  ---------------------------------------------------------------------------

          1      2      3      4      5      6      7      8      9     10
         11     12     13     14     15     16     17     18     19     20
         21     22     23     24     25     26     27     28     29     30
 .........................................................................
   1  ****** ****** ****** ****** ****** ****** ****** ****** ****** ******
      ****** ****** ****** ****** ****** ****** ****** ****** ****** ******
      ****** ****** ****** ****** ****** ****** ****** ****** ****** ******
   2  ****** ****** ****** ****** ****** ****** ****** ****** ****** ******
      ****** ****** ****** ****** ****** ****** ****** ****** ****** ******
      ****** ****** ****** ****** ****** ****** ****** ****** ****** ******
   3  ****** ****** ****** ****** ****** ****** ****** ****** ****** ******
      ****** ****** ****** ****** ****** ****** ****** ****** ****** ******
      ****** ****** ****** ****** ****** ****** ****** ****** ****** ******
   4  ****** ****** ****** ****** ****** ****** ****** ****** ****** ******
      ****** ****** ****** ****** ****** ****** ****** ****** ****** ******
      ****** ****** ****** ****** ****** ****** ****** ****** ****** ******
   5  ****** ****** ****** ****** ****** ****** ****** ****** ****** ******
      ****** ****** ****** ****** ****** ****** ****** ****** ****** ******
      ****** ****** ****** ****** ****** ****** ****** ****** ****** ******
   6  ****** ****** ****** ****** ****** ****** ****** ****** ****** ******
      ****** ****** ****** ****** ****** ****** ****** ****** ****** ******
      ****** ****** ****** ****** ****** ****** ****** ****** ****** ******
   7  ****** ****** ****** ****** ****** ****** ****** ****** ****** ******
      ****** ****** ****** ****** ****** ****** ****** ****** ****** ******
      ****** ****** ****** ****** ****** ****** ****** ****** ****** ******
   8  ****** ****** ****** ****** ****** ****** ****** ****** ****** ******
      ****** ****** ****** ****** ****** ****** ****** ****** ****** ******
      ****** ****** ****** ****** ****** ****** ****** ****** ****** ******
   9  ****** ****** ****** ****** ****** ****** ****** ****** ****** ******
      ****** ****** ****** ****** ****** ****** ****** ****** ****** ******
      ****** ****** ****** ****** ****** ****** ****** ****** ****** ******
  10  ****** ****** ****** ****** ****** ****** ****** ****** ****** ******
      ****** ****** ****** ****** ****** ****** ****** ****** ****** ******
      ****** ****** ****** ****** ****** ****** ****** ****** ****** ******
  11  ****** ****** ****** ****** ****** ****** ****** ****** ****** ******
      ****** ****** ****** ****** ****** ****** ****** ****** ****** ******
      ****** ****** ****** ****** ****** ****** ****** ****** ****** ******
  12  ****** ****** ****** ****** ****** ****** ****** ****** ****** ******
      ****** ****** ****** ****** ****** ****** ****** ****** ****** ******
      ****** ****** ****** ****** ****** ****** ****** ****** ****** ******
  13  ****** ****** ****** ****** ****** ****** ****** ****** ****** ******
      ****** ****** ****** ****** ****** ****** ****** ****** ****** ******
      ****** ****** ****** ****** ****** ****** ****** ****** ****** ******
  14  ****** ****** ****** ****** ****** ****** ****** ****** ****** ******
      ****** ****** ****** ****** ****** ****** ****** ****** ****** ******
      ****** ****** ****** ****** ****** ****** ****** ****** ****** ******
  15  ****** ****** ****** ****** ****** ****** ****** ****** ****** ******
      ****** ****** ****** ****** ****** ****** ****** ****** ****** ******
      ****** ****** ****** ****** ****** ****** ****** ****** ****** ******
  16  ****** ****** ****** ****** ****** ****** ****** ****** ****** ******
      ****** ****** ****** ****** ****** ****** ****** ****** ****** ******
      ****** ****** ****** ****** ****** ****** ****** ****** ****** ******
  17  ****** ****** ****** ****** ****** ****** ****** ****** ****** ******
      ****** ****** ****** ****** ****** ****** ****** ****** ****** ******
      ****** ****** ****** ****** ****** ****** ****** ****** ****** ******
  18  ****** ****** ****** ****** ****** ****** ****** ****** ****** ******
      ****** ****** ****** ****** ****** ****** ****** ****** ****** ******
      ****** ****** ****** ****** ****** ****** ****** ****** ****** ******
  19  ****** ****** ****** ****** ****** ****** ****** ****** ****** ******
      ****** ****** ****** ****** ****** ****** ****** ****** ****** ******
      ****** ****** ****** ****** ****** ****** ****** ****** ****** ******
  20  ****** ****** ****** ****** ****** ****** ****** ****** ****** ******
      ****** ****** ****** ****** ****** ****** ****** ****** ****** ******
      ****** ****** ****** ****** ****** ****** ****** ****** ****** ******
  21  ****** ****** ****** ****** ****** ****** ****** ****** ****** ******
      ****** ****** ****** ****** ****** ****** ****** ****** ****** ******
      ****** ****** ****** ****** ****** ****** ****** ****** ****** ******
  22  ****** ****** ****** ****** ****** ****** ****** ****** ****** ******
      ****** ****** ****** ****** ****** ****** ****** ****** ****** ******
      ****** ****** ****** ****** ****** ****** ****** ****** ****** ******
  23  ****** ****** ****** ****** ****** ****** ****** ****** ****** ******
      ****** ****** ****** ****** ****** ****** ****** ****** ****** ******
      ****** ****** ****** ****** ****** ****** ****** ****** ****** ******
  24  ****** ****** ****** ****** ****** ****** ****** ****** ****** ******
      ****** ****** ****** ****** ****** ****** ****** ****** ****** ******
      ****** ****** ****** ****** ****** ****** ****** ****** ****** ******
  25  ****** ****** ****** ****** ****** ****** ****** ****** ****** ******
      ****** ****** ****** ****** ****** ****** ****** ****** ****** ******
      ****** ****** ****** ****** ****** ****** ****** ****** ****** ******

 HEAD WILL BE SAVED ON UNIT   51 AT END OF TIME STEP    1, STRESS PERIOD    4
1
  VOLUMETRIC BUDGET FOR ENTIRE MODEL AT END OF TIME STEP    1, STRESS PERIOD   4
  ------------------------------------------------------------------------------

     CUMULATIVE VOLUMES      L**3       RATES FOR THIS TIME STEP      L**3/T
     ------------------                 ------------------------

           IN:                                      IN:
           ---                                      ---
             STORAGE =    29259385.5351               STORAGE =       18312.8159
       CONSTANT HEAD =     7713822.5491         CONSTANT HEAD =       28573.4934
               WELLS =           0.0000                 WELLS =           0.0000
            RECHARGE =     8804400.0000              RECHARGE =       27600.0000
      STREAM LEAKAGE =     4800015.6174        STREAM LEAKAGE =       18776.8636

            TOTAL IN =    50577623.7016              TOTAL IN =       93263.1728

          OUT:                                     OUT:
          ----                                     ----
             STORAGE =         809.1305               STORAGE =           8.8915
       CONSTANT HEAD =           0.0000         CONSTANT HEAD =           0.0000
               WELLS =    16609540.0797                 WELLS =       45505.5893
            RECHARGE =           0.0000              RECHARGE =           0.0000
      STREAM LEAKAGE =    33967276.4798        STREAM LEAKAGE =       47748.6928

           TOTAL OUT =    50577625.6899             TOTAL OUT =       93263.1736

            IN - OUT =          -1.9884              IN - OUT =      -7.7226E-04

 PERCENT DISCREPANCY =          -0.00     PERCENT DISCREPANCY =          -0.00






         TIME SUMMARY AT END OF TIME STEP    1 IN STRESS PERIOD    4
                    SECONDS     MINUTES      HOURS       DAYS        YEARS
                    -----------------------------------------------------------
   TIME STEP LENGTH 7.86240E+06 1.31040E+05  2184.0      91.000     0.24914    
 STRESS PERIOD TIME 7.86240E+06 1.31040E+05  2184.0      91.000     0.24914    
         TOTAL TIME 3.15360E+07 5.25600E+05  8760.0      365.00     0.99932    
1
1
                            STRESS PERIOD NO.    5, LENGTH =   92.00000    
                            -----------------------------------------------

                              NUMBER OF TIME STEPS =     1

                               MULTIPLIER FOR DELT =     1.500

                            INITIAL TIME STEP SIZE =   92.00000    

 WELL NO.  LAYER   ROW   COL   STRESS RATE         
 --------------------------------------------------
      1      1     14      6       0.000    
      2      1      3      9       0.000    
      3      1     20     10       0.000    
      4      1     14     20       0.000    
      5      1     20     29      -8734.    
      6      1     15     15     -0.1244E+05
      7      1     17     29     -0.1509E+05
      8      1      6     23      -9237.    

      8 WELLS

                 RECHARGE =  5.000000E-04

 REUSING STREAM SEGMENT DATA FROM LAST STRESS PERIOD
 
 SOLVING FOR HEAD 


     7 CALLS TO PCG ROUTINE FOR TIME STEP   1 IN STRESS PERIOD    5
    26 TOTAL ITERATIONS

 OUTPUT CONTROL FOR STRESS PERIOD    5   TIME STEP    1
    SAVE BUDGET
    SAVE HEAD FOR ALL LAYERS
    PRINT HEAD FOR ALL LAYERS
 UBDSV2 SAVING "STREAMFLOW OUT  " ON UNIT  50 AT TIME STEP  1, STRESS PERIOD   5



 STREAM LISTING     PERIOD      5   STEP        1

 LAYER ROW COL. STREAM  RCH.  FLOW INTO     FLOW TO   FLOW OUT OF   OVRLND.     DIRECT     STREAM       STREAM     STREAM     STREAM   STREAMBED  STREAMBED
                SEG.NO.  NO.  STRM. RCH.    AQUIFER    STRM. RCH.    RUNOFF     PRECIP       ET          HEAD       DEPTH      WIDTH   CONDCTNC.   GRADIENT

   1   13    1     1     1    1.0000E+05 -2.1261E+03   1.0213E+05  0.000E+00  0.000E+00  0.000E+00  4.84069E+01  1.456E-01  2.000E+01  2.000E+04 -1.063E-01
   1   13    2     1     2    1.0213E+05 -3.1455E+03   1.0527E+05  0.000E+00  0.000E+00  0.000E+00  4.79319E+01  1.478E-01  2.000E+01  2.000E+04 -1.573E-01
   1   14    3     1     3    1.0527E+05 -5.0600E+02   1.0578E+05  0.000E+00  0.000E+00  0.000E+00  4.74562E+01  1.494E-01  2.000E+01  2.000E+04 -2.530E-02
   1   15    4     1     4    1.0578E+05 -4.7105E+02   1.0625E+05  0.000E+00  0.000E+00  0.000E+00  4.69794E+01  1.498E-01  2.000E+01  2.000E+04 -2.355E-02
   1   16    5     1     5    1.0625E+05 -1.6948E+03   1.0794E+05  0.000E+00  0.000E+00  0.000E+00  4.65030E+01  1.507E-01  2.000E+01  2.000E+04 -8.474E-02
   1   16    6     1     6    1.0794E+05 -1.0794E+03   1.0902E+05  0.000E+00  0.000E+00  0.000E+00  4.60269E+01  1.519E-01  2.000E+01  2.000E+04 -5.397E-02
   1   16    7     1     7    1.0902E+05 -1.0569E+03   1.1008E+05  0.000E+00  0.000E+00  0.000E+00  4.55505E+01  1.528E-01  2.000E+01  2.000E+04 -5.284E-02
   1   16    8     1     8    1.1008E+05 -1.0399E+03   1.1112E+05  0.000E+00  0.000E+00  0.000E+00  4.50741E+01  1.537E-01  2.000E+01  2.000E+04 -5.199E-02
   1   16    9     1     9    1.1112E+05 -1.0070E+03   1.1213E+05  0.000E+00  0.000E+00  0.000E+00  4.45977E+01  1.545E-01  2.000E+01  2.000E+04 -5.035E-02
   1   16   10     1    10    1.1213E+05 -9.5125E+02   1.1308E+05  0.000E+00  0.000E+00  0.000E+00  4.41212E+01  1.553E-01  2.000E+01  2.000E+04 -4.756E-02
   1   16   11     1    11    1.1308E+05 -8.6663E+02   1.1394E+05  0.000E+00  0.000E+00  0.000E+00  4.36447E+01  1.561E-01  2.000E+01  2.000E+04 -4.333E-02
   1   16   12     1    12    1.1394E+05 -9.7504E+02   1.1492E+05  0.000E+00  0.000E+00  0.000E+00  4.31682E+01  1.568E-01  2.000E+01  2.000E+04 -4.875E-02
   1   15   13     1    13    1.1492E+05  3.9511E+02   1.1452E+05  0.000E+00  0.000E+00  0.000E+00  4.26912E+01  1.571E-01  2.000E+01  2.000E+04  1.976E-02
   1   14   14     1    14    1.1452E+05  1.1490E+03   1.1338E+05  0.000E+00  0.000E+00  0.000E+00  4.22133E+01  1.564E-01  2.000E+01  2.000E+04  5.745E-02
   1   13   15     1    15    1.1338E+05 -2.9589E+02   1.1367E+05  0.000E+00  0.000E+00  0.000E+00  4.17356E+01  1.561E-01  2.000E+01  2.000E+04 -1.479E-02
   1   12   16     1    16    1.1367E+05 -2.4546E+03   1.1613E+05  0.000E+00  0.000E+00  0.000E+00  4.12595E+01  1.572E-01  2.000E+01  2.000E+04 -1.227E-01
   1   12   17     1    17    1.1613E+05 -1.3826E+03   1.1751E+05  0.000E+00  0.000E+00  0.000E+00  4.07838E+01  1.588E-01  2.000E+01  2.000E+04 -6.913E-02
   1   12   18     1    18    1.1751E+05 -1.3409E+03   1.1885E+05  0.000E+00  0.000E+00  0.000E+00  4.03076E+01  1.599E-01  2.000E+01  2.000E+04 -6.704E-02
   1   12   19     1    19    1.1885E+05 -1.7995E+03   1.2065E+05  0.000E+00  0.000E+00  0.000E+00  3.98316E+01  1.612E-01  2.000E+01  2.000E+04 -8.997E-02
   1   13   20     1    20    1.2065E+05 -1.1576E+03   1.2181E+05  0.000E+00  0.000E+00  0.000E+00  3.93555E+01  1.624E-01  2.000E+01  2.000E+04 -5.788E-02
   1   14   21     1    21    1.2181E+05 -1.0745E+03   1.2288E+05  0.000E+00  0.000E+00  0.000E+00  3.88792E+01  1.633E-01  2.000E+01  2.000E+04 -5.373E-02
   1   14   22     1    22    1.2288E+05  4.9631E+03   1.1792E+05  0.000E+00  0.000E+00  0.000E+00  3.84003E+01  1.617E-01  2.000E+01  2.000E+04  2.482E-01
   1    9   30     2     1    5.0000E+04 -9.6726E+01   5.0097E+04  0.000E+00  0.000E+00  0.000E+00  4.02409E+01  1.159E-01  2.000E+01  2.000E+04 -4.836E-03
   1    9   29     2     2    5.0097E+04 -3.7742E+02   5.0474E+04  0.000E+00  0.000E+00  0.000E+00  3.99913E+01  1.163E-01  2.000E+01  2.000E+04 -1.887E-02
   1    9   28     2     3    5.0474E+04 -5.7483E+02   5.1049E+04  0.000E+00  0.000E+00  0.000E+00  3.97419E+01  1.169E-01  2.000E+01  2.000E+04 -2.874E-02
   1    9   27     2     4    5.1049E+04 -1.3210E+03   5.2370E+04  0.000E+00  0.000E+00  0.000E+00  3.94932E+01  1.182E-01  2.000E+01  2.000E+04 -6.605E-02
   1   10   26     2     5    5.2370E+04 -6.2606E+02   5.2996E+04  0.000E+00  0.000E+00  0.000E+00  3.92446E+01  1.196E-01  2.000E+01  2.000E+04 -3.130E-02
   1   11   25     2     6    5.2996E+04 -6.2255E+02   5.3619E+04  0.000E+00  0.000E+00  0.000E+00  3.89954E+01  1.204E-01  2.000E+01  2.000E+04 -3.113E-02
   1   12   24     2     7    5.3619E+04 -9.2598E+02   5.4545E+04  0.000E+00  0.000E+00  0.000E+00  3.87465E+01  1.215E-01  2.000E+01  2.000E+04 -4.630E-02
   1   13   23     2     8    5.4545E+04 -1.6650E+02   5.4711E+04  0.000E+00  0.000E+00  0.000E+00  3.84972E+01  1.222E-01  2.000E+01  2.000E+04 -8.325E-03
   1   14   22     2     9    5.4711E+04  1.8771E+03   5.2834E+04  0.000E+00  0.000E+00  0.000E+00  3.82460E+01  1.210E-01  2.000E+01  2.000E+04  9.386E-02
   1   14   22     3     1    1.7075E+05 -8.5734E+03   1.7933E+05  0.000E+00  0.000E+00  0.000E+00  3.77235E+01  1.680E-01  2.000E+01  2.000E+04 -4.287E-01
   1   15   23     3     2    1.7933E+05 -4.5506E+02   1.7978E+05  0.000E+00  0.000E+00  0.000E+00  3.68372E+01  1.705E-01  2.000E+01  2.000E+04 -2.275E-02
   1   15   24     3     3    1.7978E+05 -2.3249E+02   1.8001E+05  0.000E+00  0.000E+00  0.000E+00  3.59485E+01  1.707E-01  2.000E+01  2.000E+04 -1.162E-02
   1   15   25     3     4    1.8001E+05 -2.1741E+02   1.8023E+05  0.000E+00  0.000E+00  0.000E+00  3.50597E+01  1.709E-01  2.000E+01  2.000E+04 -1.087E-02
   1   15   26     3     5    1.8023E+05 -1.8308E+02   1.8041E+05  0.000E+00  0.000E+00  0.000E+00  3.41710E+01  1.710E-01  2.000E+01  2.000E+04 -9.154E-03
   1   16   27     3     6    1.8041E+05  3.9515E+01   1.8037E+05  0.000E+00  0.000E+00  0.000E+00  3.32821E+01  1.710E-01  2.000E+01  2.000E+04  1.976E-03
   1   17   28     3     7    1.8037E+05  5.5342E+03   1.7484E+05  0.000E+00  0.000E+00  0.000E+00  3.23916E+01  1.694E-01  2.000E+01  2.000E+04  2.767E-01
   1   18   29     3     8    1.7484E+05  5.3140E+03   1.6953E+05  0.000E+00  0.000E+00  0.000E+00  3.14996E+01  1.663E-01  2.000E+01  2.000E+04  2.657E-01
   1   18   30     3     9    1.6953E+05  1.5966E+03   1.6793E+05  0.000E+00  0.000E+00  0.000E+00  3.06087E+01  1.643E-01  2.000E+01  2.000E+04  7.983E-02



1
              HEAD IN LAYER   1 AT END OF TIME STEP   1 IN STRESS PERIOD    5
  ---------------------------------------------------------------------------

          1      2      3      4      5      6      7      8      9     10
         11     12     13     14     15     16     17     18     19     20
         21     22     23     24     25     26     27     28     29     30
 .........................................................................
   1  ****** ****** ****** ****** ****** ****** ****** ****** ****** ******
      ****** ****** ****** ****** ****** ****** ****** ****** ****** ******
      ****** ****** ****** ****** ****** ****** ****** ****** ****** ******
   2  ****** ****** ****** ****** ****** ****** ****** ****** ****** ******
      ****** ****** ****** ****** ****** ****** ****** ****** ****** ******
      ****** ****** ****** ****** ****** ****** ****** ****** ****** ******
   3  ****** ****** ****** ****** ****** ****** ****** ****** ****** ******
      ****** ****** ****** ****** ****** ****** ****** ****** ****** ******
      ****** ****** ****** ****** ****** ****** ****** ****** ****** ******
   4  ****** ****** ****** ****** ****** ****** ****** ****** ****** ******
      ****** ****** ****** ****** ****** ****** ****** ****** ****** ******
      ****** ****** ****** ****** ****** ****** ****** ****** ****** ******
   5  ****** ****** ****** ****** ****** ****** ****** ****** ****** ******
      ****** ****** ****** ****** ****** ****** ****** ****** ****** ******
      ****** ****** ****** ****** ****** ****** ****** ****** ****** ******
   6  ****** ****** ****** ****** ****** ****** ****** ****** ****** ******
      ****** ****** ****** ****** ****** ****** ****** ****** ****** ******
      ****** ****** ****** ****** ****** ****** ****** ****** ****** ******
   7  ****** ****** ****** ****** ****** ****** ****** ****** ****** ******
      ****** ****** ****** ****** ****** ****** ****** ****** ****** ******
      ****** ****** ****** ****** ****** ****** ****** ****** ****** ******
   8  ****** ****** ****** ****** ****** ****** ****** ****** ****** ******
      ****** ****** ****** ****** ****** ****** ****** ****** ****** ******
      ****** ****** ****** ****** ****** ****** ****** ****** ****** ******
   9  ****** ****** ****** ****** ****** ****** ****** ****** ****** ******
      ****** ****** ****** ****** ****** ****** ****** ****** ****** ******
      ****** ****** ****** ****** ****** ****** ****** ****** ****** ******
  10  ****** ****** ****** ****** ****** ****** ****** ****** ****** ******
      ****** ****** ****** ****** ****** ****** ****** ****** ****** ******
      ****** ****** ****** ****** ****** ****** ****** ****** ****** ******
  11  ****** ****** ****** ****** ****** ****** ****** ****** ****** ******
      ****** ****** ****** ****** ****** ****** ****** ****** ****** ******
      ****** ****** ****** ****** ****** ****** ****** ****** ****** ******
  12  ****** ****** ****** ****** ****** ****** ****** ****** ****** ******
      ****** ****** ****** ****** ****** ****** ****** ****** ****** ******
      ****** ****** ****** ****** ****** ****** ****** ****** ****** ******
  13  ****** ****** ****** ****** ****** ****** ****** ****** ****** ******
      ****** ****** ****** ****** ****** ****** ****** ****** ****** ******
      ****** ****** ****** ****** ****** ****** ****** ****** ****** ******
  14  ****** ****** ****** ****** ****** ****** ****** ****** ****** ******
      ****** ****** ****** ****** ****** ****** ****** ****** ****** ******
      ****** ****** ****** ****** ****** ****** ****** ****** ****** ******
  15  ****** ****** ****** ****** ****** ****** ****** ****** ****** ******
      ****** ****** ****** ****** ****** ****** ****** ****** ****** ******
      ****** ****** ****** ****** ****** ****** ****** ****** ****** ******
  16  ****** ****** ****** ****** ****** ****** ****** ****** ****** ******
      ****** ****** ****** ****** ****** ****** ****** ****** ****** ******
      ****** ****** ****** ****** ****** ****** ****** ****** ****** ******
  17  ****** ****** ****** ****** ****** ****** ****** ****** ****** ******
      ****** ****** ****** ****** ****** ****** ****** ****** ****** ******
      ****** ****** ****** ****** ****** ****** ****** ****** ****** ******
  18  ****** ****** ****** ****** ****** ****** ****** ****** ****** ******
      ****** ****** ****** ****** ****** ****** ****** ****** ****** ******
      ****** ****** ****** ****** ****** ****** ****** ****** ****** ******
  19  ****** ****** ****** ****** ****** ****** ****** ****** ****** ******
      ****** ****** ****** ****** ****** ****** ****** ****** ****** ******
      ****** ****** ****** ****** ****** ****** ****** ****** ****** ******
  20  ****** ****** ****** ****** ****** ****** ****** ****** ****** ******
      ****** ****** ****** ****** ****** ****** ****** ****** ****** ******
      ****** ****** ****** ****** ****** ****** ****** ****** ****** ******
  21  ****** ****** ****** ****** ****** ****** ****** ****** ****** ******
      ****** ****** ****** ****** ****** ****** ****** ****** ****** ******
      ****** ****** ****** ****** ****** ****** ****** ****** ****** ******
  22  ****** ****** ****** ****** ****** ****** ****** ****** ****** ******
      ****** ****** ****** ****** ****** ****** ****** ****** ****** ******
      ****** ****** ****** ****** ****** ****** ****** ****** ****** ******
  23  ****** ****** ****** ****** ****** ****** ****** ****** ****** ******
      ****** ****** ****** ****** ****** ****** ****** ****** ****** ******
      ****** ****** ****** ****** ****** ****** ****** ****** ****** ******
  24  ****** ****** ****** ****** ****** ****** ****** ****** ****** ******
      ****** ****** ****** ****** ****** ****** ****** ****** ****** ******
      ****** ****** ****** ****** ****** ****** ****** ****** ****** ******
  25  ****** ****** ****** ****** ****** ****** ****** ****** ****** ******
      ****** ****** ****** ****** ****** ****** ****** ****** ****** ******
      ****** ****** ****** ****** ****** ****** ****** ****** ****** ******

 HEAD WILL BE SAVED ON UNIT   51 AT END OF TIME STEP    1, STRESS PERIOD    5
1
  VOLUMETRIC BUDGET FOR ENTIRE MODEL AT END OF TIME STEP    1, STRESS PERIOD   5
  ------------------------------------------------------------------------------

     CUMULATIVE VOLUMES      L**3       RATES FOR THIS TIME STEP      L**3/T
     ------------------                 ------------------------

           IN:                                      IN:
           ---                                      ---
             STORAGE =    30928166.5877               STORAGE =       18138.9245
       CONSTANT HEAD =    10611436.2555         CONSTANT HEAD =       31495.8012
               WELLS =           0.0000                 WELLS =           0.0000
            RECHARGE =    10074000.0000              RECHARGE =       13800.0000
      STREAM LEAKAGE =     6719935.4739        STREAM LEAKAGE =       20868.6941

            TOTAL IN =    58333538.3170              TOTAL IN =       84303.4197

          OUT:                                     OUT:
          ----                                     ----
             STORAGE =         809.1305               STORAGE =           0.0000
       CONSTANT HEAD =           0.0000         CONSTANT HEAD =           0.0000
               WELLS =    20796054.2915                 WELLS =       45505.5893
            RECHARGE =           0.0000              RECHARGE =           0.0000
      STREAM LEAKAGE =    37536677.1656        STREAM LEAKAGE =       38797.8335

           TOTAL OUT =    58333540.5875             TOTAL OUT =       84303.4228

            IN - OUT =          -2.2705              IN - OUT =      -3.0671E-03

 PERCENT DISCREPANCY =          -0.00     PERCENT DISCREPANCY =          -0.00






         TIME SUMMARY AT END OF TIME STEP    1 IN STRESS PERIOD    5
                    SECONDS     MINUTES      HOURS       DAYS        YEARS
                    -----------------------------------------------------------
   TIME STEP LENGTH 7.94880E+06 1.32480E+05  2208.0      92.000     0.25188    
 STRESS PERIOD TIME 7.94880E+06 1.32480E+05  2208.0      92.000     0.25188    
         TOTAL TIME 3.94848E+07 6.58080E+05  10968.      457.00      1.2512    
1
1
                            STRESS PERIOD NO.    6, LENGTH =   91.00000    
                            -----------------------------------------------

                              NUMBER OF TIME STEPS =     1

                               MULTIPLIER FOR DELT =     1.500

                            INITIAL TIME STEP SIZE =   91.00000    

 WELL NO.  LAYER   ROW   COL   STRESS RATE         
 --------------------------------------------------
      1      1     14      6       0.000    
      2      1      3      9       0.000    
      3      1     20     10       0.000    
      4      1     14     20       0.000    
      5      1     20     29      -8734.    
      6      1     15     15     -0.1244E+05
      7      1     17     29     -0.1509E+05
      8      1      6     23      -9237.    

      8 WELLS

                 RECHARGE =  2.000000E-03

 REUSING STREAM SEGMENT DATA FROM LAST STRESS PERIOD
 
 SOLVING FOR HEAD 


     7 CALLS TO PCG ROUTINE FOR TIME STEP   1 IN STRESS PERIOD    6
    26 TOTAL ITERATIONS

 OUTPUT CONTROL FOR STRESS PERIOD    6   TIME STEP    1
    SAVE BUDGET
    SAVE HEAD FOR ALL LAYERS
    PRINT HEAD FOR ALL LAYERS
 UBDSV2 SAVING "STREAMFLOW OUT  " ON UNIT  50 AT TIME STEP  1, STRESS PERIOD   6



 STREAM LISTING     PERIOD      6   STEP        1

 LAYER ROW COL. STREAM  RCH.  FLOW INTO     FLOW TO   FLOW OUT OF   OVRLND.     DIRECT     STREAM       STREAM     STREAM     STREAM   STREAMBED  STREAMBED
                SEG.NO.  NO.  STRM. RCH.    AQUIFER    STRM. RCH.    RUNOFF     PRECIP       ET          HEAD       DEPTH      WIDTH   CONDCTNC.   GRADIENT

   1   13    1     1     1    1.0000E+05 -2.4462E+03   1.0245E+05  0.000E+00  0.000E+00  0.000E+00  4.84071E+01  1.457E-01  2.000E+01  2.000E+04 -1.223E-01
   1   13    2     1     2    1.0245E+05 -3.4964E+03   1.0594E+05  0.000E+00  0.000E+00  0.000E+00  4.79324E+01  1.483E-01  2.000E+01  2.000E+04 -1.748E-01
   1   14    3     1     3    1.0594E+05 -6.6173E+02   1.0660E+05  0.000E+00  0.000E+00  0.000E+00  4.74568E+01  1.500E-01  2.000E+01  2.000E+04 -3.309E-02
   1   15    4     1     4    1.0660E+05 -6.3803E+02   1.0724E+05  0.000E+00  0.000E+00  0.000E+00  4.69801E+01  1.506E-01  2.000E+01  2.000E+04 -3.190E-02
   1   16    5     1     5    1.0724E+05 -2.1913E+03   1.0943E+05  0.000E+00  0.000E+00  0.000E+00  4.65040E+01  1.518E-01  2.000E+01  2.000E+04 -1.096E-01
   1   16    6     1     6    1.0943E+05 -1.3709E+03   1.1080E+05  0.000E+00  0.000E+00  0.000E+00  4.60283E+01  1.533E-01  2.000E+01  2.000E+04 -6.855E-02
   1   16    7     1     7    1.1080E+05 -1.3331E+03   1.1214E+05  0.000E+00  0.000E+00  0.000E+00  4.55521E+01  1.544E-01  2.000E+01  2.000E+04 -6.666E-02
   1   16    8     1     8    1.1214E+05 -1.3115E+03   1.1345E+05  0.000E+00  0.000E+00  0.000E+00  4.50759E+01  1.555E-01  2.000E+01  2.000E+04 -6.557E-02
   1   16    9     1     9    1.1345E+05 -1.2780E+03   1.1473E+05  0.000E+00  0.000E+00  0.000E+00  4.45997E+01  1.566E-01  2.000E+01  2.000E+04 -6.390E-02
   1   16   10     1    10    1.1473E+05 -1.2235E+03   1.1595E+05  0.000E+00  0.000E+00  0.000E+00  4.41235E+01  1.576E-01  2.000E+01  2.000E+04 -6.117E-02
   1   16   11     1    11    1.1595E+05 -1.1416E+03   1.1709E+05  0.000E+00  0.000E+00  0.000E+00  4.36472E+01  1.586E-01  2.000E+01  2.000E+04 -5.708E-02
   1   16   12     1    12    1.1709E+05 -1.4185E+03   1.1851E+05  0.000E+00  0.000E+00  0.000E+00  4.31710E+01  1.596E-01  2.000E+01  2.000E+04 -7.093E-02
   1   15   13     1    13    1.1851E+05 -5.9930E+01   1.1857E+05  0.000E+00  0.000E+00  0.000E+00  4.26943E+01  1.602E-01  2.000E+01  2.000E+04 -2.996E-03
   1   14   14     1    14    1.1857E+05  6.9791E+02   1.1787E+05  0.000E+00  0.000E+00  0.000E+00  4.22168E+01  1.599E-01  2.000E+01  2.000E+04  3.490E-02
   1   13   15     1    15    1.1787E+05 -7.2838E+02   1.1860E+05  0.000E+00  0.000E+00  0.000E+00  4.17395E+01  1.599E-01  2.000E+01  2.000E+04 -3.642E-02
   1   12   16     1    16    1.1860E+05 -2.8422E+03   1.2144E+05  0.000E+00  0.000E+00  0.000E+00  4.12637E+01  1.614E-01  2.000E+01  2.000E+04 -1.421E-01
   1   12   17     1    17    1.2144E+05 -1.6967E+03   1.2314E+05  0.000E+00  0.000E+00  0.000E+00  4.07882E+01  1.632E-01  2.000E+01  2.000E+04 -8.484E-02
   1   12   18     1    18    1.2314E+05 -1.6580E+03   1.2480E+05  0.000E+00  0.000E+00  0.000E+00  4.03123E+01  1.646E-01  2.000E+01  2.000E+04 -8.290E-02
   1   12   19     1    19    1.2480E+05 -2.1931E+03   1.2699E+05  0.000E+00  0.000E+00  0.000E+00  3.98365E+01  1.661E-01  2.000E+01  2.000E+04 -1.097E-01
   1   13   20     1    20    1.2699E+05 -1.5769E+03   1.2857E+05  0.000E+00  0.000E+00  0.000E+00  3.93608E+01  1.676E-01  2.000E+01  2.000E+04 -7.885E-02
   1   14   21     1    21    1.2857E+05 -1.4809E+03   1.3005E+05  0.000E+00  0.000E+00  0.000E+00  3.88847E+01  1.688E-01  2.000E+01  2.000E+04 -7.404E-02
   1   14   22     1    22    1.3005E+05  4.8576E+03   1.2519E+05  0.000E+00  0.000E+00  0.000E+00  3.84061E+01  1.674E-01  2.000E+01  2.000E+04  2.429E-01
   1    9   30     2     1    5.0000E+04 -4.5809E+02   5.0458E+04  0.000E+00  0.000E+00  0.000E+00  4.02412E+01  1.162E-01  2.000E+01  2.000E+04 -2.290E-02
   1    9   29     2     2    5.0458E+04 -7.3440E+02   5.1192E+04  0.000E+00  0.000E+00  0.000E+00  3.99920E+01  1.170E-01  2.000E+01  2.000E+04 -3.672E-02
   1    9   28     2     3    5.1192E+04 -9.2497E+02   5.2117E+04  0.000E+00  0.000E+00  0.000E+00  3.97432E+01  1.182E-01  2.000E+01  2.000E+04 -4.625E-02
   1    9   27     2     4    5.2117E+04 -1.7630E+03   5.3881E+04  0.000E+00  0.000E+00  0.000E+00  3.94950E+01  1.200E-01  2.000E+01  2.000E+04 -8.815E-02
   1   10   26     2     5    5.3881E+04 -1.0937E+03   5.4974E+04  0.000E+00  0.000E+00  0.000E+00  3.92469E+01  1.219E-01  2.000E+01  2.000E+04 -5.469E-02
   1   11   25     2     6    5.4974E+04 -1.0763E+03   5.6051E+04  0.000E+00  0.000E+00  0.000E+00  3.89984E+01  1.234E-01  2.000E+01  2.000E+04 -5.381E-02
   1   12   24     2     7    5.6051E+04 -1.3353E+03   5.7386E+04  0.000E+00  0.000E+00  0.000E+00  3.87500E+01  1.250E-01  2.000E+01  2.000E+04 -6.677E-02
   1   13   23     2     8    5.7386E+04 -3.0429E+02   5.7690E+04  0.000E+00  0.000E+00  0.000E+00  3.85011E+01  1.261E-01  2.000E+01  2.000E+04 -1.521E-02
   1   14   22     2     9    5.7690E+04  1.7381E+03   5.5952E+04  0.000E+00  0.000E+00  0.000E+00  3.82501E+01  1.251E-01  2.000E+01  2.000E+04  8.690E-02
   1   14   22     3     1    1.8114E+05 -8.6751E+03   1.8982E+05  0.000E+00  0.000E+00  0.000E+00  3.77294E+01  1.739E-01  2.000E+01  2.000E+04 -4.338E-01
   1   15   23     3     2    1.8982E+05 -5.9074E+02   1.9041E+05  0.000E+00  0.000E+00  0.000E+00  3.68432E+01  1.765E-01  2.000E+01  2.000E+04 -2.954E-02
   1   15   24     3     3    1.9041E+05 -3.5332E+02   1.9076E+05  0.000E+00  0.000E+00  0.000E+00  3.59545E+01  1.767E-01  2.000E+01  2.000E+04 -1.767E-02
   1   15   25     3     4    1.9076E+05 -3.4273E+02   1.9111E+05  0.000E+00  0.000E+00  0.000E+00  3.50658E+01  1.769E-01  2.000E+01  2.000E+04 -1.714E-02
   1   15   26     3     5    1.9111E+05 -3.3363E+02   1.9144E+05  0.000E+00  0.000E+00  0.000E+00  3.41771E+01  1.771E-01  2.000E+01  2.000E+04 -1.668E-02
   1   16   27     3     6    1.9144E+05 -1.2770E+02   1.9157E+05  0.000E+00  0.000E+00  0.000E+00  3.32884E+01  1.773E-01  2.000E+01  2.000E+04 -6.385E-03
   1   17   28     3     7    1.9157E+05  5.0772E+03   1.8649E+05  0.000E+00  0.000E+00  0.000E+00  3.23981E+01  1.759E-01  2.000E+01  2.000E+04  2.539E-01
   1   18   29     3     8    1.8649E+05  4.8865E+03   1.8160E+05  0.000E+00  0.000E+00  0.000E+00  3.15064E+01  1.731E-01  2.000E+01  2.000E+04  2.443E-01
   1   18   30     3     9    1.8160E+05  1.2481E+03   1.8035E+05  0.000E+00  0.000E+00  0.000E+00  3.06158E+01  1.713E-01  2.000E+01  2.000E+04  6.240E-02



1
              HEAD IN LAYER   1 AT END OF TIME STEP   1 IN STRESS PERIOD    6
  ---------------------------------------------------------------------------

          1      2      3      4      5      6      7      8      9     10
         11     12     13     14     15     16     17     18     19     20
         21     22     23     24     25     26     27     28     29     30
 .........................................................................
   1  ****** ****** ****** ****** ****** ****** ****** ****** ****** ******
      ****** ****** ****** ****** ****** ****** ****** ****** ****** ******
      ****** ****** ****** ****** ****** ****** ****** ****** ****** ******
   2  ****** ****** ****** ****** ****** ****** ****** ****** ****** ******
      ****** ****** ****** ****** ****** ****** ****** ****** ****** ******
      ****** ****** ****** ****** ****** ****** ****** ****** ****** ******
   3  ****** ****** ****** ****** ****** ****** ****** ****** ****** ******
      ****** ****** ****** ****** ****** ****** ****** ****** ****** ******
      ****** ****** ****** ****** ****** ****** ****** ****** ****** ******
   4  ****** ****** ****** ****** ****** ****** ****** ****** ****** ******
      ****** ****** ****** ****** ****** ****** ****** ****** ****** ******
      ****** ****** ****** ****** ****** ****** ****** ****** ****** ******
   5  ****** ****** ****** ****** ****** ****** ****** ****** ****** ******
      ****** ****** ****** ****** ****** ****** ****** ****** ****** ******
      ****** ****** ****** ****** ****** ****** ****** ****** ****** ******
   6  ****** ****** ****** ****** ****** ****** ****** ****** ****** ******
      ****** ****** ****** ****** ****** ****** ****** ****** ****** ******
      ****** ****** ****** ****** ****** ****** ****** ****** ****** ******
   7  ****** ****** ****** ****** ****** ****** ****** ****** ****** ******
      ****** ****** ****** ****** ****** ****** ****** ****** ****** ******
      ****** ****** ****** ****** ****** ****** ****** ****** ****** ******
   8  ****** ****** ****** ****** ****** ****** ****** ****** ****** ******
      ****** ****** ****** ****** ****** ****** ****** ****** ****** ******
      ****** ****** ****** ****** ****** ****** ****** ****** ****** ******
   9  ****** ****** ****** ****** ****** ****** ****** ****** ****** ******
      ****** ****** ****** ****** ****** ****** ****** ****** ****** ******
      ****** ****** ****** ****** ****** ****** ****** ****** ****** ******
  10  ****** ****** ****** ****** ****** ****** ****** ****** ****** ******
      ****** ****** ****** ****** ****** ****** ****** ****** ****** ******
      ****** ****** ****** ****** ****** ****** ****** ****** ****** ******
  11  ****** ****** ****** ****** ****** ****** ****** ****** ****** ******
      ****** ****** ****** ****** ****** ****** ****** ****** ****** ******
      ****** ****** ****** ****** ****** ****** ****** ****** ****** ******
  12  ****** ****** ****** ****** ****** ****** ****** ****** ****** ******
      ****** ****** ****** ****** ****** ****** ****** ****** ****** ******
      ****** ****** ****** ****** ****** ****** ****** ****** ****** ******
  13  ****** ****** ****** ****** ****** ****** ****** ****** ****** ******
      ****** ****** ****** ****** ****** ****** ****** ****** ****** ******
      ****** ****** ****** ****** ****** ****** ****** ****** ****** ******
  14  ****** ****** ****** ****** ****** ****** ****** ****** ****** ******
      ****** ****** ****** ****** ****** ****** ****** ****** ****** ******
      ****** ****** ****** ****** ****** ****** ****** ****** ****** ******
  15  ****** ****** ****** ****** ****** ****** ****** ****** ****** ******
      ****** ****** ****** ****** ****** ****** ****** ****** ****** ******
      ****** ****** ****** ****** ****** ****** ****** ****** ****** ******
  16  ****** ****** ****** ****** ****** ****** ****** ****** ****** ******
      ****** ****** ****** ****** ****** ****** ****** ****** ****** ******
      ****** ****** ****** ****** ****** ****** ****** ****** ****** ******
  17  ****** ****** ****** ****** ****** ****** ****** ****** ****** ******
      ****** ****** ****** ****** ****** ****** ****** ****** ****** ******
      ****** ****** ****** ****** ****** ****** ****** ****** ****** ******
  18  ****** ****** ****** ****** ****** ****** ****** ****** ****** ******
      ****** ****** ****** ****** ****** ****** ****** ****** ****** ******
      ****** ****** ****** ****** ****** ****** ****** ****** ****** ******
  19  ****** ****** ****** ****** ****** ****** ****** ****** ****** ******
      ****** ****** ****** ****** ****** ****** ****** ****** ****** ******
      ****** ****** ****** ****** ****** ****** ****** ****** ****** ******
  20  ****** ****** ****** ****** ****** ****** ****** ****** ****** ******
      ****** ****** ****** ****** ****** ****** ****** ****** ****** ******
      ****** ****** ****** ****** ****** ****** ****** ****** ****** ******
  21  ****** ****** ****** ****** ****** ****** ****** ****** ****** ******
      ****** ****** ****** ****** ****** ****** ****** ****** ****** ******
      ****** ****** ****** ****** ****** ****** ****** ****** ****** ******
  22  ****** ****** ****** ****** ****** ****** ****** ****** ****** ******
      ****** ****** ****** ****** ****** ****** ****** ****** ****** ******
      ****** ****** ****** ****** ****** ****** ****** ****** ****** ******
  23  ****** ****** ****** ****** ****** ****** ****** ****** ****** ******
      ****** ****** ****** ****** ****** ****** ****** ****** ****** ******
      ****** ****** ****** ****** ****** ****** ****** ****** ****** ******
  24  ****** ****** ****** ****** ****** ****** ****** ****** ****** ******
      ****** ****** ****** ****** ****** ****** ****** ****** ****** ******
      ****** ****** ****** ****** ****** ****** ****** ****** ****** ******
  25  ****** ****** ****** ****** ****** ****** ****** ****** ****** ******
      ****** ****** ****** ****** ****** ****** ****** ****** ****** ******
      ****** ****** ****** ****** ****** ****** ****** ****** ****** ******

 HEAD WILL BE SAVED ON UNIT   51 AT END OF TIME STEP    1, STRESS PERIOD    6
1
  VOLUMETRIC BUDGET FOR ENTIRE MODEL AT END OF TIME STEP    1, STRESS PERIOD   6
  ------------------------------------------------------------------------------

     CUMULATIVE VOLUMES      L**3       RATES FOR THIS TIME STEP      L**3/T
     ------------------                 ------------------------

           IN:                                      IN:
           ---                                      ---
             STORAGE =    30928166.5877               STORAGE =           0.0000
       CONSTANT HEAD =    13303442.0561         CONSTANT HEAD =       29582.4813
               WELLS =           0.0000                 WELLS =           0.0000
            RECHARGE =    15097200.0000              RECHARGE =       55200.0000
      STREAM LEAKAGE =     8403922.7283        STREAM LEAKAGE =       18505.3544

            TOTAL IN =    67732731.3721              TOTAL IN =      103287.8358

          OUT:                                     OUT:
          ----                                     ----
             STORAGE =      812714.0186               STORAGE =        8922.0317
       CONSTANT HEAD =           0.0000         CONSTANT HEAD =           0.0000
               WELLS =    24937062.9141                 WELLS =       45505.5893
            RECHARGE =           0.0000              RECHARGE =           0.0000
      STREAM LEAKAGE =    41982956.4482        STREAM LEAKAGE =       48860.2119

           TOTAL OUT =    67732733.3809             TOTAL OUT =      103287.8329

            IN - OUT =          -2.0088              IN - OUT =       2.8758E-03

 PERCENT DISCREPANCY =          -0.00     PERCENT DISCREPANCY =           0.00






         TIME SUMMARY AT END OF TIME STEP    1 IN STRESS PERIOD    6
                    SECONDS     MINUTES      HOURS       DAYS        YEARS
                    -----------------------------------------------------------
   TIME STEP LENGTH 7.86240E+06 1.31040E+05  2184.0      91.000     0.24914    
 STRESS PERIOD TIME 7.86240E+06 1.31040E+05  2184.0      91.000     0.24914    
         TOTAL TIME 4.73472E+07 7.89120E+05  13152.      548.00      1.5003    
1
1
                            STRESS PERIOD NO.    7, LENGTH =   91.00000    
                            -----------------------------------------------

                              NUMBER OF TIME STEPS =     1

                               MULTIPLIER FOR DELT =     1.500

                            INITIAL TIME STEP SIZE =   91.00000    

 WELL NO.  LAYER   ROW   COL   STRESS RATE         
 --------------------------------------------------
      1      1     14      6       0.000    
      2      1      3      9       0.000    
      3      1     20     10       0.000    
      4      1     14     20       0.000    
      5      1     20     29      -8734.    
      6      1     15     15     -0.1244E+05
      7      1     17     29     -0.1509E+05
      8      1      6     23      -9237.    

      8 WELLS

                 RECHARGE =   0.00000    

 REUSING STREAM SEGMENT DATA FROM LAST STRESS PERIOD
 
 SOLVING FOR HEAD 


     7 CALLS TO PCG ROUTINE FOR TIME STEP   1 IN STRESS PERIOD    7
    26 TOTAL ITERATIONS

 OUTPUT CONTROL FOR STRESS PERIOD    7   TIME STEP    1
    SAVE BUDGET
    SAVE HEAD FOR ALL LAYERS
    PRINT HEAD FOR ALL LAYERS
 UBDSV2 SAVING "STREAMFLOW OUT  " ON UNIT  50 AT TIME STEP  1, STRESS PERIOD   7



 STREAM LISTING     PERIOD      7   STEP        1

 LAYER ROW COL. STREAM  RCH.  FLOW INTO     FLOW TO   FLOW OUT OF   OVRLND.     DIRECT     STREAM       STREAM     STREAM     STREAM   STREAMBED  STREAMBED
                SEG.NO.  NO.  STRM. RCH.    AQUIFER    STRM. RCH.    RUNOFF     PRECIP       ET          HEAD       DEPTH      WIDTH   CONDCTNC.   GRADIENT

   1   13    1     1     1    1.0000E+05 -1.7847E+03   1.0178E+05  0.000E+00  0.000E+00  0.000E+00  4.84068E+01  1.454E-01  2.000E+01  2.000E+04 -8.923E-02
   1   13    2     1     2    1.0178E+05 -2.7564E+03   1.0454E+05  0.000E+00  0.000E+00  0.000E+00  4.79315E+01  1.474E-01  2.000E+01  2.000E+04 -1.378E-01
   1   14    3     1     3    1.0454E+05 -4.1053E+02   1.0495E+05  0.000E+00  0.000E+00  0.000E+00  4.74556E+01  1.487E-01  2.000E+01  2.000E+04 -2.053E-02
   1   15    4     1     4    1.0495E+05 -3.7589E+02   1.0533E+05  0.000E+00  0.000E+00  0.000E+00  4.69786E+01  1.491E-01  2.000E+01  2.000E+04 -1.879E-02
   1   16    5     1     5    1.0533E+05 -1.4382E+03   1.0677E+05  0.000E+00  0.000E+00  0.000E+00  4.65021E+01  1.498E-01  2.000E+01  2.000E+04 -7.191E-02
   1   16    6     1     6    1.0677E+05 -9.1685E+02   1.0768E+05  0.000E+00  0.000E+00  0.000E+00  4.60258E+01  1.508E-01  2.000E+01  2.000E+04 -4.584E-02
   1   16    7     1     7    1.0768E+05 -8.9745E+02   1.0858E+05  0.000E+00  0.000E+00  0.000E+00  4.55493E+01  1.516E-01  2.000E+01  2.000E+04 -4.487E-02
   1   16    8     1     8    1.0858E+05 -8.8165E+02   1.0946E+05  0.000E+00  0.000E+00  0.000E+00  4.50728E+01  1.523E-01  2.000E+01  2.000E+04 -4.408E-02
   1   16    9     1     9    1.0946E+05 -8.5110E+02   1.1031E+05  0.000E+00  0.000E+00  0.000E+00  4.45963E+01  1.531E-01  2.000E+01  2.000E+04 -4.256E-02
   1   16   10     1    10    1.1031E+05 -7.9881E+02   1.1111E+05  0.000E+00  0.000E+00  0.000E+00  4.41197E+01  1.538E-01  2.000E+01  2.000E+04 -3.994E-02
   1   16   11     1    11    1.1111E+05 -7.1538E+02   1.1183E+05  0.000E+00  0.000E+00  0.000E+00  4.36430E+01  1.544E-01  2.000E+01  2.000E+04 -3.577E-02
   1   16   12     1    12    1.1183E+05 -7.0185E+02   1.1253E+05  0.000E+00  0.000E+00  0.000E+00  4.31663E+01  1.550E-01  2.000E+01  2.000E+04 -3.509E-02
   1   15   13     1    13    1.1253E+05  7.0740E+02   1.1182E+05  0.000E+00  0.000E+00  0.000E+00  4.26891E+01  1.550E-01  2.000E+01  2.000E+04  3.537E-02
   1   14   14     1    14    1.1182E+05  1.4921E+03   1.1033E+05  0.000E+00  0.000E+00  0.000E+00  4.22109E+01  1.541E-01  2.000E+01  2.000E+04  7.461E-02
   1   13   15     1    15    1.1033E+05  6.7092E+01   1.1026E+05  0.000E+00  0.000E+00  0.000E+00  4.17330E+01  1.534E-01  2.000E+01  2.000E+04  3.355E-03
   1   12   16     1    16    1.1026E+05 -2.0542E+03   1.1232E+05  0.000E+00  0.000E+00  0.000E+00  4.12565E+01  1.542E-01  2.000E+01  2.000E+04 -1.027E-01
   1   12   17     1    17    1.1232E+05 -1.1222E+03   1.1344E+05  0.000E+00  0.000E+00  0.000E+00  4.07806E+01  1.556E-01  2.000E+01  2.000E+04 -5.611E-02
   1   12   18     1    18    1.1344E+05 -1.0970E+03   1.1454E+05  0.000E+00  0.000E+00  0.000E+00  4.03042E+01  1.565E-01  2.000E+01  2.000E+04 -5.485E-02
   1   12   19     1    19    1.1454E+05 -1.5075E+03   1.1604E+05  0.000E+00  0.000E+00  0.000E+00  3.98280E+01  1.575E-01  2.000E+01  2.000E+04 -7.537E-02
   1   13   20     1    20    1.1604E+05 -9.0712E+02   1.1695E+05  0.000E+00  0.000E+00  0.000E+00  3.93517E+01  1.585E-01  2.000E+01  2.000E+04 -4.536E-02
   1   14   21     1    21    1.1695E+05 -8.1795E+02   1.1777E+05  0.000E+00  0.000E+00  0.000E+00  3.88751E+01  1.592E-01  2.000E+01  2.000E+04 -4.090E-02
   1   14   22     1    22    1.1777E+05  5.0158E+03   1.1275E+05  0.000E+00  0.000E+00  0.000E+00  3.83962E+01  1.575E-01  2.000E+01  2.000E+04  2.508E-01
   1    9   30     2     1    5.0000E+04  5.6195E+01   4.9944E+04  0.000E+00  0.000E+00  0.000E+00  4.02408E+01  1.158E-01  2.000E+01  2.000E+04  2.810E-03
   1    9   29     2     2    4.9944E+04 -2.2191E+02   5.0166E+04  0.000E+00  0.000E+00  0.000E+00  3.99909E+01  1.159E-01  2.000E+01  2.000E+04 -1.110E-02
   1    9   28     2     3    5.0166E+04 -4.1115E+02   5.0577E+04  0.000E+00  0.000E+00  0.000E+00  3.97414E+01  1.164E-01  2.000E+01  2.000E+04 -2.056E-02
   1    9   27     2     4    5.0577E+04 -1.0650E+03   5.1642E+04  0.000E+00  0.000E+00  0.000E+00  3.94924E+01  1.174E-01  2.000E+01  2.000E+04 -5.325E-02
   1   10   26     2     5    5.1642E+04 -3.9437E+02   5.2036E+04  0.000E+00  0.000E+00  0.000E+00  3.92434E+01  1.184E-01  2.000E+01  2.000E+04 -1.972E-02
   1   11   25     2     6    5.2036E+04 -4.0587E+02   5.2442E+04  0.000E+00  0.000E+00  0.000E+00  3.89940E+01  1.190E-01  2.000E+01  2.000E+04 -2.029E-02
   1   12   24     2     7    5.2442E+04 -7.2428E+02   5.3166E+04  0.000E+00  0.000E+00  0.000E+00  3.87447E+01  1.197E-01  2.000E+01  2.000E+04 -3.621E-02
   1   13   23     2     8    5.3166E+04 -1.1250E+02   5.3279E+04  0.000E+00  0.000E+00  0.000E+00  3.84953E+01  1.203E-01  2.000E+01  2.000E+04 -5.625E-03
   1   14   22     2     9    5.3279E+04  1.9731E+03   5.1306E+04  0.000E+00  0.000E+00  0.000E+00  3.82440E+01  1.190E-01  2.000E+01  2.000E+04  9.866E-02
   1   14   22     3     1    1.6406E+05 -8.5152E+03   1.7257E+05  0.000E+00  0.000E+00  0.000E+00  3.77196E+01  1.640E-01  2.000E+01  2.000E+04 -4.258E-01
   1   15   23     3     2    1.7257E+05 -3.8384E+02   1.7296E+05  0.000E+00  0.000E+00  0.000E+00  3.68333E+01  1.666E-01  2.000E+01  2.000E+04 -1.919E-02
   1   15   24     3     3    1.7296E+05 -1.7935E+02   1.7314E+05  0.000E+00  0.000E+00  0.000E+00  3.59446E+01  1.668E-01  2.000E+01  2.000E+04 -8.967E-03
   1   15   25     3     4    1.7314E+05 -1.6568E+02   1.7330E+05  0.000E+00  0.000E+00  0.000E+00  3.50558E+01  1.669E-01  2.000E+01  2.000E+04 -8.284E-03
   1   15   26     3     5    1.7330E+05 -1.3217E+02   1.7343E+05  0.000E+00  0.000E+00  0.000E+00  3.41670E+01  1.670E-01  2.000E+01  2.000E+04 -6.609E-03
   1   16   27     3     6    1.7343E+05  1.0511E+02   1.7333E+05  0.000E+00  0.000E+00  0.000E+00  3.32781E+01  1.670E-01  2.000E+01  2.000E+04  5.256E-03
   1   17   28     3     7    1.7333E+05  5.7205E+03   1.6761E+05  0.000E+00  0.000E+00  0.000E+00  3.23875E+01  1.653E-01  2.000E+01  2.000E+04  2.860E-01
   1   18   29     3     8    1.6761E+05  5.5765E+03   1.6203E+05  0.000E+00  0.000E+00  0.000E+00  3.14953E+01  1.620E-01  2.000E+01  2.000E+04  2.788E-01
   1   18   30     3     9    1.6203E+05  1.7788E+03   1.6025E+05  0.000E+00  0.000E+00  0.000E+00  3.06043E+01  1.598E-01  2.000E+01  2.000E+04  8.894E-02



1
              HEAD IN LAYER   1 AT END OF TIME STEP   1 IN STRESS PERIOD    7
  ---------------------------------------------------------------------------

          1      2      3      4      5      6      7      8      9     10
         11     12     13     14     15     16     17     18     19     20
         21     22     23     24     25     26     27     28     29     30
 .........................................................................
   1  ****** ****** ****** ****** ****** ****** ****** ****** ****** ******
      ****** ****** ****** ****** ****** ****** ****** ****** ****** ******
      ****** ****** ****** ****** ****** ****** ****** ****** ****** ******
   2  ****** ****** ****** ****** ****** ****** ****** ****** ****** ******
      ****** ****** ****** ****** ****** ****** ****** ****** ****** ******
      ****** ****** ****** ****** ****** ****** ****** ****** ****** ******
   3  ****** ****** ****** ****** ****** ****** ****** ****** ****** ******
      ****** ****** ****** ****** ****** ****** ****** ****** ****** ******
      ****** ****** ****** ****** ****** ****** ****** ****** ****** ******
   4  ****** ****** ****** ****** ****** ****** ****** ****** ****** ******
      ****** ****** ****** ****** ****** ****** ****** ****** ****** ******
      ****** ****** ****** ****** ****** ****** ****** ****** ****** ******
   5  ****** ****** ****** ****** ****** ****** ****** ****** ****** ******
      ****** ****** ****** ****** ****** ****** ****** ****** ****** ******
      ****** ****** ****** ****** ****** ****** ****** ****** ****** ******
   6  ****** ****** ****** ****** ****** ****** ****** ****** ****** ******
      ****** ****** ****** ****** ****** ****** ****** ****** ****** ******
      ****** ****** ****** ****** ****** ****** ****** ****** ****** ******
   7  ****** ****** ****** ****** ****** ****** ****** ****** ****** ******
      ****** ****** ****** ****** ****** ****** ****** ****** ****** ******
      ****** ****** ****** ****** ****** ****** ****** ****** ****** ******
   8  ****** ****** ****** ****** ****** ****** ****** ****** ****** ******
      ****** ****** ****** ****** ****** ****** ****** ****** ****** ******
      ****** ****** ****** ****** ****** ****** ****** ****** ****** ******
   9  ****** ****** ****** ****** ****** ****** ****** ****** ****** ******
      ****** ****** ****** ****** ****** ****** ****** ****** ****** ******
      ****** ****** ****** ****** ****** ****** ****** ****** ****** ******
  10  ****** ****** ****** ****** ****** ****** ****** ****** ****** ******
      ****** ****** ****** ****** ****** ****** ****** ****** ****** ******
      ****** ****** ****** ****** ****** ****** ****** ****** ****** ******
  11  ****** ****** ****** ****** ****** ****** ****** ****** ****** ******
      ****** ****** ****** ****** ****** ****** ****** ****** ****** ******
      ****** ****** ****** ****** ****** ****** ****** ****** ****** ******
  12  ****** ****** ****** ****** ****** ****** ****** ****** ****** ******
      ****** ****** ****** ****** ****** ****** ****** ****** ****** ******
      ****** ****** ****** ****** ****** ****** ****** ****** ****** ******
  13  ****** ****** ****** ****** ****** ****** ****** ****** ****** ******
      ****** ****** ****** ****** ****** ****** ****** ****** ****** ******
      ****** ****** ****** ****** ****** ****** ****** ****** ****** ******
  14  ****** ****** ****** ****** ****** ****** ****** ****** ****** ******
      ****** ****** ****** ****** ****** ****** ****** ****** ****** ******
      ****** ****** ****** ****** ****** ****** ****** ****** ****** ******
  15  ****** ****** ****** ****** ****** ****** ****** ****** ****** ******
      ****** ****** ****** ****** ****** ****** ****** ****** ****** ******
      ****** ****** ****** ****** ****** ****** ****** ****** ****** ******
  16  ****** ****** ****** ****** ****** ****** ****** ****** ****** ******
      ****** ****** ****** ****** ****** ****** ****** ****** ****** ******
      ****** ****** ****** ****** ****** ****** ****** ****** ****** ******
  17  ****** ****** ****** ****** ****** ****** ****** ****** ****** ******
      ****** ****** ****** ****** ****** ****** ****** ****** ****** ******
      ****** ****** ****** ****** ****** ****** ****** ****** ****** ******
  18  ****** ****** ****** ****** ****** ****** ****** ****** ****** ******
      ****** ****** ****** ****** ****** ****** ****** ****** ****** ******
      ****** ****** ****** ****** ****** ****** ****** ****** ****** ******
  19  ****** ****** ****** ****** ****** ****** ****** ****** ****** ******
      ****** ****** ****** ****** ****** ****** ****** ****** ****** ******
      ****** ****** ****** ****** ****** ****** ****** ****** ****** ******
  20  ****** ****** ****** ****** ****** ****** ****** ****** ****** ******
      ****** ****** ****** ****** ****** ****** ****** ****** ****** ******
      ****** ****** ****** ****** ****** ****** ****** ****** ****** ******
  21  ****** ****** ****** ****** ****** ****** ****** ****** ****** ******
      ****** ****** ****** ****** ****** ****** ****** ****** ****** ******
      ****** ****** ****** ****** ****** ****** ****** ****** ****** ******
  22  ****** ****** ****** ****** ****** ****** ****** ****** ****** ******
      ****** ****** ****** ****** ****** ****** ****** ****** ****** ******
      ****** ****** ****** ****** ****** ****** ****** ****** ****** ******
  23  ****** ****** ****** ****** ****** ****** ****** ****** ****** ******
      ****** ****** ****** ****** ****** ****** ****** ****** ****** ******
      ****** ****** ****** ****** ****** ****** ****** ****** ****** ******
  24  ****** ****** ****** ****** ****** ****** ****** ****** ****** ******
      ****** ****** ****** ****** ****** ****** ****** ****** ****** ******
      ****** ****** ****** ****** ****** ****** ****** ****** ****** ******
  25  ****** ****** ****** ****** ****** ****** ****** ****** ****** ******
      ****** ****** ****** ****** ****** ****** ****** ****** ****** ******
      ****** ****** ****** ****** ****** ****** ****** ****** ****** ******

 HEAD WILL BE SAVED ON UNIT   51 AT END OF TIME STEP    1, STRESS PERIOD    7
1
  VOLUMETRIC BUDGET FOR ENTIRE MODEL AT END OF TIME STEP    1, STRESS PERIOD   7
  ------------------------------------------------------------------------------

     CUMULATIVE VOLUMES      L**3       RATES FOR THIS TIME STEP      L**3/T
     ------------------                 ------------------------

           IN:                                      IN:
           ---                                      ---
             STORAGE =    32953650.7338               STORAGE =       22258.0675
       CONSTANT HEAD =    16352023.7761         CONSTANT HEAD =       33500.8980
               WELLS =           0.0000                 WELLS =           0.0000
            RECHARGE =    15097200.0000              RECHARGE =           0.0000
      STREAM LEAKAGE =    10450756.9759        STREAM LEAKAGE =       22492.6840

            TOTAL IN =    74853631.4858              TOTAL IN =       78251.6496

          OUT:                                     OUT:
          ----                                     ----
             STORAGE =      812714.0186               STORAGE =           0.0000
       CONSTANT HEAD =           0.0000         CONSTANT HEAD =           0.0000
               WELLS =    29078071.5367                 WELLS =       45505.5893
            RECHARGE =           0.0000              RECHARGE =           0.0000
      STREAM LEAKAGE =    44962848.4351        STREAM LEAKAGE =       32746.0658

           TOTAL OUT =    74853633.9903             TOTAL OUT =       78251.6550

            IN - OUT =          -2.5046              IN - OUT =      -5.4475E-03

 PERCENT DISCREPANCY =          -0.00     PERCENT DISCREPANCY =          -0.00






         TIME SUMMARY AT END OF TIME STEP    1 IN STRESS PERIOD    7
                    SECONDS     MINUTES      HOURS       DAYS        YEARS
                    -----------------------------------------------------------
   TIME STEP LENGTH 7.86240E+06 1.31040E+05  2184.0      91.000     0.24914    
 STRESS PERIOD TIME 7.86240E+06 1.31040E+05  2184.0      91.000     0.24914    
         TOTAL TIME 5.52096E+07 9.20160E+05  15336.      639.00      1.7495    
1
1
                            STRESS PERIOD NO.    8, LENGTH =   91.00000    
                            -----------------------------------------------

                              NUMBER OF TIME STEPS =     1

                               MULTIPLIER FOR DELT =     1.500

                            INITIAL TIME STEP SIZE =   91.00000    

 WELL NO.  LAYER   ROW   COL   STRESS RATE         
 --------------------------------------------------
      1      1     14      6       0.000    
      2      1      3      9       0.000    
      3      1     20     10       0.000    
      4      1     14     20       0.000    
      5      1     20     29      -8734.    
      6      1     15     15     -0.1244E+05
      7      1     17     29     -0.1509E+05
      8      1      6     23      -9237.    

      8 WELLS

                 RECHARGE =  1.000000E-03

 REUSING STREAM SEGMENT DATA FROM LAST STRESS PERIOD
 
 SOLVING FOR HEAD 


     6 CALLS TO PCG ROUTINE FOR TIME STEP   1 IN STRESS PERIOD    8
    22 TOTAL ITERATIONS

 OUTPUT CONTROL FOR STRESS PERIOD    8   TIME STEP    1
    SAVE BUDGET
    SAVE HEAD FOR ALL LAYERS
    PRINT HEAD FOR ALL LAYERS
 UBDSV2 SAVING "STREAMFLOW OUT  " ON UNIT  50 AT TIME STEP  1, STRESS PERIOD   8



 STREAM LISTING     PERIOD      8   STEP        1

 LAYER ROW COL. STREAM  RCH.  FLOW INTO     FLOW TO   FLOW OUT OF   OVRLND.     DIRECT     STREAM       STREAM     STREAM     STREAM   STREAMBED  STREAMBED
                SEG.NO.  NO.  STRM. RCH.    AQUIFER    STRM. RCH.    RUNOFF     PRECIP       ET          HEAD       DEPTH      WIDTH   CONDCTNC.   GRADIENT

   1   13    1     1     1    1.0000E+05 -1.8616E+03   1.0186E+05  0.000E+00  0.000E+00  0.000E+00  4.84068E+01  1.455E-01  2.000E+01  2.000E+04 -9.308E-02
   1   13    2     1     2    1.0186E+05 -2.8335E+03   1.0470E+05  0.000E+00  0.000E+00  0.000E+00  4.79316E+01  1.475E-01  2.000E+01  2.000E+04 -1.417E-01
   1   14    3     1     3    1.0470E+05 -4.7514E+02   1.0517E+05  0.000E+00  0.000E+00  0.000E+00  4.74557E+01  1.489E-01  2.000E+01  2.000E+04 -2.376E-02
   1   15    4     1     4    1.0517E+05 -4.4502E+02   1.0562E+05  0.000E+00  0.000E+00  0.000E+00  4.69788E+01  1.493E-01  2.000E+01  2.000E+04 -2.225E-02
   1   16    5     1     5    1.0562E+05 -1.6122E+03   1.0723E+05  0.000E+00  0.000E+00  0.000E+00  4.65024E+01  1.502E-01  2.000E+01  2.000E+04 -8.061E-02
   1   16    6     1     6    1.0723E+05 -1.0241E+03   1.0825E+05  0.000E+00  0.000E+00  0.000E+00  4.60263E+01  1.513E-01  2.000E+01  2.000E+04 -5.120E-02
   1   16    7     1     7    1.0825E+05 -9.9969E+02   1.0925E+05  0.000E+00  0.000E+00  0.000E+00  4.55498E+01  1.521E-01  2.000E+01  2.000E+04 -4.998E-02
   1   16    8     1     8    1.0925E+05 -9.8302E+02   1.1023E+05  0.000E+00  0.000E+00  0.000E+00  4.50734E+01  1.530E-01  2.000E+01  2.000E+04 -4.915E-02
   1   16    9     1     9    1.1023E+05 -9.5354E+02   1.1119E+05  0.000E+00  0.000E+00  0.000E+00  4.45969E+01  1.538E-01  2.000E+01  2.000E+04 -4.768E-02
   1   16   10     1    10    1.1119E+05 -9.0362E+02   1.1209E+05  0.000E+00  0.000E+00  0.000E+00  4.41204E+01  1.545E-01  2.000E+01  2.000E+04 -4.518E-02
   1   16   11     1    11    1.1209E+05 -8.2306E+02   1.1291E+05  0.000E+00  0.000E+00  0.000E+00  4.36439E+01  1.552E-01  2.000E+01  2.000E+04 -4.115E-02
   1   16   12     1    12    1.1291E+05 -8.6277E+02   1.1378E+05  0.000E+00  0.000E+00  0.000E+00  4.31673E+01  1.559E-01  2.000E+01  2.000E+04 -4.314E-02
   1   15   13     1    13    1.1378E+05  5.3896E+02   1.1324E+05  0.000E+00  0.000E+00  0.000E+00  4.26902E+01  1.561E-01  2.000E+01  2.000E+04  2.695E-02
   1   14   14     1    14    1.1324E+05  1.3304E+03   1.1191E+05  0.000E+00  0.000E+00  0.000E+00  4.22121E+01  1.553E-01  2.000E+01  2.000E+04  6.652E-02
   1   13   15     1    15    1.1191E+05 -8.2036E+01   1.1199E+05  0.000E+00  0.000E+00  0.000E+00  4.17343E+01  1.548E-01  2.000E+01  2.000E+04 -4.102E-03
   1   12   16     1    16    1.1199E+05 -2.1656E+03   1.1416E+05  0.000E+00  0.000E+00  0.000E+00  4.12580E+01  1.557E-01  2.000E+01  2.000E+04 -1.083E-01
   1   12   17     1    17    1.1416E+05 -1.2333E+03   1.1539E+05  0.000E+00  0.000E+00  0.000E+00  4.07821E+01  1.571E-01  2.000E+01  2.000E+04 -6.166E-02
   1   12   18     1    18    1.1539E+05 -1.2146E+03   1.1660E+05  0.000E+00  0.000E+00  0.000E+00  4.03058E+01  1.581E-01  2.000E+01  2.000E+04 -6.073E-02
   1   12   19     1    19    1.1660E+05 -1.6558E+03   1.1826E+05  0.000E+00  0.000E+00  0.000E+00  3.98297E+01  1.593E-01  2.000E+01  2.000E+04 -8.279E-02
   1   13   20     1    20    1.1826E+05 -1.0843E+03   1.1934E+05  0.000E+00  0.000E+00  0.000E+00  3.93536E+01  1.604E-01  2.000E+01  2.000E+04 -5.422E-02
   1   14   21     1    21    1.1934E+05 -9.7501E+02   1.2032E+05  0.000E+00  0.000E+00  0.000E+00  3.88771E+01  1.612E-01  2.000E+01  2.000E+04 -4.875E-02
   1   14   22     1    22    1.2032E+05  4.9684E+03   1.1535E+05  0.000E+00  0.000E+00  0.000E+00  3.83983E+01  1.596E-01  2.000E+01  2.000E+04  2.484E-01
   1    9   30     2     1    5.0000E+04 -1.0643E+02   5.0106E+04  0.000E+00  0.000E+00  0.000E+00  4.02409E+01  1.159E-01  2.000E+01  2.000E+04 -5.321E-03
   1    9   29     2     2    5.0106E+04 -3.8172E+02   5.0488E+04  0.000E+00  0.000E+00  0.000E+00  3.99913E+01  1.163E-01  2.000E+01  2.000E+04 -1.909E-02
   1    9   28     2     3    5.0488E+04 -5.6535E+02   5.1053E+04  0.000E+00  0.000E+00  0.000E+00  3.97419E+01  1.169E-01  2.000E+01  2.000E+04 -2.827E-02
   1    9   27     2     4    5.1053E+04 -1.2419E+03   5.2295E+04  0.000E+00  0.000E+00  0.000E+00  3.94932E+01  1.182E-01  2.000E+01  2.000E+04 -6.210E-02
   1   10   26     2     5    5.2295E+04 -5.9878E+02   5.2894E+04  0.000E+00  0.000E+00  0.000E+00  3.92444E+01  1.194E-01  2.000E+01  2.000E+04 -2.994E-02
   1   11   25     2     6    5.2894E+04 -6.0892E+02   5.3503E+04  0.000E+00  0.000E+00  0.000E+00  3.89953E+01  1.203E-01  2.000E+01  2.000E+04 -3.045E-02
   1   12   24     2     7    5.3503E+04 -9.0861E+02   5.4412E+04  0.000E+00  0.000E+00  0.000E+00  3.87463E+01  1.213E-01  2.000E+01  2.000E+04 -4.543E-02
   1   13   23     2     8    5.4412E+04 -1.8669E+02   5.4598E+04  0.000E+00  0.000E+00  0.000E+00  3.84970E+01  1.220E-01  2.000E+01  2.000E+04 -9.334E-03
   1   14   22     2     9    5.4598E+04  1.9203E+03   5.2678E+04  0.000E+00  0.000E+00  0.000E+00  3.82459E+01  1.209E-01  2.000E+01  2.000E+04  9.602E-02
   1   14   22     3     1    1.6803E+05 -8.5582E+03   1.7659E+05  0.000E+00  0.000E+00  0.000E+00  3.77219E+01  1.664E-01  2.000E+01  2.000E+04 -4.279E-01
   1   15   23     3     2    1.7659E+05 -4.4764E+02   1.7703E+05  0.000E+00  0.000E+00  0.000E+00  3.68356E+01  1.690E-01  2.000E+01  2.000E+04 -2.238E-02
   1   15   24     3     3    1.7703E+05 -2.3958E+02   1.7727E+05  0.000E+00  0.000E+00  0.000E+00  3.59469E+01  1.692E-01  2.000E+01  2.000E+04 -1.198E-02
   1   15   25     3     4    1.7727E+05 -2.2764E+02   1.7750E+05  0.000E+00  0.000E+00  0.000E+00  3.50582E+01  1.693E-01  2.000E+01  2.000E+04 -1.138E-02
   1   15   26     3     5    1.7750E+05 -2.0664E+02   1.7771E+05  0.000E+00  0.000E+00  0.000E+00  3.41694E+01  1.694E-01  2.000E+01  2.000E+04 -1.033E-02
   1   16   27     3     6    1.7771E+05  2.3631E+01   1.7768E+05  0.000E+00  0.000E+00  0.000E+00  3.32806E+01  1.695E-01  2.000E+01  2.000E+04  1.182E-03
   1   17   28     3     7    1.7768E+05  5.5180E+03   1.7217E+05  0.000E+00  0.000E+00  0.000E+00  3.23901E+01  1.679E-01  2.000E+01  2.000E+04  2.759E-01
   1   18   29     3     8    1.7217E+05  5.4137E+03   1.6675E+05  0.000E+00  0.000E+00  0.000E+00  3.14981E+01  1.647E-01  2.000E+01  2.000E+04  2.707E-01
   1   18   30     3     9    1.6675E+05  1.6338E+03   1.6512E+05  0.000E+00  0.000E+00  0.000E+00  3.06071E+01  1.627E-01  2.000E+01  2.000E+04  8.169E-02



1
              HEAD IN LAYER   1 AT END OF TIME STEP   1 IN STRESS PERIOD    8
  ---------------------------------------------------------------------------

          1      2      3      4      5      6      7      8      9     10
         11     12     13     14     15     16     17     18     19     20
         21     22     23     24     25     26     27     28     29     30
 .........................................................................
   1  ****** ****** ****** ****** ****** ****** ****** ****** ****** ******
      ****** ****** ****** ****** ****** ****** ****** ****** ****** ******
      ****** ****** ****** ****** ****** ****** ****** ****** ****** ******
   2  ****** ****** ****** ****** ****** ****** ****** ****** ****** ******
      ****** ****** ****** ****** ****** ****** ****** ****** ****** ******
      ****** ****** ****** ****** ****** ****** ****** ****** ****** ******
   3  ****** ****** ****** ****** ****** ****** ****** ****** ****** ******
      ****** ****** ****** ****** ****** ****** ****** ****** ****** ******
      ****** ****** ****** ****** ****** ****** ****** ****** ****** ******
   4  ****** ****** ****** ****** ****** ****** ****** ****** ****** ******
      ****** ****** ****** ****** ****** ****** ****** ****** ****** ******
      ****** ****** ****** ****** ****** ****** ****** ****** ****** ******
   5  ****** ****** ****** ****** ****** ****** ****** ****** ****** ******
      ****** ****** ****** ****** ****** ****** ****** ****** ****** ******
      ****** ****** ****** ****** ****** ****** ****** ****** ****** ******
   6  ****** ****** ****** ****** ****** ****** ****** ****** ****** ******
      ****** ****** ****** ****** ****** ****** ****** ****** ****** ******
      ****** ****** ****** ****** ****** ****** ****** ****** ****** ******
   7  ****** ****** ****** ****** ****** ****** ****** ****** ****** ******
      ****** ****** ****** ****** ****** ****** ****** ****** ****** ******
      ****** ****** ****** ****** ****** ****** ****** ****** ****** ******
   8  ****** ****** ****** ****** ****** ****** ****** ****** ****** ******
      ****** ****** ****** ****** ****** ****** ****** ****** ****** ******
      ****** ****** ****** ****** ****** ****** ****** ****** ****** ******
   9  ****** ****** ****** ****** ****** ****** ****** ****** ****** ******
      ****** ****** ****** ****** ****** ****** ****** ****** ****** ******
      ****** ****** ****** ****** ****** ****** ****** ****** ****** ******
  10  ****** ****** ****** ****** ****** ****** ****** ****** ****** ******
      ****** ****** ****** ****** ****** ****** ****** ****** ****** ******
      ****** ****** ****** ****** ****** ****** ****** ****** ****** ******
  11  ****** ****** ****** ****** ****** ****** ****** ****** ****** ******
      ****** ****** ****** ****** ****** ****** ****** ****** ****** ******
      ****** ****** ****** ****** ****** ****** ****** ****** ****** ******
  12  ****** ****** ****** ****** ****** ****** ****** ****** ****** ******
      ****** ****** ****** ****** ****** ****** ****** ****** ****** ******
      ****** ****** ****** ****** ****** ****** ****** ****** ****** ******
  13  ****** ****** ****** ****** ****** ****** ****** ****** ****** ******
      ****** ****** ****** ****** ****** ****** ****** ****** ****** ******
      ****** ****** ****** ****** ****** ****** ****** ****** ****** ******
  14  ****** ****** ****** ****** ****** ****** ****** ****** ****** ******
      ****** ****** ****** ****** ****** ****** ****** ****** ****** ******
      ****** ****** ****** ****** ****** ****** ****** ****** ****** ******
  15  ****** ****** ****** ****** ****** ****** ****** ****** ****** ******
      ****** ****** ****** ****** ****** ****** ****** ****** ****** ******
      ****** ****** ****** ****** ****** ****** ****** ****** ****** ******
  16  ****** ****** ****** ****** ****** ****** ****** ****** ****** ******
      ****** ****** ****** ****** ****** ****** ****** ****** ****** ******
      ****** ****** ****** ****** ****** ****** ****** ****** ****** ******
  17  ****** ****** ****** ****** ****** ****** ****** ****** ****** ******
      ****** ****** ****** ****** ****** ****** ****** ****** ****** ******
      ****** ****** ****** ****** ****** ****** ****** ****** ****** ******
  18  ****** ****** ****** ****** ****** ****** ****** ****** ****** ******
      ****** ****** ****** ****** ****** ****** ****** ****** ****** ******
      ****** ****** ****** ****** ****** ****** ****** ****** ****** ******
  19  ****** ****** ****** ****** ****** ****** ****** ****** ****** ******
      ****** ****** ****** ****** ****** ****** ****** ****** ****** ******
      ****** ****** ****** ****** ****** ****** ****** ****** ****** ******
  20  ****** ****** ****** ****** ****** ****** ****** ****** ****** ******
      ****** ****** ****** ****** ****** ****** ****** ****** ****** ******
      ****** ****** ****** ****** ****** ****** ****** ****** ****** ******
  21  ****** ****** ****** ****** ****** ****** ****** ****** ****** ******
      ****** ****** ****** ****** ****** ****** ****** ****** ****** ******
      ****** ****** ****** ****** ****** ****** ****** ****** ****** ******
  22  ****** ****** ****** ****** ****** ****** ****** ****** ****** ******
      ****** ****** ****** ****** ****** ****** ****** ****** ****** ******
      ****** ****** ****** ****** ****** ****** ****** ****** ****** ******
  23  ****** ****** ****** ****** ****** ****** ****** ****** ****** ******
      ****** ****** ****** ****** ****** ****** ****** ****** ****** ******
      ****** ****** ****** ****** ****** ****** ****** ****** ****** ******
  24  ****** ****** ****** ****** ****** ****** ****** ****** ****** ******
      ****** ****** ****** ****** ****** ****** ****** ****** ****** ******
      ****** ****** ****** ****** ****** ****** ****** ****** ****** ******
  25  ****** ****** ****** ****** ****** ****** ****** ****** ****** ******
      ****** ****** ****** ****** ****** ****** ****** ****** ****** ******
      ****** ****** ****** ****** ****** ****** ****** ****** ****** ******

 HEAD WILL BE SAVED ON UNIT   51 AT END OF TIME STEP    1, STRESS PERIOD    8
1
  VOLUMETRIC BUDGET FOR ENTIRE MODEL AT END OF TIME STEP    1, STRESS PERIOD   8
  ------------------------------------------------------------------------------

     CUMULATIVE VOLUMES      L**3       RATES FOR THIS TIME STEP      L**3/T
     ------------------                 ------------------------

           IN:                                      IN:
           ---                                      ---
             STORAGE =    33079130.8935               STORAGE =        1378.9029
       CONSTANT HEAD =    19373090.7350         CONSTANT HEAD =       33198.5380
               WELLS =           0.0000                 WELLS =           0.0000
            RECHARGE =    17608800.0000              RECHARGE =       27600.0000
      STREAM LEAKAGE =    12393355.9008        STREAM LEAKAGE =       21347.2409

            TOTAL IN =    82454377.5293              TOTAL IN =       83524.6818

          OUT:                                     OUT:
          ----                                     ----
             STORAGE =      954041.8817               STORAGE =        1553.0534
       CONSTANT HEAD =           0.0000         CONSTANT HEAD =           0.0000
               WELLS =    33219080.1593                 WELLS =       45505.5893
            RECHARGE =           0.0000              RECHARGE =           0.0000
      STREAM LEAKAGE =    48281257.2253        STREAM LEAKAGE =       36466.0307

           TOTAL OUT =    82454379.2663             TOTAL OUT =       83524.6734

            IN - OUT =          -1.7371              IN - OUT =       8.4340E-03

 PERCENT DISCREPANCY =          -0.00     PERCENT DISCREPANCY =           0.00






         TIME SUMMARY AT END OF TIME STEP    1 IN STRESS PERIOD    8
                    SECONDS     MINUTES      HOURS       DAYS        YEARS
                    -----------------------------------------------------------
   TIME STEP LENGTH 7.86240E+06 1.31040E+05  2184.0      91.000     0.24914    
 STRESS PERIOD TIME 7.86240E+06 1.31040E+05  2184.0      91.000     0.24914    
         TOTAL TIME 6.30720E+07 1.05120E+06  17520.      730.00      1.9986    
1
1
                            STRESS PERIOD NO.    9, LENGTH =   92.00000    
                            -----------------------------------------------

                              NUMBER OF TIME STEPS =     1

                               MULTIPLIER FOR DELT =     1.500

                            INITIAL TIME STEP SIZE =   92.00000    

 WELL NO.  LAYER   ROW   COL   STRESS RATE         
 --------------------------------------------------
      1      1     14      6       0.000    
      2      1      3      9       0.000    
      3      1     20     10       0.000    
      4      1     14     20       0.000    
      5      1     20     29      -8734.    
      6      1     15     15     -0.1244E+05
      7      1     17     29     -0.1509E+05
      8      1      6     23      -9237.    

      8 WELLS

                 RECHARGE =  5.000000E-04

 REUSING STREAM SEGMENT DATA FROM LAST STRESS PERIOD
 
 SOLVING FOR HEAD 


     6 CALLS TO PCG ROUTINE FOR TIME STEP   1 IN STRESS PERIOD    9
    23 TOTAL ITERATIONS

 OUTPUT CONTROL FOR STRESS PERIOD    9   TIME STEP    1
    SAVE BUDGET
    SAVE HEAD FOR ALL LAYERS
    PRINT HEAD FOR ALL LAYERS
 UBDSV2 SAVING "STREAMFLOW OUT  " ON UNIT  50 AT TIME STEP  1, STRESS PERIOD   9



 STREAM LISTING     PERIOD      9   STEP        1

 LAYER ROW COL. STREAM  RCH.  FLOW INTO     FLOW TO   FLOW OUT OF   OVRLND.     DIRECT     STREAM       STREAM     STREAM     STREAM   STREAMBED  STREAMBED
                SEG.NO.  NO.  STRM. RCH.    AQUIFER    STRM. RCH.    RUNOFF     PRECIP       ET          HEAD       DEPTH      WIDTH   CONDCTNC.   GRADIENT

   1   13    1     1     1    1.0000E+05 -1.6498E+03   1.0165E+05  0.000E+00  0.000E+00  0.000E+00  4.84067E+01  1.454E-01  2.000E+01  2.000E+04 -8.249E-02
   1   13    2     1     2    1.0165E+05 -2.5937E+03   1.0424E+05  0.000E+00  0.000E+00  0.000E+00  4.79313E+01  1.472E-01  2.000E+01  2.000E+04 -1.297E-01
   1   14    3     1     3    1.0424E+05 -4.0477E+02   1.0465E+05  0.000E+00  0.000E+00  0.000E+00  4.74553E+01  1.485E-01  2.000E+01  2.000E+04 -2.024E-02
   1   15    4     1     4    1.0465E+05 -3.7354E+02   1.0502E+05  0.000E+00  0.000E+00  0.000E+00  4.69784E+01  1.488E-01  2.000E+01  2.000E+04 -1.868E-02
   1   16    5     1     5    1.0502E+05 -1.4200E+03   1.0644E+05  0.000E+00  0.000E+00  0.000E+00  4.65018E+01  1.496E-01  2.000E+01  2.000E+04 -7.100E-02
   1   16    6     1     6    1.0644E+05 -9.0441E+02   1.0735E+05  0.000E+00  0.000E+00  0.000E+00  4.60256E+01  1.506E-01  2.000E+01  2.000E+04 -4.522E-02
   1   16    7     1     7    1.0735E+05 -8.8375E+02   1.0823E+05  0.000E+00  0.000E+00  0.000E+00  4.55490E+01  1.513E-01  2.000E+01  2.000E+04 -4.419E-02
   1   16    8     1     8    1.0823E+05 -8.6858E+02   1.0910E+05  0.000E+00  0.000E+00  0.000E+00  4.50725E+01  1.520E-01  2.000E+01  2.000E+04 -4.343E-02
   1   16    9     1     9    1.0910E+05 -8.4066E+02   1.0994E+05  0.000E+00  0.000E+00  0.000E+00  4.45959E+01  1.528E-01  2.000E+01  2.000E+04 -4.203E-02
   1   16   10     1    10    1.0994E+05 -7.9266E+02   1.1073E+05  0.000E+00  0.000E+00  0.000E+00  4.41194E+01  1.534E-01  2.000E+01  2.000E+04 -3.963E-02
   1   16   11     1    11    1.1073E+05 -7.1297E+02   1.1144E+05  0.000E+00  0.000E+00  0.000E+00  4.36427E+01  1.541E-01  2.000E+01  2.000E+04 -3.565E-02
   1   16   12     1    12    1.1144E+05 -6.7438E+02   1.1212E+05  0.000E+00  0.000E+00  0.000E+00  4.31660E+01  1.546E-01  2.000E+01  2.000E+04 -3.372E-02
   1   15   13     1    13    1.1212E+05  7.4804E+02   1.1137E+05  0.000E+00  0.000E+00  0.000E+00  4.26887E+01  1.546E-01  2.000E+01  2.000E+04  3.740E-02
   1   14   14     1    14    1.1137E+05  1.5525E+03   1.0982E+05  0.000E+00  0.000E+00  0.000E+00  4.22105E+01  1.537E-01  2.000E+01  2.000E+04  7.762E-02
   1   13   15     1    15    1.0982E+05  1.4560E+02   1.0967E+05  0.000E+00  0.000E+00  0.000E+00  4.17325E+01  1.530E-01  2.000E+01  2.000E+04  7.280E-03
   1   12   16     1    16    1.0967E+05 -1.9303E+03   1.1160E+05  0.000E+00  0.000E+00  0.000E+00  4.12560E+01  1.537E-01  2.000E+01  2.000E+04 -9.652E-02
   1   12   17     1    17    1.1160E+05 -1.0713E+03   1.1267E+05  0.000E+00  0.000E+00  0.000E+00  4.07799E+01  1.549E-01  2.000E+01  2.000E+04 -5.356E-02
   1   12   18     1    18    1.1267E+05 -1.0599E+03   1.1373E+05  0.000E+00  0.000E+00  0.000E+00  4.03036E+01  1.558E-01  2.000E+01  2.000E+04 -5.299E-02
   1   12   19     1    19    1.1373E+05 -1.4695E+03   1.1520E+05  0.000E+00  0.000E+00  0.000E+00  3.98273E+01  1.569E-01  2.000E+01  2.000E+04 -7.347E-02
   1   13   20     1    20    1.1520E+05 -9.1080E+02   1.1611E+05  0.000E+00  0.000E+00  0.000E+00  3.93510E+01  1.578E-01  2.000E+01  2.000E+04 -4.554E-02
   1   14   21     1    21    1.1611E+05 -8.0295E+02   1.1692E+05  0.000E+00  0.000E+00  0.000E+00  3.88745E+01  1.585E-01  2.000E+01  2.000E+04 -4.015E-02
   1   14   22     1    22    1.1692E+05  5.0067E+03   1.1191E+05  0.000E+00  0.000E+00  0.000E+00  3.83955E+01  1.568E-01  2.000E+01  2.000E+04  2.503E-01
   1    9   30     2     1    5.0000E+04  1.6962E+01   4.9983E+04  0.000E+00  0.000E+00  0.000E+00  4.02409E+01  1.159E-01  2.000E+01  2.000E+04  8.481E-04
   1    9   29     2     2    4.9983E+04 -2.5812E+02   5.0241E+04  0.000E+00  0.000E+00  0.000E+00  3.99910E+01  1.160E-01  2.000E+01  2.000E+04 -1.291E-02
   1    9   28     2     3    5.0241E+04 -4.3987E+02   5.0681E+04  0.000E+00  0.000E+00  0.000E+00  3.97415E+01  1.165E-01  2.000E+01  2.000E+04 -2.199E-02
   1    9   27     2     4    5.0681E+04 -1.0654E+03   5.1746E+04  0.000E+00  0.000E+00  0.000E+00  3.94925E+01  1.175E-01  2.000E+01  2.000E+04 -5.327E-02
   1   10   26     2     5    5.1746E+04 -4.2525E+02   5.2172E+04  0.000E+00  0.000E+00  0.000E+00  3.92436E+01  1.186E-01  2.000E+01  2.000E+04 -2.126E-02
   1   11   25     2     6    5.2172E+04 -4.4291E+02   5.2615E+04  0.000E+00  0.000E+00  0.000E+00  3.89942E+01  1.192E-01  2.000E+01  2.000E+04 -2.215E-02
   1   12   24     2     7    5.2615E+04 -7.5603E+02   5.3371E+04  0.000E+00  0.000E+00  0.000E+00  3.87450E+01  1.200E-01  2.000E+01  2.000E+04 -3.780E-02
   1   13   23     2     8    5.3371E+04 -1.3961E+02   5.3510E+04  0.000E+00  0.000E+00  0.000E+00  3.84956E+01  1.206E-01  2.000E+01  2.000E+04 -6.981E-03
   1   14   22     2     9    5.3510E+04  1.9842E+03   5.1526E+04  0.000E+00  0.000E+00  0.000E+00  3.82443E+01  1.193E-01  2.000E+01  2.000E+04  9.921E-02
   1   14   22     3     1    1.6344E+05 -8.5176E+03   1.7195E+05  0.000E+00  0.000E+00  0.000E+00  3.77192E+01  1.637E-01  2.000E+01  2.000E+04 -4.259E-01
   1   15   23     3     2    1.7195E+05 -3.9492E+02   1.7235E+05  0.000E+00  0.000E+00  0.000E+00  3.68329E+01  1.663E-01  2.000E+01  2.000E+04 -1.975E-02
   1   15   24     3     3    1.7235E+05 -1.9646E+02   1.7255E+05  0.000E+00  0.000E+00  0.000E+00  3.59442E+01  1.665E-01  2.000E+01  2.000E+04 -9.823E-03
   1   15   25     3     4    1.7255E+05 -1.8428E+02   1.7273E+05  0.000E+00  0.000E+00  0.000E+00  3.50555E+01  1.666E-01  2.000E+01  2.000E+04 -9.214E-03
   1   15   26     3     5    1.7273E+05 -1.5898E+02   1.7289E+05  0.000E+00  0.000E+00  0.000E+00  3.41667E+01  1.667E-01  2.000E+01  2.000E+04 -7.949E-03
   1   16   27     3     6    1.7289E+05  7.9757E+01   1.7281E+05  0.000E+00  0.000E+00  0.000E+00  3.32778E+01  1.667E-01  2.000E+01  2.000E+04  3.988E-03
   1   17   28     3     7    1.7281E+05  5.6720E+03   1.6714E+05  0.000E+00  0.000E+00  0.000E+00  3.23872E+01  1.650E-01  2.000E+01  2.000E+04  2.836E-01
   1   18   29     3     8    1.6714E+05  5.5906E+03   1.6155E+05  0.000E+00  0.000E+00  0.000E+00  3.14950E+01  1.617E-01  2.000E+01  2.000E+04  2.795E-01
   1   18   30     3     9    1.6155E+05  1.7666E+03   1.5978E+05  0.000E+00  0.000E+00  0.000E+00  3.06040E+01  1.595E-01  2.000E+01  2.000E+04  8.833E-02



1
              HEAD IN LAYER   1 AT END OF TIME STEP   1 IN STRESS PERIOD    9
  ---------------------------------------------------------------------------

          1      2      3      4      5      6      7      8      9     10
         11     12     13     14     15     16     17     18     19     20
         21     22     23     24     25     26     27     28     29     30
 .........................................................................
   1  ****** ****** ****** ****** ****** ****** ****** ****** ****** ******
      ****** ****** ****** ****** ****** ****** ****** ****** ****** ******
      ****** ****** ****** ****** ****** ****** ****** ****** ****** ******
   2  ****** ****** ****** ****** ****** ****** ****** ****** ****** ******
      ****** ****** ****** ****** ****** ****** ****** ****** ****** ******
      ****** ****** ****** ****** ****** ****** ****** ****** ****** ******
   3  ****** ****** ****** ****** ****** ****** ****** ****** ****** ******
      ****** ****** ****** ****** ****** ****** ****** ****** ****** ******
      ****** ****** ****** ****** ****** ****** ****** ****** ****** ******
   4  ****** ****** ****** ****** ****** ****** ****** ****** ****** ******
      ****** ****** ****** ****** ****** ****** ****** ****** ****** ******
      ****** ****** ****** ****** ****** ****** ****** ****** ****** ******
   5  ****** ****** ****** ****** ****** ****** ****** ****** ****** ******
      ****** ****** ****** ****** ****** ****** ****** ****** ****** ******
      ****** ****** ****** ****** ****** ****** ****** ****** ****** ******
   6  ****** ****** ****** ****** ****** ****** ****** ****** ****** ******
      ****** ****** ****** ****** ****** ****** ****** ****** ****** ******
      ****** ****** ****** ****** ****** ****** ****** ****** ****** ******
   7  ****** ****** ****** ****** ****** ****** ****** ****** ****** ******
      ****** ****** ****** ****** ****** ****** ****** ****** ****** ******
      ****** ****** ****** ****** ****** ****** ****** ****** ****** ******
   8  ****** ****** ****** ****** ****** ****** ****** ****** ****** ******
      ****** ****** ****** ****** ****** ****** ****** ****** ****** ******
      ****** ****** ****** ****** ****** ****** ****** ****** ****** ******
   9  ****** ****** ****** ****** ****** ****** ****** ****** ****** ******
      ****** ****** ****** ****** ****** ****** ****** ****** ****** ******
      ****** ****** ****** ****** ****** ****** ****** ****** ****** ******
  10  ****** ****** ****** ****** ****** ****** ****** ****** ****** ******
      ****** ****** ****** ****** ****** ****** ****** ****** ****** ******
      ****** ****** ****** ****** ****** ****** ****** ****** ****** ******
  11  ****** ****** ****** ****** ****** ****** ****** ****** ****** ******
      ****** ****** ****** ****** ****** ****** ****** ****** ****** ******
      ****** ****** ****** ****** ****** ****** ****** ****** ****** ******
  12  ****** ****** ****** ****** ****** ****** ****** ****** ****** ******
      ****** ****** ****** ****** ****** ****** ****** ****** ****** ******
      ****** ****** ****** ****** ****** ****** ****** ****** ****** ******
  13  ****** ****** ****** ****** ****** ****** ****** ****** ****** ******
      ****** ****** ****** ****** ****** ****** ****** ****** ****** ******
      ****** ****** ****** ****** ****** ****** ****** ****** ****** ******
  14  ****** ****** ****** ****** ****** ****** ****** ****** ****** ******
      ****** ****** ****** ****** ****** ****** ****** ****** ****** ******
      ****** ****** ****** ****** ****** ****** ****** ****** ****** ******
  15  ****** ****** ****** ****** ****** ****** ****** ****** ****** ******
      ****** ****** ****** ****** ****** ****** ****** ****** ****** ******
      ****** ****** ****** ****** ****** ****** ****** ****** ****** ******
  16  ****** ****** ****** ****** ****** ****** ****** ****** ****** ******
      ****** ****** ****** ****** ****** ****** ****** ****** ****** ******
      ****** ****** ****** ****** ****** ****** ****** ****** ****** ******
  17  ****** ****** ****** ****** ****** ****** ****** ****** ****** ******
      ****** ****** ****** ****** ****** ****** ****** ****** ****** ******
      ****** ****** ****** ****** ****** ****** ****** ****** ****** ******
  18  ****** ****** ****** ****** ****** ****** ****** ****** ****** ******
      ****** ****** ****** ****** ****** ****** ****** ****** ****** ******
      ****** ****** ****** ****** ****** ****** ****** ****** ****** ******
  19  ****** ****** ****** ****** ****** ****** ****** ****** ****** ******
      ****** ****** ****** ****** ****** ****** ****** ****** ****** ******
      ****** ****** ****** ****** ****** ****** ****** ****** ****** ******
  20  ****** ****** ****** ****** ****** ****** ****** ****** ****** ******
      ****** ****** ****** ****** ****** ****** ****** ****** ****** ******
      ****** ****** ****** ****** ****** ****** ****** ****** ****** ******
  21  ****** ****** ****** ****** ****** ****** ****** ****** ****** ******
      ****** ****** ****** ****** ****** ****** ****** ****** ****** ******
      ****** ****** ****** ****** ****** ****** ****** ****** ****** ******
  22  ****** ****** ****** ****** ****** ****** ****** ****** ****** ******
      ****** ****** ****** ****** ****** ****** ****** ****** ****** ******
      ****** ****** ****** ****** ****** ****** ****** ****** ****** ******
  23  ****** ****** ****** ****** ****** ****** ****** ****** ****** ******
      ****** ****** ****** ****** ****** ****** ****** ****** ****** ******
      ****** ****** ****** ****** ****** ****** ****** ****** ****** ******
  24  ****** ****** ****** ****** ****** ****** ****** ****** ****** ******
      ****** ****** ****** ****** ****** ****** ****** ****** ****** ******
      ****** ****** ****** ****** ****** ****** ****** ****** ****** ******
  25  ****** ****** ****** ****** ****** ****** ****** ****** ****** ******
      ****** ****** ****** ****** ****** ****** ****** ****** ****** ******
      ****** ****** ****** ****** ****** ****** ****** ****** ****** ******

 HEAD WILL BE SAVED ON UNIT   51 AT END OF TIME STEP    1, STRESS PERIOD    9
1
  VOLUMETRIC BUDGET FOR ENTIRE MODEL AT END OF TIME STEP    1, STRESS PERIOD   9
  ------------------------------------------------------------------------------

     CUMULATIVE VOLUMES      L**3       RATES FOR THIS TIME STEP      L**3/T
     ------------------                 ------------------------

           IN:                                      IN:
           ---                                      ---
             STORAGE =    33734926.8187               STORAGE =        7128.2166
       CONSTANT HEAD =    22534013.4628         CONSTANT HEAD =       34357.8557
               WELLS =           0.0000                 WELLS =           0.0000
            RECHARGE =    18878400.0000              RECHARGE =       13800.0000
      STREAM LEAKAGE =    14469142.6276        STREAM LEAKAGE =       22562.8992

            TOTAL IN =    89616482.9092              TOTAL IN =       77848.9715

          OUT:                                     OUT:
          ----                                     ----
             STORAGE =      954041.8817               STORAGE =           0.0000
       CONSTANT HEAD =           0.0000         CONSTANT HEAD =           0.0000
               WELLS =    37405594.3712                 WELLS =       45505.5893
            RECHARGE =           0.0000              RECHARGE =           0.0000
      STREAM LEAKAGE =    51256848.4624        STREAM LEAKAGE =       32343.3830

           TOTAL OUT =    89616484.7153             TOTAL OUT =       77848.9723

            IN - OUT =          -1.8061              IN - OUT =      -7.5053E-04

 PERCENT DISCREPANCY =          -0.00     PERCENT DISCREPANCY =          -0.00






         TIME SUMMARY AT END OF TIME STEP    1 IN STRESS PERIOD    9
                    SECONDS     MINUTES      HOURS       DAYS        YEARS
                    -----------------------------------------------------------
   TIME STEP LENGTH 7.94880E+06 1.32480E+05  2208.0      92.000     0.25188    
 STRESS PERIOD TIME 7.94880E+06 1.32480E+05  2208.0      92.000     0.25188    
         TOTAL TIME 7.10208E+07 1.18368E+06  19728.      822.00      2.2505    
1
1
                            STRESS PERIOD NO.   10, LENGTH =   91.00000    
                            -----------------------------------------------

                              NUMBER OF TIME STEPS =     1

                               MULTIPLIER FOR DELT =     1.500

                            INITIAL TIME STEP SIZE =   91.00000    

 WELL NO.  LAYER   ROW   COL   STRESS RATE         
 --------------------------------------------------
      1      1     14      6       0.000    
      2      1      3      9       0.000    
      3      1     20     10       0.000    
      4      1     14     20       0.000    
      5      1     20     29      -8734.    
      6      1     15     15     -0.1244E+05
      7      1     17     29     -0.1509E+05
      8      1      6     23      -9237.    

      8 WELLS

                 RECHARGE =  2.000000E-03

 REUSING STREAM SEGMENT DATA FROM LAST STRESS PERIOD
 
 SOLVING FOR HEAD 


     7 CALLS TO PCG ROUTINE FOR TIME STEP   1 IN STRESS PERIOD   10
    26 TOTAL ITERATIONS

 OUTPUT CONTROL FOR STRESS PERIOD   10   TIME STEP    1
    SAVE BUDGET
    SAVE HEAD FOR ALL LAYERS
    PRINT HEAD FOR ALL LAYERS
 UBDSV2 SAVING "STREAMFLOW OUT  " ON UNIT  50 AT TIME STEP  1, STRESS PERIOD  10



 STREAM LISTING     PERIOD     10   STEP        1

 LAYER ROW COL. STREAM  RCH.  FLOW INTO     FLOW TO   FLOW OUT OF   OVRLND.     DIRECT     STREAM       STREAM     STREAM     STREAM   STREAMBED  STREAMBED
                SEG.NO.  NO.  STRM. RCH.    AQUIFER    STRM. RCH.    RUNOFF     PRECIP       ET          HEAD       DEPTH      WIDTH   CONDCTNC.   GRADIENT

   1   13    1     1     1    1.0000E+05 -2.1041E+03   1.0210E+05  0.000E+00  0.000E+00  0.000E+00  4.84069E+01  1.456E-01  2.000E+01  2.000E+04 -1.052E-01
   1   13    2     1     2    1.0210E+05 -3.0974E+03   1.0520E+05  0.000E+00  0.000E+00  0.000E+00  4.79319E+01  1.478E-01  2.000E+01  2.000E+04 -1.549E-01
   1   14    3     1     3    1.0520E+05 -5.9163E+02   1.0579E+05  0.000E+00  0.000E+00  0.000E+00  4.74562E+01  1.494E-01  2.000E+01  2.000E+04 -2.958E-02
   1   15    4     1     4    1.0579E+05 -5.7323E+02   1.0637E+05  0.000E+00  0.000E+00  0.000E+00  4.69794E+01  1.499E-01  2.000E+01  2.000E+04 -2.866E-02
   1   16    5     1     5    1.0637E+05 -2.0392E+03   1.0841E+05  0.000E+00  0.000E+00  0.000E+00  4.65032E+01  1.510E-01  2.000E+01  2.000E+04 -1.020E-01
   1   16    6     1     6    1.0841E+05 -1.2669E+03   1.0967E+05  0.000E+00  0.000E+00  0.000E+00  4.60274E+01  1.524E-01  2.000E+01  2.000E+04 -6.334E-02
   1   16    7     1     7    1.0967E+05 -1.2284E+03   1.1090E+05  0.000E+00  0.000E+00  0.000E+00  4.55511E+01  1.534E-01  2.000E+01  2.000E+04 -6.142E-02
   1   16    8     1     8    1.1090E+05 -1.2078E+03   1.1211E+05  0.000E+00  0.000E+00  0.000E+00  4.50749E+01  1.544E-01  2.000E+01  2.000E+04 -6.039E-02
   1   16    9     1     9    1.1211E+05 -1.1783E+03   1.1329E+05  0.000E+00  0.000E+00  0.000E+00  4.45986E+01  1.554E-01  2.000E+01  2.000E+04 -5.891E-02
   1   16   10     1    10    1.1329E+05 -1.1304E+03   1.1442E+05  0.000E+00  0.000E+00  0.000E+00  4.41223E+01  1.564E-01  2.000E+01  2.000E+04 -5.652E-02
   1   16   11     1    11    1.1442E+05 -1.0541E+03   1.1547E+05  0.000E+00  0.000E+00  0.000E+00  4.36459E+01  1.573E-01  2.000E+01  2.000E+04 -5.270E-02
   1   16   12     1    12    1.1547E+05 -1.2439E+03   1.1672E+05  0.000E+00  0.000E+00  0.000E+00  4.31696E+01  1.582E-01  2.000E+01  2.000E+04 -6.219E-02
   1   15   13     1    13    1.1672E+05  1.6110E+02   1.1655E+05  0.000E+00  0.000E+00  0.000E+00  4.26927E+01  1.586E-01  2.000E+01  2.000E+04  8.055E-03
   1   14   14     1    14    1.1655E+05  9.5806E+02   1.1560E+05  0.000E+00  0.000E+00  0.000E+00  4.22150E+01  1.582E-01  2.000E+01  2.000E+04  4.790E-02
   1   13   15     1    15    1.1560E+05 -4.3905E+02   1.1604E+05  0.000E+00  0.000E+00  0.000E+00  4.17375E+01  1.580E-01  2.000E+01  2.000E+04 -2.195E-02
   1   12   16     1    16    1.1604E+05 -2.4940E+03   1.1853E+05  0.000E+00  0.000E+00  0.000E+00  4.12614E+01  1.592E-01  2.000E+01  2.000E+04 -1.247E-01
   1   12   17     1    17    1.1853E+05 -1.4976E+03   1.2003E+05  0.000E+00  0.000E+00  0.000E+00  4.07858E+01  1.608E-01  2.000E+01  2.000E+04 -7.488E-02
   1   12   18     1    18    1.2003E+05 -1.4819E+03   1.2151E+05  0.000E+00  0.000E+00  0.000E+00  4.03097E+01  1.620E-01  2.000E+01  2.000E+04 -7.409E-02
   1   12   19     1    19    1.2151E+05 -1.9887E+03   1.2350E+05  0.000E+00  0.000E+00  0.000E+00  3.98338E+01  1.634E-01  2.000E+01  2.000E+04 -9.944E-02
   1   13   20     1    20    1.2350E+05 -1.4322E+03   1.2493E+05  0.000E+00  0.000E+00  0.000E+00  3.93579E+01  1.648E-01  2.000E+01  2.000E+04 -7.161E-02
   1   14   21     1    21    1.2493E+05 -1.3278E+03   1.2626E+05  0.000E+00  0.000E+00  0.000E+00  3.88818E+01  1.658E-01  2.000E+01  2.000E+04 -6.639E-02
   1   14   22     1    22    1.2626E+05  4.8801E+03   1.2138E+05  0.000E+00  0.000E+00  0.000E+00  3.84031E+01  1.644E-01  2.000E+01  2.000E+04  2.440E-01
   1    9   30     2     1    5.0000E+04 -3.9734E+02   5.0397E+04  0.000E+00  0.000E+00  0.000E+00  4.02411E+01  1.161E-01  2.000E+01  2.000E+04 -1.987E-02
   1    9   29     2     2    5.0397E+04 -6.7014E+02   5.1067E+04  0.000E+00  0.000E+00  0.000E+00  3.99919E+01  1.169E-01  2.000E+01  2.000E+04 -3.351E-02
   1    9   28     2     3    5.1067E+04 -8.5110E+02   5.1919E+04  0.000E+00  0.000E+00  0.000E+00  3.97429E+01  1.179E-01  2.000E+01  2.000E+04 -4.256E-02
   1    9   27     2     4    5.1919E+04 -1.6187E+03   5.3537E+04  0.000E+00  0.000E+00  0.000E+00  3.94946E+01  1.196E-01  2.000E+01  2.000E+04 -8.093E-02
   1   10   26     2     5    5.3537E+04 -9.7847E+02   5.4516E+04  0.000E+00  0.000E+00  0.000E+00  3.92464E+01  1.214E-01  2.000E+01  2.000E+04 -4.892E-02
   1   11   25     2     6    5.4516E+04 -9.7162E+02   5.5487E+04  0.000E+00  0.000E+00  0.000E+00  3.89977E+01  1.227E-01  2.000E+01  2.000E+04 -4.858E-02
   1   12   24     2     7    5.5487E+04 -1.2346E+03   5.6722E+04  0.000E+00  0.000E+00  0.000E+00  3.87492E+01  1.242E-01  2.000E+01  2.000E+04 -6.173E-02
   1   13   23     2     8    5.6722E+04 -2.8836E+02   5.7010E+04  0.000E+00  0.000E+00  0.000E+00  3.85002E+01  1.252E-01  2.000E+01  2.000E+04 -1.442E-02
   1   14   22     2     9    5.7010E+04  1.8019E+03   5.5208E+04  0.000E+00  0.000E+00  0.000E+00  3.82492E+01  1.242E-01  2.000E+01  2.000E+04  9.010E-02
   1   14   22     3     1    1.7659E+05 -8.6441E+03   1.8523E+05  0.000E+00  0.000E+00  0.000E+00  3.77269E+01  1.713E-01  2.000E+01  2.000E+04 -4.322E-01
   1   15   23     3     2    1.8523E+05 -5.5737E+02   1.8579E+05  0.000E+00  0.000E+00  0.000E+00  3.68406E+01  1.739E-01  2.000E+01  2.000E+04 -2.787E-02
   1   15   24     3     3    1.8579E+05 -3.3358E+02   1.8612E+05  0.000E+00  0.000E+00  0.000E+00  3.59519E+01  1.742E-01  2.000E+01  2.000E+04 -1.668E-02
   1   15   25     3     4    1.8612E+05 -3.2481E+02   1.8645E+05  0.000E+00  0.000E+00  0.000E+00  3.50632E+01  1.743E-01  2.000E+01  2.000E+04 -1.624E-02
   1   15   26     3     5    1.8645E+05 -3.2120E+02   1.8677E+05  0.000E+00  0.000E+00  0.000E+00  3.41745E+01  1.745E-01  2.000E+01  2.000E+04 -1.606E-02
   1   16   27     3     6    1.8677E+05 -1.0605E+02   1.8687E+05  0.000E+00  0.000E+00  0.000E+00  3.32858E+01  1.746E-01  2.000E+01  2.000E+04 -5.302E-03
   1   17   28     3     7    1.8687E+05  5.1515E+03   1.8172E+05  0.000E+00  0.000E+00  0.000E+00  3.23954E+01  1.732E-01  2.000E+01  2.000E+04  2.576E-01
   1   18   29     3     8    1.8172E+05  5.0397E+03   1.7668E+05  0.000E+00  0.000E+00  0.000E+00  3.15037E+01  1.703E-01  2.000E+01  2.000E+04  2.520E-01
   1   18   30     3     9    1.7668E+05  1.3417E+03   1.7534E+05  0.000E+00  0.000E+00  0.000E+00  3.06130E+01  1.685E-01  2.000E+01  2.000E+04  6.708E-02



1
              HEAD IN LAYER   1 AT END OF TIME STEP   1 IN STRESS PERIOD   10
  ---------------------------------------------------------------------------

          1      2      3      4      5      6      7      8      9     10
         11     12     13     14     15     16     17     18     19     20
         21     22     23     24     25     26     27     28     29     30
 .........................................................................
   1  ****** ****** ****** ****** ****** ****** ****** ****** ****** ******
      ****** ****** ****** ****** ****** ****** ****** ****** ****** ******
      ****** ****** ****** ****** ****** ****** ****** ****** ****** ******
   2  ****** ****** ****** ****** ****** ****** ****** ****** ****** ******
      ****** ****** ****** ****** ****** ****** ****** ****** ****** ******
      ****** ****** ****** ****** ****** ****** ****** ****** ****** ******
   3  ****** ****** ****** ****** ****** ****** ****** ****** ****** ******
      ****** ****** ****** ****** ****** ****** ****** ****** ****** ******
      ****** ****** ****** ****** ****** ****** ****** ****** ****** ******
   4  ****** ****** ****** ****** ****** ****** ****** ****** ****** ******
      ****** ****** ****** ****** ****** ****** ****** ****** ****** ******
      ****** ****** ****** ****** ****** ****** ****** ****** ****** ******
   5  ****** ****** ****** ****** ****** ****** ****** ****** ****** ******
      ****** ****** ****** ****** ****** ****** ****** ****** ****** ******
      ****** ****** ****** ****** ****** ****** ****** ****** ****** ******
   6  ****** ****** ****** ****** ****** ****** ****** ****** ****** ******
      ****** ****** ****** ****** ****** ****** ****** ****** ****** ******
      ****** ****** ****** ****** ****** ****** ****** ****** ****** ******
   7  ****** ****** ****** ****** ****** ****** ****** ****** ****** ******
      ****** ****** ****** ****** ****** ****** ****** ****** ****** ******
      ****** ****** ****** ****** ****** ****** ****** ****** ****** ******
   8  ****** ****** ****** ****** ****** ****** ****** ****** ****** ******
      ****** ****** ****** ****** ****** ****** ****** ****** ****** ******
      ****** ****** ****** ****** ****** ****** ****** ****** ****** ******
   9  ****** ****** ****** ****** ****** ****** ****** ****** ****** ******
      ****** ****** ****** ****** ****** ****** ****** ****** ****** ******
      ****** ****** ****** ****** ****** ****** ****** ****** ****** ******
  10  ****** ****** ****** ****** ****** ****** ****** ****** ****** ******
      ****** ****** ****** ****** ****** ****** ****** ****** ****** ******
      ****** ****** ****** ****** ****** ****** ****** ****** ****** ******
  11  ****** ****** ****** ****** ****** ****** ****** ****** ****** ******
      ****** ****** ****** ****** ****** ****** ****** ****** ****** ******
      ****** ****** ****** ****** ****** ****** ****** ****** ****** ******
  12  ****** ****** ****** ****** ****** ****** ****** ****** ****** ******
      ****** ****** ****** ****** ****** ****** ****** ****** ****** ******
      ****** ****** ****** ****** ****** ****** ****** ****** ****** ******
  13  ****** ****** ****** ****** ****** ****** ****** ****** ****** ******
      ****** ****** ****** ****** ****** ****** ****** ****** ****** ******
      ****** ****** ****** ****** ****** ****** ****** ****** ****** ******
  14  ****** ****** ****** ****** ****** ****** ****** ****** ****** ******
      ****** ****** ****** ****** ****** ****** ****** ****** ****** ******
      ****** ****** ****** ****** ****** ****** ****** ****** ****** ******
  15  ****** ****** ****** ****** ****** ****** ****** ****** ****** ******
      ****** ****** ****** ****** ****** ****** ****** ****** ****** ******
      ****** ****** ****** ****** ****** ****** ****** ****** ****** ******
  16  ****** ****** ****** ****** ****** ****** ****** ****** ****** ******
      ****** ****** ****** ****** ****** ****** ****** ****** ****** ******
      ****** ****** ****** ****** ****** ****** ****** ****** ****** ******
  17  ****** ****** ****** ****** ****** ****** ****** ****** ****** ******
      ****** ****** ****** ****** ****** ****** ****** ****** ****** ******
      ****** ****** ****** ****** ****** ****** ****** ****** ****** ******
  18  ****** ****** ****** ****** ****** ****** ****** ****** ****** ******
      ****** ****** ****** ****** ****** ****** ****** ****** ****** ******
      ****** ****** ****** ****** ****** ****** ****** ****** ****** ******
  19  ****** ****** ****** ****** ****** ****** ****** ****** ****** ******
      ****** ****** ****** ****** ****** ****** ****** ****** ****** ******
      ****** ****** ****** ****** ****** ****** ****** ****** ****** ******
  20  ****** ****** ****** ****** ****** ****** ****** ****** ****** ******
      ****** ****** ****** ****** ****** ****** ****** ****** ****** ******
      ****** ****** ****** ****** ****** ****** ****** ****** ****** ******
  21  ****** ****** ****** ****** ****** ****** ****** ****** ****** ******
      ****** ****** ****** ****** ****** ****** ****** ****** ****** ******
      ****** ****** ****** ****** ****** ****** ****** ****** ****** ******
  22  ****** ****** ****** ****** ****** ****** ****** ****** ****** ******
      ****** ****** ****** ****** ****** ****** ****** ****** ****** ******
      ****** ****** ****** ****** ****** ****** ****** ****** ****** ******
  23  ****** ****** ****** ****** ****** ****** ****** ****** ****** ******
      ****** ****** ****** ****** ****** ****** ****** ****** ****** ******
      ****** ****** ****** ****** ****** ****** ****** ****** ****** ******
  24  ****** ****** ****** ****** ****** ****** ****** ****** ****** ******
      ****** ****** ****** ****** ****** ****** ****** ****** ****** ******
      ****** ****** ****** ****** ****** ****** ****** ****** ****** ******
  25  ****** ****** ****** ****** ****** ****** ****** ****** ****** ******
      ****** ****** ****** ****** ****** ****** ****** ****** ****** ******
      ****** ****** ****** ****** ****** ****** ****** ****** ****** ******

 HEAD WILL BE SAVED ON UNIT   51 AT END OF TIME STEP    1, STRESS PERIOD   10
1
  VOLUMETRIC BUDGET FOR ENTIRE MODEL AT END OF TIME STEP    1, STRESS PERIOD  10
  ------------------------------------------------------------------------------

     CUMULATIVE VOLUMES      L**3       RATES FOR THIS TIME STEP      L**3/T
     ------------------                 ------------------------

           IN:                                      IN:
           ---                                      ---
             STORAGE =    33734926.8187               STORAGE =           0.0000
       CONSTANT HEAD =    25391281.7033         CONSTANT HEAD =       31398.5521
               WELLS =           0.0000                 WELLS =           0.0000
            RECHARGE =    23901600.0000              RECHARGE =       55200.0000
      STREAM LEAKAGE =    16228543.1539        STREAM LEAKAGE =       19334.0717

            TOTAL IN =    99256351.6760              TOTAL IN =      105932.6238

          OUT:                                     OUT:
          ----                                     ----
             STORAGE =     2387582.6546               STORAGE =       15753.1953
       CONSTANT HEAD =           0.0000         CONSTANT HEAD =           0.0000
               WELLS =    41546602.9938                 WELLS =       45505.5893
            RECHARGE =           0.0000              RECHARGE =           0.0000
      STREAM LEAKAGE =    55322167.4838        STREAM LEAKAGE =       44673.8354

           TOTAL OUT =    99256353.1322             TOTAL OUT =      105932.6200

            IN - OUT =          -1.4562              IN - OUT =       3.8447E-03

 PERCENT DISCREPANCY =          -0.00     PERCENT DISCREPANCY =           0.00






         TIME SUMMARY AT END OF TIME STEP    1 IN STRESS PERIOD   10
                    SECONDS     MINUTES      HOURS       DAYS        YEARS
                    -----------------------------------------------------------
   TIME STEP LENGTH 7.86240E+06 1.31040E+05  2184.0      91.000     0.24914    
 STRESS PERIOD TIME 7.86240E+06 1.31040E+05  2184.0      91.000     0.24914    
         TOTAL TIME 7.88832E+07 1.31472E+06  21912.      913.00      2.4997    
1
1
                            STRESS PERIOD NO.   11, LENGTH =   91.00000    
                            -----------------------------------------------

                              NUMBER OF TIME STEPS =     1

                               MULTIPLIER FOR DELT =     1.500

                            INITIAL TIME STEP SIZE =   91.00000    

 WELL NO.  LAYER   ROW   COL   STRESS RATE         
 --------------------------------------------------
      1      1     14      6       0.000    
      2      1      3      9       0.000    
      3      1     20     10       0.000    
      4      1     14     20       0.000    
      5      1     20     29      -8734.    
      6      1     15     15     -0.1244E+05
      7      1     17     29     -0.1509E+05
      8      1      6     23      -9237.    

      8 WELLS

                 RECHARGE =   0.00000    

 REUSING STREAM SEGMENT DATA FROM LAST STRESS PERIOD
 
 SOLVING FOR HEAD 


     7 CALLS TO PCG ROUTINE FOR TIME STEP   1 IN STRESS PERIOD   11
    26 TOTAL ITERATIONS

 OUTPUT CONTROL FOR STRESS PERIOD   11   TIME STEP    1
    SAVE BUDGET
    SAVE HEAD FOR ALL LAYERS
    PRINT HEAD FOR ALL LAYERS
 UBDSV2 SAVING "STREAMFLOW OUT  " ON UNIT  50 AT TIME STEP  1, STRESS PERIOD  11



 STREAM LISTING     PERIOD     11   STEP        1

 LAYER ROW COL. STREAM  RCH.  FLOW INTO     FLOW TO   FLOW OUT OF   OVRLND.     DIRECT     STREAM       STREAM     STREAM     STREAM   STREAMBED  STREAMBED
                SEG.NO.  NO.  STRM. RCH.    AQUIFER    STRM. RCH.    RUNOFF     PRECIP       ET          HEAD       DEPTH      WIDTH   CONDCTNC.   GRADIENT

   1   13    1     1     1    1.0000E+05 -1.5377E+03   1.0154E+05  0.000E+00  0.000E+00  0.000E+00  4.84067E+01  1.453E-01  2.000E+01  2.000E+04 -7.689E-02
   1   13    2     1     2    1.0154E+05 -2.4668E+03   1.0400E+05  0.000E+00  0.000E+00  0.000E+00  4.79311E+01  1.470E-01  2.000E+01  2.000E+04 -1.233E-01
   1   14    3     1     3    1.0400E+05 -3.6099E+02   1.0437E+05  0.000E+00  0.000E+00  0.000E+00  4.74551E+01  1.483E-01  2.000E+01  2.000E+04 -1.805E-02
   1   15    4     1     4    1.0437E+05 -3.3154E+02   1.0470E+05  0.000E+00  0.000E+00  0.000E+00  4.69781E+01  1.485E-01  2.000E+01  2.000E+04 -1.658E-02
   1   16    5     1     5    1.0470E+05 -1.3515E+03   1.0605E+05  0.000E+00  0.000E+00  0.000E+00  4.65015E+01  1.493E-01  2.000E+01  2.000E+04 -6.758E-02
   1   16    6     1     6    1.0605E+05 -8.5277E+02   1.0690E+05  0.000E+00  0.000E+00  0.000E+00  4.60252E+01  1.502E-01  2.000E+01  2.000E+04 -4.264E-02
   1   16    7     1     7    1.0690E+05 -8.3195E+02   1.0773E+05  0.000E+00  0.000E+00  0.000E+00  4.55486E+01  1.509E-01  2.000E+01  2.000E+04 -4.160E-02
   1   16    8     1     8    1.0773E+05 -8.1681E+02   1.0855E+05  0.000E+00  0.000E+00  0.000E+00  4.50721E+01  1.516E-01  2.000E+01  2.000E+04 -4.084E-02
   1   16    9     1     9    1.0855E+05 -7.8951E+02   1.0934E+05  0.000E+00  0.000E+00  0.000E+00  4.45955E+01  1.523E-01  2.000E+01  2.000E+04 -3.948E-02
   1   16   10     1    10    1.0934E+05 -7.4264E+02   1.1008E+05  0.000E+00  0.000E+00  0.000E+00  4.41188E+01  1.529E-01  2.000E+01  2.000E+04 -3.713E-02
   1   16   11     1    11    1.1008E+05 -6.6445E+02   1.1075E+05  0.000E+00  0.000E+00  0.000E+00  4.36421E+01  1.535E-01  2.000E+01  2.000E+04 -3.322E-02
   1   16   12     1    12    1.1075E+05 -5.9828E+02   1.1135E+05  0.000E+00  0.000E+00  0.000E+00  4.31654E+01  1.540E-01  2.000E+01  2.000E+04 -2.991E-02
   1   15   13     1    13    1.1135E+05  8.4923E+02   1.1050E+05  0.000E+00  0.000E+00  0.000E+00  4.26880E+01  1.539E-01  2.000E+01  2.000E+04  4.246E-02
   1   14   14     1    14    1.1050E+05  1.6637E+03   1.0883E+05  0.000E+00  0.000E+00  0.000E+00  4.22097E+01  1.529E-01  2.000E+01  2.000E+04  8.318E-02
   1   13   15     1    15    1.0883E+05  2.6077E+02   1.0857E+05  0.000E+00  0.000E+00  0.000E+00  4.17316E+01  1.521E-01  2.000E+01  2.000E+04  1.304E-02
   1   12   16     1    16    1.0857E+05 -1.8180E+03   1.1039E+05  0.000E+00  0.000E+00  0.000E+00  4.12550E+01  1.527E-01  2.000E+01  2.000E+04 -9.090E-02
   1   12   17     1    17    1.1039E+05 -9.9144E+02   1.1138E+05  0.000E+00  0.000E+00  0.000E+00  4.07789E+01  1.539E-01  2.000E+01  2.000E+04 -4.957E-02
   1   12   18     1    18    1.1138E+05 -9.8331E+02   1.1236E+05  0.000E+00  0.000E+00  0.000E+00  4.03025E+01  1.547E-01  2.000E+01  2.000E+04 -4.917E-02
   1   12   19     1    19    1.1236E+05 -1.3767E+03   1.1374E+05  0.000E+00  0.000E+00  0.000E+00  3.98262E+01  1.557E-01  2.000E+01  2.000E+04 -6.883E-02
   1   13   20     1    20    1.1374E+05 -8.2014E+02   1.1456E+05  0.000E+00  0.000E+00  0.000E+00  3.93498E+01  1.566E-01  2.000E+01  2.000E+04 -4.101E-02
   1   14   21     1    21    1.1456E+05 -7.3087E+02   1.1529E+05  0.000E+00  0.000E+00  0.000E+00  3.88732E+01  1.572E-01  2.000E+01  2.000E+04 -3.654E-02
   1   14   22     1    22    1.1529E+05  5.0265E+03   1.1027E+05  0.000E+00  0.000E+00  0.000E+00  3.83941E+01  1.555E-01  2.000E+01  2.000E+04  2.513E-01
   1    9   30     2     1    5.0000E+04  9.0613E+01   4.9909E+04  0.000E+00  0.000E+00  0.000E+00  4.02408E+01  1.158E-01  2.000E+01  2.000E+04  4.531E-03
   1    9   29     2     2    4.9909E+04 -1.8526E+02   5.0095E+04  0.000E+00  0.000E+00  0.000E+00  3.99909E+01  1.159E-01  2.000E+01  2.000E+04 -9.263E-03
   1    9   28     2     3    5.0095E+04 -3.6843E+02   5.0463E+04  0.000E+00  0.000E+00  0.000E+00  3.97413E+01  1.163E-01  2.000E+01  2.000E+04 -1.842E-02
   1    9   27     2     4    5.0463E+04 -9.7925E+02   5.1442E+04  0.000E+00  0.000E+00  0.000E+00  3.94922E+01  1.172E-01  2.000E+01  2.000E+04 -4.896E-02
   1   10   26     2     5    5.1442E+04 -3.2461E+02   5.1767E+04  0.000E+00  0.000E+00  0.000E+00  3.92431E+01  1.181E-01  2.000E+01  2.000E+04 -1.623E-02
   1   11   25     2     6    5.1767E+04 -3.4158E+02   5.2109E+04  0.000E+00  0.000E+00  0.000E+00  3.89935E+01  1.185E-01  2.000E+01  2.000E+04 -1.708E-02
   1   12   24     2     7    5.2109E+04 -6.6155E+02   5.2770E+04  0.000E+00  0.000E+00  0.000E+00  3.87442E+01  1.192E-01  2.000E+01  2.000E+04 -3.308E-02
   1   13   23     2     8    5.2770E+04 -1.0255E+02   5.2873E+04  0.000E+00  0.000E+00  0.000E+00  3.84947E+01  1.197E-01  2.000E+01  2.000E+04 -5.128E-03
   1   14   22     2     9    5.2873E+04  2.0131E+03   5.0860E+04  0.000E+00  0.000E+00  0.000E+00  3.82434E+01  1.184E-01  2.000E+01  2.000E+04  1.007E-01
   1   14   22     3     1    1.6112E+05 -8.4982E+03   1.6962E+05  0.000E+00  0.000E+00  0.000E+00  3.77179E+01  1.623E-01  2.000E+01  2.000E+04 -4.249E-01
   1   15   23     3     2    1.6962E+05 -3.6530E+02   1.6999E+05  0.000E+00  0.000E+00  0.000E+00  3.68316E+01  1.649E-01  2.000E+01  2.000E+04 -1.827E-02
   1   15   24     3     3    1.6999E+05 -1.6844E+02   1.7016E+05  0.000E+00  0.000E+00  0.000E+00  3.59429E+01  1.651E-01  2.000E+01  2.000E+04 -8.422E-03
   1   15   25     3     4    1.7016E+05 -1.5584E+02   1.7031E+05  0.000E+00  0.000E+00  0.000E+00  3.50541E+01  1.652E-01  2.000E+01  2.000E+04 -7.792E-03
   1   15   26     3     5    1.7031E+05 -1.2549E+02   1.7044E+05  0.000E+00  0.000E+00  0.000E+00  3.41653E+01  1.653E-01  2.000E+01  2.000E+04 -6.275E-03
   1   16   27     3     6    1.7044E+05  1.1699E+02   1.7032E+05  0.000E+00  0.000E+00  0.000E+00  3.32764E+01  1.653E-01  2.000E+01  2.000E+04  5.850E-03
   1   17   28     3     7    1.7032E+05  5.7613E+03   1.6456E+05  0.000E+00  0.000E+00  0.000E+00  3.23858E+01  1.635E-01  2.000E+01  2.000E+04  2.881E-01
   1   18   29     3     8    1.6456E+05  5.6617E+03   1.5890E+05  0.000E+00  0.000E+00  0.000E+00  3.14935E+01  1.602E-01  2.000E+01  2.000E+04  2.831E-01
   1   18   30     3     9    1.5890E+05  1.8307E+03   1.5707E+05  0.000E+00  0.000E+00  0.000E+00  3.06024E+01  1.579E-01  2.000E+01  2.000E+04  9.154E-02



1
              HEAD IN LAYER   1 AT END OF TIME STEP   1 IN STRESS PERIOD   11
  ---------------------------------------------------------------------------

          1      2      3      4      5      6      7      8      9     10
         11     12     13     14     15     16     17     18     19     20
         21     22     23     24     25     26     27     28     29     30
 .........................................................................
   1  ****** ****** ****** ****** ****** ****** ****** ****** ****** ******
      ****** ****** ****** ****** ****** ****** ****** ****** ****** ******
      ****** ****** ****** ****** ****** ****** ****** ****** ****** ******
   2  ****** ****** ****** ****** ****** ****** ****** ****** ****** ******
      ****** ****** ****** ****** ****** ****** ****** ****** ****** ******
      ****** ****** ****** ****** ****** ****** ****** ****** ****** ******
   3  ****** ****** ****** ****** ****** ****** ****** ****** ****** ******
      ****** ****** ****** ****** ****** ****** ****** ****** ****** ******
      ****** ****** ****** ****** ****** ****** ****** ****** ****** ******
   4  ****** ****** ****** ****** ****** ****** ****** ****** ****** ******
      ****** ****** ****** ****** ****** ****** ****** ****** ****** ******
      ****** ****** ****** ****** ****** ****** ****** ****** ****** ******
   5  ****** ****** ****** ****** ****** ****** ****** ****** ****** ******
      ****** ****** ****** ****** ****** ****** ****** ****** ****** ******
      ****** ****** ****** ****** ****** ****** ****** ****** ****** ******
   6  ****** ****** ****** ****** ****** ****** ****** ****** ****** ******
      ****** ****** ****** ****** ****** ****** ****** ****** ****** ******
      ****** ****** ****** ****** ****** ****** ****** ****** ****** ******
   7  ****** ****** ****** ****** ****** ****** ****** ****** ****** ******
      ****** ****** ****** ****** ****** ****** ****** ****** ****** ******
      ****** ****** ****** ****** ****** ****** ****** ****** ****** ******
   8  ****** ****** ****** ****** ****** ****** ****** ****** ****** ******
      ****** ****** ****** ****** ****** ****** ****** ****** ****** ******
      ****** ****** ****** ****** ****** ****** ****** ****** ****** ******
   9  ****** ****** ****** ****** ****** ****** ****** ****** ****** ******
      ****** ****** ****** ****** ****** ****** ****** ****** ****** ******
      ****** ****** ****** ****** ****** ****** ****** ****** ****** ******
  10  ****** ****** ****** ****** ****** ****** ****** ****** ****** ******
      ****** ****** ****** ****** ****** ****** ****** ****** ****** ******
      ****** ****** ****** ****** ****** ****** ****** ****** ****** ******
  11  ****** ****** ****** ****** ****** ****** ****** ****** ****** ******
      ****** ****** ****** ****** ****** ****** ****** ****** ****** ******
      ****** ****** ****** ****** ****** ****** ****** ****** ****** ******
  12  ****** ****** ****** ****** ****** ****** ****** ****** ****** ******
      ****** ****** ****** ****** ****** ****** ****** ****** ****** ******
      ****** ****** ****** ****** ****** ****** ****** ****** ****** ******
  13  ****** ****** ****** ****** ****** ****** ****** ****** ****** ******
      ****** ****** ****** ****** ****** ****** ****** ****** ****** ******
      ****** ****** ****** ****** ****** ****** ****** ****** ****** ******
  14  ****** ****** ****** ****** ****** ****** ****** ****** ****** ******
      ****** ****** ****** ****** ****** ****** ****** ****** ****** ******
      ****** ****** ****** ****** ****** ****** ****** ****** ****** ******
  15  ****** ****** ****** ****** ****** ****** ****** ****** ****** ******
      ****** ****** ****** ****** ****** ****** ****** ****** ****** ******
      ****** ****** ****** ****** ****** ****** ****** ****** ****** ******
  16  ****** ****** ****** ****** ****** ****** ****** ****** ****** ******
      ****** ****** ****** ****** ****** ****** ****** ****** ****** ******
      ****** ****** ****** ****** ****** ****** ****** ****** ****** ******
  17  ****** ****** ****** ****** ****** ****** ****** ****** ****** ******
      ****** ****** ****** ****** ****** ****** ****** ****** ****** ******
      ****** ****** ****** ****** ****** ****** ****** ****** ****** ******
  18  ****** ****** ****** ****** ****** ****** ****** ****** ****** ******
      ****** ****** ****** ****** ****** ****** ****** ****** ****** ******
      ****** ****** ****** ****** ****** ****** ****** ****** ****** ******
  19  ****** ****** ****** ****** ****** ****** ****** ****** ****** ******
      ****** ****** ****** ****** ****** ****** ****** ****** ****** ******
      ****** ****** ****** ****** ****** ****** ****** ****** ****** ******
  20  ****** ****** ****** ****** ****** ****** ****** ****** ****** ******
      ****** ****** ****** ****** ****** ****** ****** ****** ****** ******
      ****** ****** ****** ****** ****** ****** ****** ****** ****** ******
  21  ****** ****** ****** ****** ****** ****** ****** ****** ****** ******
      ****** ****** ****** ****** ****** ****** ****** ****** ****** ******
      ****** ****** ****** ****** ****** ****** ****** ****** ****** ******
  22  ****** ****** ****** ****** ****** ****** ****** ****** ****** ******
      ****** ****** ****** ****** ****** ****** ****** ****** ****** ******
      ****** ****** ****** ****** ****** ****** ****** ****** ****** ******
  23  ****** ****** ****** ****** ****** ****** ****** ****** ****** ******
      ****** ****** ****** ****** ****** ****** ****** ****** ****** ******
      ****** ****** ****** ****** ****** ****** ****** ****** ****** ******
  24  ****** ****** ****** ****** ****** ****** ****** ****** ****** ******
      ****** ****** ****** ****** ****** ****** ****** ****** ****** ******
      ****** ****** ****** ****** ****** ****** ****** ****** ****** ******
  25  ****** ****** ****** ****** ****** ****** ****** ****** ****** ******
      ****** ****** ****** ****** ****** ****** ****** ****** ****** ******
      ****** ****** ****** ****** ****** ****** ****** ****** ****** ******

 HEAD WILL BE SAVED ON UNIT   51 AT END OF TIME STEP    1, STRESS PERIOD   11
1
  VOLUMETRIC BUDGET FOR ENTIRE MODEL AT END OF TIME STEP    1, STRESS PERIOD  11
  ------------------------------------------------------------------------------

     CUMULATIVE VOLUMES      L**3       RATES FOR THIS TIME STEP      L**3/T
     ------------------                 ------------------------

           IN:                                      IN:
           ---                                      ---
             STORAGE =    35363230.6253               STORAGE =       17893.4484
       CONSTANT HEAD =    28547116.2659         CONSTANT HEAD =       34679.5007
               WELLS =           0.0000                 WELLS =           0.0000
            RECHARGE =    23901600.0000              RECHARGE =           0.0000
      STREAM LEAKAGE =    18346530.2739        STREAM LEAKAGE =       23274.5837

            TOTAL IN =   106158477.1650              TOTAL IN =       75847.5328

          OUT:                                     OUT:
          ----                                     ----
             STORAGE =     2387582.6546               STORAGE =           0.0000
       CONSTANT HEAD =           0.0000         CONSTANT HEAD =           0.0000
               WELLS =    45687611.6164                 WELLS =       45505.5893
            RECHARGE =           0.0000              RECHARGE =           0.0000
      STREAM LEAKAGE =    58083284.7911        STREAM LEAKAGE =       30341.9484

           TOTAL OUT =   106158479.0620             TOTAL OUT =       75847.5377

            IN - OUT =          -1.8970              IN - OUT =      -4.8435E-03

 PERCENT DISCREPANCY =          -0.00     PERCENT DISCREPANCY =          -0.00






         TIME SUMMARY AT END OF TIME STEP    1 IN STRESS PERIOD   11
                    SECONDS     MINUTES      HOURS       DAYS        YEARS
                    -----------------------------------------------------------
   TIME STEP LENGTH 7.86240E+06 1.31040E+05  2184.0      91.000     0.24914    
 STRESS PERIOD TIME 7.86240E+06 1.31040E+05  2184.0      91.000     0.24914    
         TOTAL TIME 8.67456E+07 1.44576E+06  24096.      1004.0      2.7488    
1
1
                            STRESS PERIOD NO.   12, LENGTH =   91.00000    
                            -----------------------------------------------

                              NUMBER OF TIME STEPS =     1

                               MULTIPLIER FOR DELT =     1.500

                            INITIAL TIME STEP SIZE =   91.00000    

 WELL NO.  LAYER   ROW   COL   STRESS RATE         
 --------------------------------------------------
      1      1     14      6       0.000    
      2      1      3      9       0.000    
      3      1     20     10       0.000    
      4      1     14     20       0.000    
      5      1     20     29      -8734.    
      6      1     15     15     -0.1244E+05
      7      1     17     29     -0.1509E+05
      8      1      6     23      -9237.    

      8 WELLS

                 RECHARGE =  1.000000E-03

 REUSING STREAM SEGMENT DATA FROM LAST STRESS PERIOD
 
 SOLVING FOR HEAD 


     7 CALLS TO PCG ROUTINE FOR TIME STEP   1 IN STRESS PERIOD   12
    24 TOTAL ITERATIONS

 OUTPUT CONTROL FOR STRESS PERIOD   12   TIME STEP    1
    SAVE BUDGET
    SAVE HEAD FOR ALL LAYERS
    PRINT HEAD FOR ALL LAYERS
 UBDSV2 SAVING "STREAMFLOW OUT  " ON UNIT  50 AT TIME STEP  1, STRESS PERIOD  12



 STREAM LISTING     PERIOD     12   STEP        1

 LAYER ROW COL. STREAM  RCH.  FLOW INTO     FLOW TO   FLOW OUT OF   OVRLND.     DIRECT     STREAM       STREAM     STREAM     STREAM   STREAMBED  STREAMBED
                SEG.NO.  NO.  STRM. RCH.    AQUIFER    STRM. RCH.    RUNOFF     PRECIP       ET          HEAD       DEPTH      WIDTH   CONDCTNC.   GRADIENT

   1   13    1     1     1    1.0000E+05 -1.6830E+03   1.0168E+05  0.000E+00  0.000E+00  0.000E+00  4.84067E+01  1.454E-01  2.000E+01  2.000E+04 -8.415E-02
   1   13    2     1     2    1.0168E+05 -2.6231E+03   1.0431E+05  0.000E+00  0.000E+00  0.000E+00  4.79313E+01  1.472E-01  2.000E+01  2.000E+04 -1.312E-01
   1   14    3     1     3    1.0431E+05 -4.3973E+02   1.0475E+05  0.000E+00  0.000E+00  0.000E+00  4.74554E+01  1.485E-01  2.000E+01  2.000E+04 -2.199E-02
   1   15    4     1     4    1.0475E+05 -4.1405E+02   1.0516E+05  0.000E+00  0.000E+00  0.000E+00  4.69785E+01  1.489E-01  2.000E+01  2.000E+04 -2.070E-02
   1   16    5     1     5    1.0516E+05 -1.5614E+03   1.0672E+05  0.000E+00  0.000E+00  0.000E+00  4.65020E+01  1.497E-01  2.000E+01  2.000E+04 -7.807E-02
   1   16    6     1     6    1.0672E+05 -9.8336E+02   1.0770E+05  0.000E+00  0.000E+00  0.000E+00  4.60258E+01  1.508E-01  2.000E+01  2.000E+04 -4.917E-02
   1   16    7     1     7    1.0770E+05 -9.5748E+02   1.0866E+05  0.000E+00  0.000E+00  0.000E+00  4.55494E+01  1.516E-01  2.000E+01  2.000E+04 -4.787E-02
   1   16    8     1     8    1.0866E+05 -9.4129E+02   1.0960E+05  0.000E+00  0.000E+00  0.000E+00  4.50729E+01  1.524E-01  2.000E+01  2.000E+04 -4.706E-02
   1   16    9     1     9    1.0960E+05 -9.1439E+02   1.1052E+05  0.000E+00  0.000E+00  0.000E+00  4.45964E+01  1.532E-01  2.000E+01  2.000E+04 -4.572E-02
   1   16   10     1    10    1.1052E+05 -8.6881E+02   1.1139E+05  0.000E+00  0.000E+00  0.000E+00  4.41199E+01  1.540E-01  2.000E+01  2.000E+04 -4.344E-02
   1   16   11     1    11    1.1139E+05 -7.9279E+02   1.1218E+05  0.000E+00  0.000E+00  0.000E+00  4.36433E+01  1.546E-01  2.000E+01  2.000E+04 -3.964E-02
   1   16   12     1    12    1.1218E+05 -8.0006E+02   1.1298E+05  0.000E+00  0.000E+00  0.000E+00  4.31667E+01  1.553E-01  2.000E+01  2.000E+04 -4.000E-02
   1   15   13     1    13    1.1298E+05  6.3194E+02   1.1235E+05  0.000E+00  0.000E+00  0.000E+00  4.26895E+01  1.554E-01  2.000E+01  2.000E+04  3.160E-02
   1   14   14     1    14    1.1235E+05  1.4456E+03   1.1090E+05  0.000E+00  0.000E+00  0.000E+00  4.22113E+01  1.545E-01  2.000E+01  2.000E+04  7.228E-02
   1   13   15     1    15    1.1090E+05  4.9911E+01   1.1085E+05  0.000E+00  0.000E+00  0.000E+00  4.17334E+01  1.539E-01  2.000E+01  2.000E+04  2.496E-03
   1   12   16     1    16    1.1085E+05 -2.0026E+03   1.1285E+05  0.000E+00  0.000E+00  0.000E+00  4.12570E+01  1.547E-01  2.000E+01  2.000E+04 -1.001E-01
   1   12   17     1    17    1.1285E+05 -1.1455E+03   1.1400E+05  0.000E+00  0.000E+00  0.000E+00  4.07810E+01  1.560E-01  2.000E+01  2.000E+04 -5.727E-02
   1   12   18     1    18    1.1400E+05 -1.1394E+03   1.1514E+05  0.000E+00  0.000E+00  0.000E+00  4.03047E+01  1.570E-01  2.000E+01  2.000E+04 -5.697E-02
   1   12   19     1    19    1.1514E+05 -1.5697E+03   1.1671E+05  0.000E+00  0.000E+00  0.000E+00  3.98285E+01  1.581E-01  2.000E+01  2.000E+04 -7.848E-02
   1   13   20     1    20    1.1671E+05 -1.0307E+03   1.1774E+05  0.000E+00  0.000E+00  0.000E+00  3.93523E+01  1.591E-01  2.000E+01  2.000E+04 -5.154E-02
   1   14   21     1    21    1.1774E+05 -9.2495E+02   1.1866E+05  0.000E+00  0.000E+00  0.000E+00  3.88758E+01  1.599E-01  2.000E+01  2.000E+04 -4.625E-02
   1   14   22     1    22    1.1866E+05  4.9735E+03   1.1369E+05  0.000E+00  0.000E+00  0.000E+00  3.83969E+01  1.583E-01  2.000E+01  2.000E+04  2.487E-01
   1    9   30     2     1    5.0000E+04 -8.5897E+01   5.0086E+04  0.000E+00  0.000E+00  0.000E+00  4.02409E+01  1.159E-01  2.000E+01  2.000E+04 -4.295E-03
   1    9   29     2     2    5.0086E+04 -3.5973E+02   5.0446E+04  0.000E+00  0.000E+00  0.000E+00  3.99912E+01  1.162E-01  2.000E+01  2.000E+04 -1.799E-02
   1    9   28     2     3    5.0446E+04 -5.3941E+02   5.0985E+04  0.000E+00  0.000E+00  0.000E+00  3.97419E+01  1.169E-01  2.000E+01  2.000E+04 -2.697E-02
   1    9   27     2     4    5.0985E+04 -1.1887E+03   5.2174E+04  0.000E+00  0.000E+00  0.000E+00  3.94930E+01  1.180E-01  2.000E+01  2.000E+04 -5.943E-02
   1   10   26     2     5    5.2174E+04 -5.5468E+02   5.2728E+04  0.000E+00  0.000E+00  0.000E+00  3.92442E+01  1.192E-01  2.000E+01  2.000E+04 -2.773E-02
   1   11   25     2     6    5.2728E+04 -5.6774E+02   5.3296E+04  0.000E+00  0.000E+00  0.000E+00  3.89950E+01  1.200E-01  2.000E+01  2.000E+04 -2.839E-02
   1   12   24     2     7    5.3296E+04 -8.6799E+02   5.4164E+04  0.000E+00  0.000E+00  0.000E+00  3.87460E+01  1.210E-01  2.000E+01  2.000E+04 -4.340E-02
   1   13   23     2     8    5.4164E+04 -1.8023E+02   5.4344E+04  0.000E+00  0.000E+00  0.000E+00  3.84967E+01  1.217E-01  2.000E+01  2.000E+04 -9.011E-03
   1   14   22     2     9    5.4344E+04  1.9452E+03   5.2399E+04  0.000E+00  0.000E+00  0.000E+00  3.82455E+01  1.205E-01  2.000E+01  2.000E+04  9.726E-02
   1   14   22     3     1    1.6609E+05 -8.5486E+03   1.7464E+05  0.000E+00  0.000E+00  0.000E+00  3.77208E+01  1.652E-01  2.000E+01  2.000E+04 -4.274E-01
   1   15   23     3     2    1.7464E+05 -4.3732E+02   1.7508E+05  0.000E+00  0.000E+00  0.000E+00  3.68345E+01  1.678E-01  2.000E+01  2.000E+04 -2.187E-02
   1   15   24     3     3    1.7508E+05 -2.3352E+02   1.7531E+05  0.000E+00  0.000E+00  0.000E+00  3.59458E+01  1.680E-01  2.000E+01  2.000E+04 -1.168E-02
   1   15   25     3     4    1.7531E+05 -2.2219E+02   1.7553E+05  0.000E+00  0.000E+00  0.000E+00  3.50571E+01  1.682E-01  2.000E+01  2.000E+04 -1.111E-02
   1   15   26     3     5    1.7553E+05 -2.0297E+02   1.7573E+05  0.000E+00  0.000E+00  0.000E+00  3.41683E+01  1.683E-01  2.000E+01  2.000E+04 -1.015E-02
   1   16   27     3     6    1.7573E+05  3.0214E+01   1.7570E+05  0.000E+00  0.000E+00  0.000E+00  3.32795E+01  1.683E-01  2.000E+01  2.000E+04  1.511E-03
   1   17   28     3     7    1.7570E+05  5.5406E+03   1.7016E+05  0.000E+00  0.000E+00  0.000E+00  3.23890E+01  1.667E-01  2.000E+01  2.000E+04  2.770E-01
   1   18   29     3     8    1.7016E+05  5.4612E+03   1.6470E+05  0.000E+00  0.000E+00  0.000E+00  3.14969E+01  1.635E-01  2.000E+01  2.000E+04  2.731E-01
   1   18   30     3     9    1.6470E+05  1.6627E+03   1.6304E+05  0.000E+00  0.000E+00  0.000E+00  3.06059E+01  1.614E-01  2.000E+01  2.000E+04  8.314E-02



1
              HEAD IN LAYER   1 AT END OF TIME STEP   1 IN STRESS PERIOD   12
  ---------------------------------------------------------------------------

          1      2      3      4      5      6      7      8      9     10
         11     12     13     14     15     16     17     18     19     20
         21     22     23     24     25     26     27     28     29     30
 .........................................................................
   1  ****** ****** ****** ****** ****** ****** ****** ****** ****** ******
      ****** ****** ****** ****** ****** ****** ****** ****** ****** ******
      ****** ****** ****** ****** ****** ****** ****** ****** ****** ******
   2  ****** ****** ****** ****** ****** ****** ****** ****** ****** ******
      ****** ****** ****** ****** ****** ****** ****** ****** ****** ******
      ****** ****** ****** ****** ****** ****** ****** ****** ****** ******
   3  ****** ****** ****** ****** ****** ****** ****** ****** ****** ******
      ****** ****** ****** ****** ****** ****** ****** ****** ****** ******
      ****** ****** ****** ****** ****** ****** ****** ****** ****** ******
   4  ****** ****** ****** ****** ****** ****** ****** ****** ****** ******
      ****** ****** ****** ****** ****** ****** ****** ****** ****** ******
      ****** ****** ****** ****** ****** ****** ****** ****** ****** ******
   5  ****** ****** ****** ****** ****** ****** ****** ****** ****** ******
      ****** ****** ****** ****** ****** ****** ****** ****** ****** ******
      ****** ****** ****** ****** ****** ****** ****** ****** ****** ******
   6  ****** ****** ****** ****** ****** ****** ****** ****** ****** ******
      ****** ****** ****** ****** ****** ****** ****** ****** ****** ******
      ****** ****** ****** ****** ****** ****** ****** ****** ****** ******
   7  ****** ****** ****** ****** ****** ****** ****** ****** ****** ******
      ****** ****** ****** ****** ****** ****** ****** ****** ****** ******
      ****** ****** ****** ****** ****** ****** ****** ****** ****** ******
   8  ****** ****** ****** ****** ****** ****** ****** ****** ****** ******
      ****** ****** ****** ****** ****** ****** ****** ****** ****** ******
      ****** ****** ****** ****** ****** ****** ****** ****** ****** ******
   9  ****** ****** ****** ****** ****** ****** ****** ****** ****** ******
      ****** ****** ****** ****** ****** ****** ****** ****** ****** ******
      ****** ****** ****** ****** ****** ****** ****** ****** ****** ******
  10  ****** ****** ****** ****** ****** ****** ****** ****** ****** ******
      ****** ****** ****** ****** ****** ****** ****** ****** ****** ******
      ****** ****** ****** ****** ****** ****** ****** ****** ****** ******
  11  ****** ****** ****** ****** ****** ****** ****** ****** ****** ******
      ****** ****** ****** ****** ****** ****** ****** ****** ****** ******
      ****** ****** ****** ****** ****** ****** ****** ****** ****** ******
  12  ****** ****** ****** ****** ****** ****** ****** ****** ****** ******
      ****** ****** ****** ****** ****** ****** ****** ****** ****** ******
      ****** ****** ****** ****** ****** ****** ****** ****** ****** ******
  13  ****** ****** ****** ****** ****** ****** ****** ****** ****** ******
      ****** ****** ****** ****** ****** ****** ****** ****** ****** ******
      ****** ****** ****** ****** ****** ****** ****** ****** ****** ******
  14  ****** ****** ****** ****** ****** ****** ****** ****** ****** ******
      ****** ****** ****** ****** ****** ****** ****** ****** ****** ******
      ****** ****** ****** ****** ****** ****** ****** ****** ****** ******
  15  ****** ****** ****** ****** ****** ****** ****** ****** ****** ******
      ****** ****** ****** ****** ****** ****** ****** ****** ****** ******
      ****** ****** ****** ****** ****** ****** ****** ****** ****** ******
  16  ****** ****** ****** ****** ****** ****** ****** ****** ****** ******
      ****** ****** ****** ****** ****** ****** ****** ****** ****** ******
      ****** ****** ****** ****** ****** ****** ****** ****** ****** ******
  17  ****** ****** ****** ****** ****** ****** ****** ****** ****** ******
      ****** ****** ****** ****** ****** ****** ****** ****** ****** ******
      ****** ****** ****** ****** ****** ****** ****** ****** ****** ******
  18  ****** ****** ****** ****** ****** ****** ****** ****** ****** ******
      ****** ****** ****** ****** ****** ****** ****** ****** ****** ******
      ****** ****** ****** ****** ****** ****** ****** ****** ****** ******
  19  ****** ****** ****** ****** ****** ****** ****** ****** ****** ******
      ****** ****** ****** ****** ****** ****** ****** ****** ****** ******
      ****** ****** ****** ****** ****** ****** ****** ****** ****** ******
  20  ****** ****** ****** ****** ****** ****** ****** ****** ****** ******
      ****** ****** ****** ****** ****** ****** ****** ****** ****** ******
      ****** ****** ****** ****** ****** ****** ****** ****** ****** ******
  21  ****** ****** ****** ****** ****** ****** ****** ****** ****** ******
      ****** ****** ****** ****** ****** ****** ****** ****** ****** ******
      ****** ****** ****** ****** ****** ****** ****** ****** ****** ******
  22  ****** ****** ****** ****** ****** ****** ****** ****** ****** ******
      ****** ****** ****** ****** ****** ****** ****** ****** ****** ******
      ****** ****** ****** ****** ****** ****** ****** ****** ****** ******
  23  ****** ****** ****** ****** ****** ****** ****** ****** ****** ******
      ****** ****** ****** ****** ****** ****** ****** ****** ****** ******
      ****** ****** ****** ****** ****** ****** ****** ****** ****** ******
  24  ****** ****** ****** ****** ****** ****** ****** ****** ****** ******
      ****** ****** ****** ****** ****** ****** ****** ****** ****** ******
      ****** ****** ****** ****** ****** ****** ****** ****** ****** ******
  25  ****** ****** ****** ****** ****** ****** ****** ****** ****** ******
      ****** ****** ****** ****** ****** ****** ****** ****** ****** ******
      ****** ****** ****** ****** ****** ****** ****** ****** ****** ******

 HEAD WILL BE SAVED ON UNIT   51 AT END OF TIME STEP    1, STRESS PERIOD   12
1
  VOLUMETRIC BUDGET FOR ENTIRE MODEL AT END OF TIME STEP    1, STRESS PERIOD  12
  ------------------------------------------------------------------------------

     CUMULATIVE VOLUMES      L**3       RATES FOR THIS TIME STEP      L**3/T
     ------------------                 ------------------------

           IN:                                      IN:
           ---                                      ---
             STORAGE =    35363921.4791               STORAGE =           7.5918
       CONSTANT HEAD =    31639279.4638         CONSTANT HEAD =       33979.8154
               WELLS =           0.0000                 WELLS =           0.0000
            RECHARGE =    26413200.0000              RECHARGE =       27600.0000
      STREAM LEAKAGE =    20324965.7916        STREAM LEAKAGE =       21741.0496

            TOTAL IN =   113741366.7345              TOTAL IN =       83328.4568

          OUT:                                     OUT:
          ----                                     ----
             STORAGE =     2664370.5801               STORAGE =        3041.6256
       CONSTANT HEAD =           0.0000         CONSTANT HEAD =           0.0000
               WELLS =    49828620.2390                 WELLS =       45505.5893
            RECHARGE =           0.0000              RECHARGE =           0.0000
      STREAM LEAKAGE =    61248377.7255        STREAM LEAKAGE =       34781.2410

           TOTAL OUT =   113741368.5446             TOTAL OUT =       83328.4559

            IN - OUT =          -1.8101              IN - OUT =       9.5455E-04

 PERCENT DISCREPANCY =          -0.00     PERCENT DISCREPANCY =           0.00






         TIME SUMMARY AT END OF TIME STEP    1 IN STRESS PERIOD   12
                    SECONDS     MINUTES      HOURS       DAYS        YEARS
                    -----------------------------------------------------------
   TIME STEP LENGTH 7.86240E+06 1.31040E+05  2184.0      91.000     0.24914    
 STRESS PERIOD TIME 7.86240E+06 1.31040E+05  2184.0      91.000     0.24914    
         TOTAL TIME 9.46080E+07 1.57680E+06  26280.      1095.0      2.9979    
1

 Run end date and time (yyyy/mm/dd hh:mm:ss): 2019/01/26 13:50:11
 Elapsed run time:  0.082 Seconds

