                                  MODFLOW-2005     
      U.S. GEOLOGICAL SURVEY MODULAR FINITE-DIFFERENCE GROUND-WATER FLOW MODEL
                            VERSION 1.11.00 8/8/2013

 LIST FILE: supply2.lst
                         UNIT   10

 OPENING ..\data\supply.dis
 FILE TYPE:DIS   UNIT   11   STATUS:OLD    
 FORMAT:FORMATTED              ACCESS:SEQUENTIAL          

 OPENING ..\data\supply.ba6
 FILE TYPE:BAS6   UNIT   12   STATUS:OLD    
 FORMAT:FORMATTED              ACCESS:SEQUENTIAL          

 OPENING ..\data\supply_het.bc6
 FILE TYPE:BCF6   UNIT   13   STATUS:OLD    
 FORMAT:FORMATTED              ACCESS:SEQUENTIAL          

 OPENING ..\data\supply.rch
 FILE TYPE:RCH   UNIT   15   STATUS:OLD    
 FORMAT:FORMATTED              ACCESS:SEQUENTIAL          

 OPENING ..\data\supply2.sfr
 FILE TYPE:SFR   UNIT   16   STATUS:OLD    
 FORMAT:FORMATTED              ACCESS:SEQUENTIAL          

 OPENING ..\data\supply.oc
 FILE TYPE:OC   UNIT   17   STATUS:OLD    
 FORMAT:FORMATTED              ACCESS:SEQUENTIAL          

 OPENING ..\data\supply.pcg
 FILE TYPE:PCG   UNIT   18   STATUS:OLD    
 FORMAT:FORMATTED              ACCESS:SEQUENTIAL          

 OPENING supply2.wel
 FILE TYPE:WEL   UNIT   19   STATUS:OLD    
 FORMAT:FORMATTED              ACCESS:SEQUENTIAL          

 OPENING supply2sf.cbc
 FILE TYPE:DATA(BINARY)   UNIT   50   STATUS:UNKNOWN
 FORMAT:BINARY                 ACCESS:SEQUENTIAL          

 OPENING supply2hd.bhd
 FILE TYPE:DATA(BINARY)   UNIT   51   STATUS:UNKNOWN
 FORMAT:BINARY                 ACCESS:SEQUENTIAL          

 BAS -- BASIC PACKAGE, VERSION 7, 5/2/2005 INPUT READ FROM UNIT   12
 
 MODFLOW was compiled using uniform precision
 Precision of REAL and DOUBLE PRECISION variables:          15

 DISCRETIZATION INPUT DATA READ FROM UNIT   11
    1 LAYERS        25 ROWS        30 COLUMNS
   12 STRESS PERIOD(S) IN SIMULATION
 MODEL TIME UNIT IS DAYS
 MODEL LENGTH UNIT IS UNDEFINED
  Confining bed flag for each layer:
   0

                     DELR =   200.000    

                     DELC =   200.000    

 TOP ELEVATION OF LAYER 1 =  100.0000    

   MODEL LAYER BOTTOM EL. =   0.00000     FOR LAYER   1


 STRESS PERIOD     LENGTH       TIME STEPS     MULTIPLIER FOR DELT    SS FLAG
 ----------------------------------------------------------------------------
        1         92.00000          1                    1.500         TR
        2         91.00000          1                    1.500         TR
        3         91.00000          1                    1.500         TR
        4         91.00000          1                    1.500         TR
        5         92.00000          1                    1.500         TR
        6         91.00000          1                    1.500         TR
        7         91.00000          1                    1.500         TR
        8         91.00000          1                    1.500         TR
        9         92.00000          1                    1.500         TR
       10         91.00000          1                    1.500         TR
       11         91.00000          1                    1.500         TR
       12         91.00000          1                    1.500         TR

 TRANSIENT SIMULATION



 
 #MODOFC transient water supply sample problem                                   
 #                                                                               
 THE FREE FORMAT OPTION HAS BEEN SELECTED



                     BOUNDARY ARRAY FOR LAYER   1
 READING ON UNIT   12 WITH FORMAT: (20I4)              

 AQUIFER HEAD WILL BE SET TO   0.0000     AT ALL NO-FLOW NODES (IBOUND=0).



                       INITIAL HEAD FOR LAYER   1
 READING ON UNIT   12 WITH FORMAT: (10F13.0)           

 OUTPUT CONTROL IS SPECIFIED ONLY AT TIME STEPS FOR WHICH OUTPUT IS DESIRED
 COMPACT CELL-BY-CELL BUDGET FILES WILL BE WRITTEN
 HEAD PRINT FORMAT CODE IS  18    DRAWDOWN PRINT FORMAT CODE IS   0
 HEADS WILL BE SAVED ON UNIT   51    DRAWDOWNS WILL BE SAVED ON UNIT    0

 BCF -- BLOCK-CENTERED FLOW PACKAGE, VERSION 7, 5/2/2005
         INPUT READ FROM UNIT 13
 TRANSIENT SIMULATION
 HEAD AT CELLS THAT CONVERT TO DRY=   0.0000    
 WETTING CAPABILITY IS NOT ACTIVE
      LAYER  LAYER-TYPE CODE     INTERBLOCK T
      --------------------------------------------
         1            0          0 -- HARMONIC    

 COLUMN TO ROW ANISOTROPY =  1.000000    

     PRIMARY STORAGE COEF =  5.000000E-02 FOR LAYER   1



               TRANSMIS. ALONG ROWS FOR LAYER   1
 READING ON UNIT   13 WITH FORMAT: (FREE)              

 WEL -- WELL PACKAGE, VERSION 7, 5/2/2005 INPUT READ FROM UNIT   19
 # Well package input file written by MMProc
 No named parameters
 MAXIMUM OF      4 ACTIVE WELLS AT ONE TIME


     0 Well parameters

 RCH -- RECHARGE PACKAGE, VERSION 7, 5/2/2005 INPUT READ FROM UNIT   15
 No named parameters
 OPTION 1 -- RECHARGE TO TOP LAYER


     0 Recharge parameters

 SFR7 -- STREAMFLOW ROUTING PACKAGE, VERSION 1.0.7, 2013-01-15
         INPUT READ FROM UNIT  16
 #  Supply2 test problem for GWM-VI
 #  The eighth entry in the first data line is ISTCB2 -
 #    Setting this to a negative number indicates that
 #    streamflows out of the reach will be saved to a
 #    binary file.  The absolute value of ISTCB2 is the
 #    unit to which unformatted flows will be written.
 #
 No named parameters
 Segment information will not be 
 read by reach
 No named parameters
 No specifed inflow files


 NUMBER OF STREAM REACHES IS   40

 NUMBER OF STREAM SEGMENTS IS    3

 NUMBER OF STREAM PARAMETERS IS    0

 NUMBER OF STREAM SEGMENTS DEFINED USING PARAMETERS IS              0

 MAXIMUM ERROR FOR STREAM LEAKAGE RATES IS  1.00E-04

 CONSTANT FOR MANNINGS EQUATION IS  1.2839E+05





   STREAM NETWORK DESCRIPTION: 

   LAYER    ROW    COL   SEGMENT   REACH     LENGTH
                          NUMBER   NUMBER    IN CELL        
   --------------------------------------------------
      1     13      1       1        1    2.0000E+02
      1     13      2       1        2    2.0000E+02
      1     14      3       1        3    2.0000E+02
      1     15      4       1        4    2.0000E+02
      1     16      5       1        5    2.0000E+02
      1     16      6       1        6    2.0000E+02
      1     16      7       1        7    2.0000E+02
      1     16      8       1        8    2.0000E+02
      1     16      9       1        9    2.0000E+02
      1     16     10       1       10    2.0000E+02
      1     16     11       1       11    2.0000E+02
      1     16     12       1       12    2.0000E+02
      1     15     13       1       13    2.0000E+02
      1     14     14       1       14    2.0000E+02
      1     13     15       1       15    2.0000E+02
      1     12     16       1       16    2.0000E+02
      1     12     17       1       17    2.0000E+02
      1     12     18       1       18    2.0000E+02
      1     12     19       1       19    2.0000E+02
      1     13     20       1       20    2.0000E+02
      1     14     21       1       21    2.0000E+02
      1     14     22       1       22    2.0000E+02
      1      9     30       2        1    2.0000E+02
      1      9     29       2        2    2.0000E+02
      1      9     28       2        3    2.0000E+02
      1      9     27       2        4    2.0000E+02
      1     10     26       2        5    2.0000E+02
      1     11     25       2        6    2.0000E+02
      1     12     24       2        7    2.0000E+02
      1     13     23       2        8    2.0000E+02
      1     14     22       2        9    2.0000E+02
      1     14     22       3        1    2.0000E+02
      1     15     23       3        2    2.0000E+02
      1     15     24       3        3    2.0000E+02
      1     15     25       3        4    2.0000E+02
      1     15     26       3        5    2.0000E+02
      1     16     27       3        6    2.0000E+02
      1     17     28       3        7    2.0000E+02
      1     18     29       3        8    2.0000E+02
      1     18     30       3        9    2.0000E+02




 PCG -- CONJUGATE-GRADIENT SOLUTION PACKAGE, VERSION 7, 5/2/2005
 MAXIMUM OF    500 CALLS OF SOLUTION ROUTINE
 MAXIMUM OF      5 INTERNAL ITERATIONS PER CALL TO SOLUTION ROUTINE
 MATRIX PRECONDITIONING TYPE :    1



                                    SOLUTION BY THE CONJUGATE-GRADIENT METHOD
                                   -------------------------------------------
                    MAXIMUM NUMBER OF CALLS TO PCG ROUTINE =      500
                        MAXIMUM ITERATIONS PER CALL TO PCG =        5
                               MATRIX PRECONDITIONING TYPE =        1
        RELAXATION FACTOR (ONLY USED WITH PRECOND. TYPE 1) =    0.10000E+01
 PARAMETER OF POLYNOMIAL PRECOND. = 2 (2) OR IS CALCULATED :        0
                         HEAD CHANGE CRITERION FOR CLOSURE =    0.10000E-05
                     RESIDUAL CHANGE CRITERION FOR CLOSURE =    0.10000E+01
            PCG HEAD AND RESIDUAL CHANGE PRINTOUT INTERVAL =        1
     PRINTING FROM SOLVER IS LIMITED(1) OR SUPPRESSED (>1) =        1
                            STEADY-STATE DAMPING PARAMETER =    0.10000E+01
                               TRANSIENT DAMPING PARAMETER =    0.10000E+01
1
                            STRESS PERIOD NO.    1, LENGTH =   92.00000    
                            -----------------------------------------------

                              NUMBER OF TIME STEPS =     1

                               MULTIPLIER FOR DELT =     1.500

                            INITIAL TIME STEP SIZE =   92.00000    

 WELL NO.  LAYER   ROW   COL   STRESS RATE         
 --------------------------------------------------
      1      1     10     17     -0.1009E+05
      2      1     11     19      -420.2    
      3      1     19     16      -9508.    
      4      1      6     15      -7895.    

      4 WELLS

                 RECHARGE =  5.000000E-04



 CLASSIFICATION & COUNT OF STREAM SEGMENTS BASED ON SOURCE OF INFLOW:

                HEADWATER     DIVERSION     RECEIVES TRIBUTARY FLOW
                ---------     ---------     -----------------------
                     2              0               1



                    INPUT DATA FOR EACH STREAM SEGMENT
 ---------------------------------------------------------------------------------------------

 SEGMENT    SEG.     INFLOW   OVERLAND   STREAM    STREAM   ICALC  OUTFLOW  DIVERSION PRIORITY
    NO.    LENGTH     RATE     RUNOFF      ET       PPT.    METH.  TO SEG.  FROM SEG.    NO.

      1  4.400E+03 1.000E+05 0.000E+00 0.000E+00 0.000E+00    1        3        0        0
      2  1.800E+03 5.000E+04 0.000E+00 0.000E+00 0.000E+00    1        3        0        0
      3  1.800E+03 0.000E+00 0.000E+00 0.000E+00 0.000E+00    1        0        0        0


         STREAMBED PROPERTIES AND STREAM DIMENSIONS

 SEGMENT     BED HYD. COND.      BED THICKNESS     ELEV.-TOP OF BED     WIDTH OF STREAM     DEPTH OF STREAM    STREAM ROUGHNESS
    No.     UPPER     LOWER     UPPER     LOWER     UPPER     LOWER     UPPER     LOWER     UPPER     LOWER   CHANNEL      BANK

     1  5.000E+00 5.000E+00 1.000E+00 1.000E+00 4.850E+01 3.800E+01 2.000E+01 2.000E+01                     5.000E-02
     2  5.000E+00 5.000E+00 1.000E+00 1.000E+00 4.025E+01 3.800E+01 2.000E+01 2.000E+01                     5.000E-02
     3  5.000E+00 5.000E+00 1.000E+00 1.000E+00 3.800E+01 3.000E+01 2.000E+01 2.000E+01                     5.000E-02



 
 SOLVING FOR HEAD 


     9 CALLS TO PCG ROUTINE FOR TIME STEP   1 IN STRESS PERIOD    1
    36 TOTAL ITERATIONS

 OUTPUT CONTROL FOR STRESS PERIOD    1   TIME STEP    1
    SAVE BUDGET
    SAVE HEAD FOR ALL LAYERS
    PRINT HEAD FOR ALL LAYERS
 UBDSV2 SAVING "STREAMFLOW OUT  " ON UNIT  50 AT TIME STEP  1, STRESS PERIOD   1



 STREAM LISTING     PERIOD      1   STEP        1

 LAYER ROW COL. STREAM  RCH.  FLOW INTO     FLOW TO   FLOW OUT OF   OVRLND.     DIRECT     STREAM       STREAM     STREAM     STREAM   STREAMBED  STREAMBED
                SEG.NO.  NO.  STRM. RCH.    AQUIFER    STRM. RCH.    RUNOFF     PRECIP       ET          HEAD       DEPTH      WIDTH   CONDCTNC.   GRADIENT

   1   13    1     1     1    1.0000E+05 -6.1008E+03   1.0610E+05  0.000E+00  0.000E+00  0.000E+00  4.84086E+01  1.473E-01  2.000E+01  2.000E+04 -3.050E-01
   1   13    2     1     2    1.0610E+05 -7.5698E+03   1.1367E+05  0.000E+00  0.000E+00  0.000E+00  4.79372E+01  1.531E-01  2.000E+01  2.000E+04 -3.785E-01
   1   14    3     1     3    1.1367E+05 -2.1965E+03   1.1587E+05  0.000E+00  0.000E+00  0.000E+00  4.74639E+01  1.571E-01  2.000E+01  2.000E+04 -1.098E-01
   1   15    4     1     4    1.1587E+05 -2.2667E+03   1.1813E+05  0.000E+00  0.000E+00  0.000E+00  4.69885E+01  1.589E-01  2.000E+01  2.000E+04 -1.133E-01
   1   16    5     1     5    1.1813E+05 -7.1494E+03   1.2528E+05  0.000E+00  0.000E+00  0.000E+00  4.65150E+01  1.627E-01  2.000E+01  2.000E+04 -3.575E-01
   1   16    6     1     6    1.2528E+05 -4.2718E+03   1.2956E+05  0.000E+00  0.000E+00  0.000E+00  4.60423E+01  1.673E-01  2.000E+01  2.000E+04 -2.136E-01
   1   16    7     1     7    1.2956E+05 -4.0949E+03   1.3365E+05  0.000E+00  0.000E+00  0.000E+00  4.55683E+01  1.706E-01  2.000E+01  2.000E+04 -2.047E-01
   1   16    8     1     8    1.3365E+05 -4.0353E+03   1.3769E+05  0.000E+00  0.000E+00  0.000E+00  4.50942E+01  1.737E-01  2.000E+01  2.000E+04 -2.018E-01
   1   16    9     1     9    1.3769E+05 -3.9957E+03   1.4168E+05  0.000E+00  0.000E+00  0.000E+00  4.46200E+01  1.768E-01  2.000E+01  2.000E+04 -1.998E-01
   1   16   10     1    10    1.4168E+05 -3.9471E+03   1.4563E+05  0.000E+00  0.000E+00  0.000E+00  4.41457E+01  1.798E-01  2.000E+01  2.000E+04 -1.974E-01
   1   16   11     1    11    1.4563E+05 -3.9004E+03   1.4953E+05  0.000E+00  0.000E+00  0.000E+00  4.36713E+01  1.827E-01  2.000E+01  2.000E+04 -1.950E-01
   1   16   12     1    12    1.4953E+05 -6.3668E+03   1.5590E+05  0.000E+00  0.000E+00  0.000E+00  4.31979E+01  1.865E-01  2.000E+01  2.000E+04 -3.183E-01
   1   15   13     1    13    1.5590E+05 -6.6706E+03   1.6257E+05  0.000E+00  0.000E+00  0.000E+00  4.27253E+01  1.912E-01  2.000E+01  2.000E+04 -3.335E-01
   1   14   14     1    14    1.6257E+05 -7.1347E+03   1.6970E+05  0.000E+00  0.000E+00  0.000E+00  4.22530E+01  1.962E-01  2.000E+01  2.000E+04 -3.567E-01
   1   13   15     1    15    1.6970E+05 -7.3262E+03   1.7703E+05  0.000E+00  0.000E+00  0.000E+00  4.17808E+01  2.012E-01  2.000E+01  2.000E+04 -3.663E-01
   1   12   16     1    16    1.7703E+05 -7.0331E+03   1.8406E+05  0.000E+00  0.000E+00  0.000E+00  4.13085E+01  2.062E-01  2.000E+01  2.000E+04 -3.517E-01
   1   12   17     1    17    1.8406E+05 -4.3546E+03   1.8841E+05  0.000E+00  0.000E+00  0.000E+00  4.08351E+01  2.101E-01  2.000E+01  2.000E+04 -2.177E-01
   1   12   18     1    18    1.8841E+05 -4.7546E+03   1.9317E+05  0.000E+00  0.000E+00  0.000E+00  4.03609E+01  2.131E-01  2.000E+01  2.000E+04 -2.377E-01
   1   12   19     1    19    1.9317E+05 -6.5690E+03   1.9974E+05  0.000E+00  0.000E+00  0.000E+00  3.98874E+01  2.169E-01  2.000E+01  2.000E+04 -3.284E-01
   1   13   20     1    20    1.9974E+05 -6.3720E+03   2.0611E+05  0.000E+00  0.000E+00  0.000E+00  3.94144E+01  2.212E-01  2.000E+01  2.000E+04 -3.186E-01
   1   14   21     1    21    2.0611E+05 -6.0571E+03   2.1217E+05  0.000E+00  0.000E+00  0.000E+00  3.89411E+01  2.252E-01  2.000E+01  2.000E+04 -3.029E-01
   1   14   22     1    22    2.1217E+05  3.6690E+03   2.0850E+05  0.000E+00  0.000E+00  0.000E+00  3.84646E+01  2.260E-01  2.000E+01  2.000E+04  1.835E-01
   1    9   30     2     1    5.0000E+04 -4.8342E+03   5.4834E+04  0.000E+00  0.000E+00  0.000E+00  4.02442E+01  1.192E-01  2.000E+01  2.000E+04 -2.417E-01
   1    9   29     2     2    5.4834E+04 -5.1256E+03   5.9960E+04  0.000E+00  0.000E+00  0.000E+00  4.00009E+01  1.259E-01  2.000E+01  2.000E+04 -2.563E-01
   1    9   28     2     3    5.9960E+04 -5.3996E+03   6.5359E+04  0.000E+00  0.000E+00  0.000E+00  3.97577E+01  1.327E-01  2.000E+01  2.000E+04 -2.700E-01
   1    9   27     2     4    6.5359E+04 -8.1853E+03   7.3545E+04  0.000E+00  0.000E+00  0.000E+00  3.95161E+01  1.411E-01  2.000E+01  2.000E+04 -4.093E-01
   1   10   26     2     5    7.3545E+04 -7.2094E+03   8.0754E+04  0.000E+00  0.000E+00  0.000E+00  3.92753E+01  1.503E-01  2.000E+01  2.000E+04 -3.605E-01
   1   11   25     2     6    8.0754E+04 -6.6380E+03   8.7392E+04  0.000E+00  0.000E+00  0.000E+00  3.90333E+01  1.583E-01  2.000E+01  2.000E+04 -3.319E-01
   1   12   24     2     7    8.7392E+04 -6.1131E+03   9.3505E+04  0.000E+00  0.000E+00  0.000E+00  3.87904E+01  1.654E-01  2.000E+01  2.000E+04 -3.057E-01
   1   13   23     2     8    9.3505E+04 -1.6185E+03   9.5124E+04  0.000E+00  0.000E+00  0.000E+00  3.85446E+01  1.696E-01  2.000E+01  2.000E+04 -8.092E-02
   1   14   22     2     9    9.5124E+04  2.8228E+02   9.4841E+04  0.000E+00  0.000E+00  0.000E+00  3.82953E+01  1.703E-01  2.000E+01  2.000E+04  1.411E-02
   1   14   22     3     1    3.0334E+05 -9.7952E+03   3.1313E+05  0.000E+00  0.000E+00  0.000E+00  3.77914E+01  2.358E-01  2.000E+01  2.000E+04 -4.898E-01
   1   15   23     3     2    3.1313E+05 -1.9427E+03   3.1508E+05  0.000E+00  0.000E+00  0.000E+00  3.69052E+01  2.385E-01  2.000E+01  2.000E+04 -9.713E-02
   1   15   24     3     3    3.1508E+05 -1.5222E+03   3.1660E+05  0.000E+00  0.000E+00  0.000E+00  3.60171E+01  2.393E-01  2.000E+01  2.000E+04 -7.611E-02
   1   15   25     3     4    3.1660E+05 -1.5759E+03   3.1818E+05  0.000E+00  0.000E+00  0.000E+00  3.51289E+01  2.400E-01  2.000E+01  2.000E+04 -7.879E-02
   1   15   26     3     5    3.1818E+05 -1.8813E+03   3.2006E+05  0.000E+00  0.000E+00  0.000E+00  3.42408E+01  2.408E-01  2.000E+01  2.000E+04 -9.407E-02
   1   16   27     3     6    3.2006E+05 -2.1616E+03   3.2222E+05  0.000E+00  0.000E+00  0.000E+00  3.33528E+01  2.417E-01  2.000E+01  2.000E+04 -1.081E-01
   1   17   28     3     7    3.2222E+05 -6.5648E+03   3.2878E+05  0.000E+00  0.000E+00  0.000E+00  3.24659E+01  2.437E-01  2.000E+01  2.000E+04 -3.282E-01
   1   18   29     3     8    3.2878E+05 -7.9568E+03   3.3674E+05  0.000E+00  0.000E+00  0.000E+00  3.15803E+01  2.469E-01  2.000E+01  2.000E+04 -3.978E-01
   1   18   30     3     9    3.3674E+05 -7.1533E+03   3.4389E+05  0.000E+00  0.000E+00  0.000E+00  3.06947E+01  2.503E-01  2.000E+01  2.000E+04 -3.577E-01



1
              HEAD IN LAYER   1 AT END OF TIME STEP   1 IN STRESS PERIOD    1
  ---------------------------------------------------------------------------

          1      2      3      4      5      6      7      8      9     10
         11     12     13     14     15     16     17     18     19     20
         21     22     23     24     25     26     27     28     29     30
 .........................................................................
   1  ****** ****** ****** ****** ****** ****** ****** ****** ****** ******
      ****** ****** ****** ****** ****** ****** ****** ****** ****** ******
      ****** ****** ****** ****** ****** ****** ****** ****** ****** ******
   2  ****** ****** ****** ****** ****** ****** ****** ****** ****** ******
      ****** ****** ****** ****** ****** ****** ****** ****** ****** ******
      ****** ****** ****** ****** ****** ****** ****** ****** ****** ******
   3  ****** ****** ****** ****** ****** ****** ****** ****** ****** ******
      ****** ****** ****** ****** ****** ****** ****** ****** ****** ******
      ****** ****** ****** ****** ****** ****** ****** ****** ****** ******
   4  ****** ****** ****** ****** ****** ****** ****** ****** ****** ******
      ****** ****** ****** ****** ****** ****** ****** ****** ****** ******
      ****** ****** ****** ****** ****** ****** ****** ****** ****** ******
   5  ****** ****** ****** ****** ****** ****** ****** ****** ****** ******
      ****** ****** ****** ****** ****** ****** ****** ****** ****** ******
      ****** ****** ****** ****** ****** ****** ****** ****** ****** ******
   6  ****** ****** ****** ****** ****** ****** ****** ****** ****** ******
      ****** ****** ****** ****** ****** ****** ****** ****** ****** ******
      ****** ****** ****** ****** ****** ****** ****** ****** ****** ******
   7  ****** ****** ****** ****** ****** ****** ****** ****** ****** ******
      ****** ****** ****** ****** ****** ****** ****** ****** ****** ******
      ****** ****** ****** ****** ****** ****** ****** ****** ****** ******
   8  ****** ****** ****** ****** ****** ****** ****** ****** ****** ******
      ****** ****** ****** ****** ****** ****** ****** ****** ****** ******
      ****** ****** ****** ****** ****** ****** ****** ****** ****** ******
   9  ****** ****** ****** ****** ****** ****** ****** ****** ****** ******
      ****** ****** ****** ****** ****** ****** ****** ****** ****** ******
      ****** ****** ****** ****** ****** ****** ****** ****** ****** ******
  10  ****** ****** ****** ****** ****** ****** ****** ****** ****** ******
      ****** ****** ****** ****** ****** ****** ****** ****** ****** ******
      ****** ****** ****** ****** ****** ****** ****** ****** ****** ******
  11  ****** ****** ****** ****** ****** ****** ****** ****** ****** ******
      ****** ****** ****** ****** ****** ****** ****** ****** ****** ******
      ****** ****** ****** ****** ****** ****** ****** ****** ****** ******
  12  ****** ****** ****** ****** ****** ****** ****** ****** ****** ******
      ****** ****** ****** ****** ****** ****** ****** ****** ****** ******
      ****** ****** ****** ****** ****** ****** ****** ****** ****** ******
  13  ****** ****** ****** ****** ****** ****** ****** ****** ****** ******
      ****** ****** ****** ****** ****** ****** ****** ****** ****** ******
      ****** ****** ****** ****** ****** ****** ****** ****** ****** ******
  14  ****** ****** ****** ****** ****** ****** ****** ****** ****** ******
      ****** ****** ****** ****** ****** ****** ****** ****** ****** ******
      ****** ****** ****** ****** ****** ****** ****** ****** ****** ******
  15  ****** ****** ****** ****** ****** ****** ****** ****** ****** ******
      ****** ****** ****** ****** ****** ****** ****** ****** ****** ******
      ****** ****** ****** ****** ****** ****** ****** ****** ****** ******
  16  ****** ****** ****** ****** ****** ****** ****** ****** ****** ******
      ****** ****** ****** ****** ****** ****** ****** ****** ****** ******
      ****** ****** ****** ****** ****** ****** ****** ****** ****** ******
  17  ****** ****** ****** ****** ****** ****** ****** ****** ****** ******
      ****** ****** ****** ****** ****** ****** ****** ****** ****** ******
      ****** ****** ****** ****** ****** ****** ****** ****** ****** ******
  18  ****** ****** ****** ****** ****** ****** ****** ****** ****** ******
      ****** ****** ****** ****** ****** ****** ****** ****** ****** ******
      ****** ****** ****** ****** ****** ****** ****** ****** ****** ******
  19  ****** ****** ****** ****** ****** ****** ****** ****** ****** ******
      ****** ****** ****** ****** ****** ****** ****** ****** ****** ******
      ****** ****** ****** ****** ****** ****** ****** ****** ****** ******
  20  ****** ****** ****** ****** ****** ****** ****** ****** ****** ******
      ****** ****** ****** ****** ****** ****** ****** ****** ****** ******
      ****** ****** ****** ****** ****** ****** ****** ****** ****** ******
  21  ****** ****** ****** ****** ****** ****** ****** ****** ****** ******
      ****** ****** ****** ****** ****** ****** ****** ****** ****** ******
      ****** ****** ****** ****** ****** ****** ****** ****** ****** ******
  22  ****** ****** ****** ****** ****** ****** ****** ****** ****** ******
      ****** ****** ****** ****** ****** ****** ****** ****** ****** ******
      ****** ****** ****** ****** ****** ****** ****** ****** ****** ******
  23  ****** ****** ****** ****** ****** ****** ****** ****** ****** ******
      ****** ****** ****** ****** ****** ****** ****** ****** ****** ******
      ****** ****** ****** ****** ****** ****** ****** ****** ****** ******
  24  ****** ****** ****** ****** ****** ****** ****** ****** ****** ******
      ****** ****** ****** ****** ****** ****** ****** ****** ****** ******
      ****** ****** ****** ****** ****** ****** ****** ****** ****** ******
  25  ****** ****** ****** ****** ****** ****** ****** ****** ****** ******
      ****** ****** ****** ****** ****** ****** ****** ****** ****** ******
      ****** ****** ****** ****** ****** ****** ****** ****** ****** ******

 HEAD WILL BE SAVED ON UNIT   51 AT END OF TIME STEP    1, STRESS PERIOD    1
1
  VOLUMETRIC BUDGET FOR ENTIRE MODEL AT END OF TIME STEP    1, STRESS PERIOD   1
  ------------------------------------------------------------------------------

     CUMULATIVE VOLUMES      L**3       RATES FOR THIS TIME STEP      L**3/T
     ------------------                 ------------------------

           IN:                                      IN:
           ---                                      ---
             STORAGE =    17959206.9213               STORAGE =      195208.7709
       CONSTANT HEAD =     1177555.3288         CONSTANT HEAD =       12799.5144
               WELLS =           0.0000                 WELLS =           0.0000
            RECHARGE =     1269600.0000              RECHARGE =       13800.0000
      STREAM LEAKAGE =      363520.0142        STREAM LEAKAGE =        3951.3045

            TOTAL IN =    20769882.2643              TOTAL IN =      225759.5898

          OUT:                                     OUT:
          ----                                     ----
             STORAGE =           0.0000               STORAGE =           0.0000
       CONSTANT HEAD =           0.0000         CONSTANT HEAD =           0.0000
               WELLS =     2568161.5018                 WELLS =       27914.7989
            RECHARGE =           0.0000              RECHARGE =           0.0000
      STREAM LEAKAGE =    18201721.0620        STREAM LEAKAGE =      197844.7942

           TOTAL OUT =    20769882.5638             TOTAL OUT =      225759.5931

            IN - OUT =          -0.2995              IN - OUT =      -3.2553E-03

 PERCENT DISCREPANCY =          -0.00     PERCENT DISCREPANCY =          -0.00






         TIME SUMMARY AT END OF TIME STEP    1 IN STRESS PERIOD    1
                    SECONDS     MINUTES      HOURS       DAYS        YEARS
                    -----------------------------------------------------------
   TIME STEP LENGTH 7.94880E+06 1.32480E+05  2208.0      92.000     0.25188    
 STRESS PERIOD TIME 7.94880E+06 1.32480E+05  2208.0      92.000     0.25188    
         TOTAL TIME 7.94880E+06 1.32480E+05  2208.0      92.000     0.25188    
1
1
                            STRESS PERIOD NO.    2, LENGTH =   91.00000    
                            -----------------------------------------------

                              NUMBER OF TIME STEPS =     1

                               MULTIPLIER FOR DELT =     1.500

                            INITIAL TIME STEP SIZE =   91.00000    

 WELL NO.  LAYER   ROW   COL   STRESS RATE         
 --------------------------------------------------
      1      1     10     17     -0.1009E+05
      2      1     11     19      -420.2    
      3      1     19     16      -9508.    
      4      1      6     15      -7895.    

      4 WELLS

                 RECHARGE =  2.000000E-03

 REUSING STREAM SEGMENT DATA FROM LAST STRESS PERIOD
 
 SOLVING FOR HEAD 


     7 CALLS TO PCG ROUTINE FOR TIME STEP   1 IN STRESS PERIOD    2
    27 TOTAL ITERATIONS

 OUTPUT CONTROL FOR STRESS PERIOD    2   TIME STEP    1
    SAVE BUDGET
    SAVE HEAD FOR ALL LAYERS
    PRINT HEAD FOR ALL LAYERS
 UBDSV2 SAVING "STREAMFLOW OUT  " ON UNIT  50 AT TIME STEP  1, STRESS PERIOD   2



 STREAM LISTING     PERIOD      2   STEP        1

 LAYER ROW COL. STREAM  RCH.  FLOW INTO     FLOW TO   FLOW OUT OF   OVRLND.     DIRECT     STREAM       STREAM     STREAM     STREAM   STREAMBED  STREAMBED
                SEG.NO.  NO.  STRM. RCH.    AQUIFER    STRM. RCH.    RUNOFF     PRECIP       ET          HEAD       DEPTH      WIDTH   CONDCTNC.   GRADIENT

   1   13    1     1     1    1.0000E+05 -3.9501E+03   1.0395E+05  0.000E+00  0.000E+00  0.000E+00  4.84077E+01  1.464E-01  2.000E+01  2.000E+04 -1.975E-01
   1   13    2     1     2    1.0395E+05 -5.2098E+03   1.0916E+05  0.000E+00  0.000E+00  0.000E+00  4.79344E+01  1.503E-01  2.000E+01  2.000E+04 -2.605E-01
   1   14    3     1     3    1.0916E+05 -1.1095E+03   1.1027E+05  0.000E+00  0.000E+00  0.000E+00  4.74597E+01  1.529E-01  2.000E+01  2.000E+04 -5.548E-02
   1   15    4     1     4    1.1027E+05 -1.1353E+03   1.1140E+05  0.000E+00  0.000E+00  0.000E+00  4.69834E+01  1.539E-01  2.000E+01  2.000E+04 -5.677E-02
   1   16    5     1     5    1.1140E+05 -4.1792E+03   1.1558E+05  0.000E+00  0.000E+00  0.000E+00  4.65083E+01  1.561E-01  2.000E+01  2.000E+04 -2.090E-01
   1   16    6     1     6    1.1558E+05 -2.4459E+03   1.1803E+05  0.000E+00  0.000E+00  0.000E+00  4.60338E+01  1.588E-01  2.000E+01  2.000E+04 -1.223E-01
   1   16    7     1     7    1.1803E+05 -2.3328E+03   1.2036E+05  0.000E+00  0.000E+00  0.000E+00  4.55585E+01  1.607E-01  2.000E+01  2.000E+04 -1.166E-01
   1   16    8     1     8    1.2036E+05 -2.2741E+03   1.2264E+05  0.000E+00  0.000E+00  0.000E+00  4.50830E+01  1.626E-01  2.000E+01  2.000E+04 -1.137E-01
   1   16    9     1     9    1.2264E+05 -2.2096E+03   1.2485E+05  0.000E+00  0.000E+00  0.000E+00  4.46076E+01  1.644E-01  2.000E+01  2.000E+04 -1.105E-01
   1   16   10     1    10    1.2485E+05 -2.1189E+03   1.2697E+05  0.000E+00  0.000E+00  0.000E+00  4.41320E+01  1.661E-01  2.000E+01  2.000E+04 -1.059E-01
   1   16   11     1    11    1.2697E+05 -2.0108E+03   1.2898E+05  0.000E+00  0.000E+00  0.000E+00  4.36564E+01  1.677E-01  2.000E+01  2.000E+04 -1.005E-01
   1   16   12     1    12    1.2898E+05 -3.2094E+03   1.3219E+05  0.000E+00  0.000E+00  0.000E+00  4.31811E+01  1.698E-01  2.000E+01  2.000E+04 -1.605E-01
   1   15   13     1    13    1.3219E+05 -3.1650E+03   1.3535E+05  0.000E+00  0.000E+00  0.000E+00  4.27063E+01  1.722E-01  2.000E+01  2.000E+04 -1.583E-01
   1   14   14     1    14    1.3535E+05 -3.4922E+03   1.3884E+05  0.000E+00  0.000E+00  0.000E+00  4.22316E+01  1.748E-01  2.000E+01  2.000E+04 -1.746E-01
   1   13   15     1    15    1.3884E+05 -3.6564E+03   1.4250E+05  0.000E+00  0.000E+00  0.000E+00  4.17571E+01  1.775E-01  2.000E+01  2.000E+04 -1.828E-01
   1   12   16     1    16    1.4250E+05 -3.4340E+03   1.4593E+05  0.000E+00  0.000E+00  0.000E+00  4.12825E+01  1.802E-01  2.000E+01  2.000E+04 -1.717E-01
   1   12   17     1    17    1.4593E+05 -1.5338E+03   1.4747E+05  0.000E+00  0.000E+00  0.000E+00  4.08070E+01  1.820E-01  2.000E+01  2.000E+04 -7.669E-02
   1   12   18     1    18    1.4747E+05 -1.9711E+03   1.4944E+05  0.000E+00  0.000E+00  0.000E+00  4.03311E+01  1.833E-01  2.000E+01  2.000E+04 -9.855E-02
   1   12   19     1    19    1.4944E+05 -3.1645E+03   1.5260E+05  0.000E+00  0.000E+00  0.000E+00  3.98557E+01  1.852E-01  2.000E+01  2.000E+04 -1.582E-01
   1   13   20     1    20    1.5260E+05 -3.0840E+03   1.5569E+05  0.000E+00  0.000E+00  0.000E+00  3.93807E+01  1.875E-01  2.000E+01  2.000E+04 -1.542E-01
   1   14   21     1    21    1.5569E+05 -3.1546E+03   1.5884E+05  0.000E+00  0.000E+00  0.000E+00  3.89057E+01  1.898E-01  2.000E+01  2.000E+04 -1.577E-01
   1   14   22     1    22    1.5884E+05  4.4414E+03   1.5440E+05  0.000E+00  0.000E+00  0.000E+00  3.84280E+01  1.893E-01  2.000E+01  2.000E+04  2.221E-01
   1    9   30     2     1    5.0000E+04 -2.1024E+03   5.2102E+04  0.000E+00  0.000E+00  0.000E+00  4.02423E+01  1.173E-01  2.000E+01  2.000E+04 -1.051E-01
   1    9   29     2     2    5.2102E+04 -2.4046E+03   5.4507E+04  0.000E+00  0.000E+00  0.000E+00  3.99954E+01  1.204E-01  2.000E+01  2.000E+04 -1.202E-01
   1    9   28     2     3    5.4507E+04 -2.6890E+03   5.7196E+04  0.000E+00  0.000E+00  0.000E+00  3.97488E+01  1.238E-01  2.000E+01  2.000E+04 -1.344E-01
   1    9   27     2     4    5.7196E+04 -4.6607E+03   6.1857E+04  0.000E+00  0.000E+00  0.000E+00  3.95036E+01  1.286E-01  2.000E+01  2.000E+04 -2.330E-01
   1   10   26     2     5    6.1857E+04 -3.5467E+03   6.5403E+04  0.000E+00  0.000E+00  0.000E+00  3.92589E+01  1.339E-01  2.000E+01  2.000E+04 -1.773E-01
   1   11   25     2     6    6.5403E+04 -3.1252E+03   6.8529E+04  0.000E+00  0.000E+00  0.000E+00  3.90131E+01  1.381E-01  2.000E+01  2.000E+04 -1.563E-01
   1   12   24     2     7    6.8529E+04 -2.9447E+03   7.1473E+04  0.000E+00  0.000E+00  0.000E+00  3.87668E+01  1.418E-01  2.000E+01  2.000E+04 -1.472E-01
   1   13   23     2     8    7.1473E+04 -5.6225E+02   7.2036E+04  0.000E+00  0.000E+00  0.000E+00  3.85189E+01  1.439E-01  2.000E+01  2.000E+04 -2.811E-02
   1   14   22     2     9    7.2036E+04  1.2518E+03   7.0784E+04  0.000E+00  0.000E+00  0.000E+00  3.82685E+01  1.435E-01  2.000E+01  2.000E+04  6.259E-02
   1   14   22     3     1    2.2518E+05 -9.0529E+03   2.3424E+05  0.000E+00  0.000E+00  0.000E+00  3.77533E+01  1.977E-01  2.000E+01  2.000E+04 -4.526E-01
   1   15   23     3     2    2.3424E+05 -9.7376E+02   2.3521E+05  0.000E+00  0.000E+00  0.000E+00  3.68669E+01  2.003E-01  2.000E+01  2.000E+04 -4.869E-02
   1   15   24     3     3    2.3521E+05 -6.4870E+02   2.3586E+05  0.000E+00  0.000E+00  0.000E+00  3.59785E+01  2.007E-01  2.000E+01  2.000E+04 -3.243E-02
   1   15   25     3     4    2.3586E+05 -6.6263E+02   2.3652E+05  0.000E+00  0.000E+00  0.000E+00  3.50899E+01  2.010E-01  2.000E+01  2.000E+04 -3.313E-02
   1   15   26     3     5    2.3652E+05 -7.6896E+02   2.3729E+05  0.000E+00  0.000E+00  0.000E+00  3.42014E+01  2.014E-01  2.000E+01  2.000E+04 -3.845E-02
   1   16   27     3     6    2.3729E+05 -8.9106E+02   2.3818E+05  0.000E+00  0.000E+00  0.000E+00  3.33129E+01  2.018E-01  2.000E+01  2.000E+04 -4.455E-02
   1   17   28     3     7    2.3818E+05 -3.2221E+03   2.4140E+05  0.000E+00  0.000E+00  0.000E+00  3.24251E+01  2.029E-01  2.000E+01  2.000E+04 -1.611E-01
   1   18   29     3     8    2.4140E+05 -4.9686E+03   2.4637E+05  0.000E+00  0.000E+00  0.000E+00  3.15383E+01  2.049E-01  2.000E+01  2.000E+04 -2.484E-01
   1   18   30     3     9    2.4637E+05 -4.6343E+03   2.5101E+05  0.000E+00  0.000E+00  0.000E+00  3.06518E+01  2.073E-01  2.000E+01  2.000E+04 -2.317E-01



1
              HEAD IN LAYER   1 AT END OF TIME STEP   1 IN STRESS PERIOD    2
  ---------------------------------------------------------------------------

          1      2      3      4      5      6      7      8      9     10
         11     12     13     14     15     16     17     18     19     20
         21     22     23     24     25     26     27     28     29     30
 .........................................................................
   1  ****** ****** ****** ****** ****** ****** ****** ****** ****** ******
      ****** ****** ****** ****** ****** ****** ****** ****** ****** ******
      ****** ****** ****** ****** ****** ****** ****** ****** ****** ******
   2  ****** ****** ****** ****** ****** ****** ****** ****** ****** ******
      ****** ****** ****** ****** ****** ****** ****** ****** ****** ******
      ****** ****** ****** ****** ****** ****** ****** ****** ****** ******
   3  ****** ****** ****** ****** ****** ****** ****** ****** ****** ******
      ****** ****** ****** ****** ****** ****** ****** ****** ****** ******
      ****** ****** ****** ****** ****** ****** ****** ****** ****** ******
   4  ****** ****** ****** ****** ****** ****** ****** ****** ****** ******
      ****** ****** ****** ****** ****** ****** ****** ****** ****** ******
      ****** ****** ****** ****** ****** ****** ****** ****** ****** ******
   5  ****** ****** ****** ****** ****** ****** ****** ****** ****** ******
      ****** ****** ****** ****** ****** ****** ****** ****** ****** ******
      ****** ****** ****** ****** ****** ****** ****** ****** ****** ******
   6  ****** ****** ****** ****** ****** ****** ****** ****** ****** ******
      ****** ****** ****** ****** ****** ****** ****** ****** ****** ******
      ****** ****** ****** ****** ****** ****** ****** ****** ****** ******
   7  ****** ****** ****** ****** ****** ****** ****** ****** ****** ******
      ****** ****** ****** ****** ****** ****** ****** ****** ****** ******
      ****** ****** ****** ****** ****** ****** ****** ****** ****** ******
   8  ****** ****** ****** ****** ****** ****** ****** ****** ****** ******
      ****** ****** ****** ****** ****** ****** ****** ****** ****** ******
      ****** ****** ****** ****** ****** ****** ****** ****** ****** ******
   9  ****** ****** ****** ****** ****** ****** ****** ****** ****** ******
      ****** ****** ****** ****** ****** ****** ****** ****** ****** ******
      ****** ****** ****** ****** ****** ****** ****** ****** ****** ******
  10  ****** ****** ****** ****** ****** ****** ****** ****** ****** ******
      ****** ****** ****** ****** ****** ****** ****** ****** ****** ******
      ****** ****** ****** ****** ****** ****** ****** ****** ****** ******
  11  ****** ****** ****** ****** ****** ****** ****** ****** ****** ******
      ****** ****** ****** ****** ****** ****** ****** ****** ****** ******
      ****** ****** ****** ****** ****** ****** ****** ****** ****** ******
  12  ****** ****** ****** ****** ****** ****** ****** ****** ****** ******
      ****** ****** ****** ****** ****** ****** ****** ****** ****** ******
      ****** ****** ****** ****** ****** ****** ****** ****** ****** ******
  13  ****** ****** ****** ****** ****** ****** ****** ****** ****** ******
      ****** ****** ****** ****** ****** ****** ****** ****** ****** ******
      ****** ****** ****** ****** ****** ****** ****** ****** ****** ******
  14  ****** ****** ****** ****** ****** ****** ****** ****** ****** ******
      ****** ****** ****** ****** ****** ****** ****** ****** ****** ******
      ****** ****** ****** ****** ****** ****** ****** ****** ****** ******
  15  ****** ****** ****** ****** ****** ****** ****** ****** ****** ******
      ****** ****** ****** ****** ****** ****** ****** ****** ****** ******
      ****** ****** ****** ****** ****** ****** ****** ****** ****** ******
  16  ****** ****** ****** ****** ****** ****** ****** ****** ****** ******
      ****** ****** ****** ****** ****** ****** ****** ****** ****** ******
      ****** ****** ****** ****** ****** ****** ****** ****** ****** ******
  17  ****** ****** ****** ****** ****** ****** ****** ****** ****** ******
      ****** ****** ****** ****** ****** ****** ****** ****** ****** ******
      ****** ****** ****** ****** ****** ****** ****** ****** ****** ******
  18  ****** ****** ****** ****** ****** ****** ****** ****** ****** ******
      ****** ****** ****** ****** ****** ****** ****** ****** ****** ******
      ****** ****** ****** ****** ****** ****** ****** ****** ****** ******
  19  ****** ****** ****** ****** ****** ****** ****** ****** ****** ******
      ****** ****** ****** ****** ****** ****** ****** ****** ****** ******
      ****** ****** ****** ****** ****** ****** ****** ****** ****** ******
  20  ****** ****** ****** ****** ****** ****** ****** ****** ****** ******
      ****** ****** ****** ****** ****** ****** ****** ****** ****** ******
      ****** ****** ****** ****** ****** ****** ****** ****** ****** ******
  21  ****** ****** ****** ****** ****** ****** ****** ****** ****** ******
      ****** ****** ****** ****** ****** ****** ****** ****** ****** ******
      ****** ****** ****** ****** ****** ****** ****** ****** ****** ******
  22  ****** ****** ****** ****** ****** ****** ****** ****** ****** ******
      ****** ****** ****** ****** ****** ****** ****** ****** ****** ******
      ****** ****** ****** ****** ****** ****** ****** ****** ****** ******
  23  ****** ****** ****** ****** ****** ****** ****** ****** ****** ******
      ****** ****** ****** ****** ****** ****** ****** ****** ****** ******
      ****** ****** ****** ****** ****** ****** ****** ****** ****** ******
  24  ****** ****** ****** ****** ****** ****** ****** ****** ****** ******
      ****** ****** ****** ****** ****** ****** ****** ****** ****** ******
      ****** ****** ****** ****** ****** ****** ****** ****** ****** ******
  25  ****** ****** ****** ****** ****** ****** ****** ****** ****** ******
      ****** ****** ****** ****** ****** ****** ****** ****** ****** ******
      ****** ****** ****** ****** ****** ****** ****** ****** ****** ******

 HEAD WILL BE SAVED ON UNIT   51 AT END OF TIME STEP    1, STRESS PERIOD    2
1
  VOLUMETRIC BUDGET FOR ENTIRE MODEL AT END OF TIME STEP    1, STRESS PERIOD   2
  ------------------------------------------------------------------------------

     CUMULATIVE VOLUMES      L**3       RATES FOR THIS TIME STEP      L**3/T
     ------------------                 ------------------------

           IN:                                      IN:
           ---                                      ---
             STORAGE =    23065523.6249               STORAGE =       56113.3704
       CONSTANT HEAD =     2779862.4998         CONSTANT HEAD =       17607.7711
               WELLS =           0.0000                 WELLS =           0.0000
            RECHARGE =     6292800.0000              RECHARGE =       55200.0000
      STREAM LEAKAGE =      881595.8737        STREAM LEAKAGE =        5693.1413

            TOTAL IN =    33019781.9985              TOTAL IN =      134614.2828

          OUT:                                     OUT:
          ----                                     ----
             STORAGE =           0.0000               STORAGE =           0.0000
       CONSTANT HEAD =           0.0000         CONSTANT HEAD =           0.0000
               WELLS =     5108408.2047                 WELLS =       27914.7989
            RECHARGE =           0.0000              RECHARGE =           0.0000
      STREAM LEAKAGE =    27911375.0438        STREAM LEAKAGE =      106699.4943

           TOTAL OUT =    33019783.2486             TOTAL OUT =      134614.2932

            IN - OUT =          -1.2501              IN - OUT =      -1.0446E-02

 PERCENT DISCREPANCY =          -0.00     PERCENT DISCREPANCY =          -0.00






         TIME SUMMARY AT END OF TIME STEP    1 IN STRESS PERIOD    2
                    SECONDS     MINUTES      HOURS       DAYS        YEARS
                    -----------------------------------------------------------
   TIME STEP LENGTH 7.86240E+06 1.31040E+05  2184.0      91.000     0.24914    
 STRESS PERIOD TIME 7.86240E+06 1.31040E+05  2184.0      91.000     0.24914    
         TOTAL TIME 1.58112E+07 2.63520E+05  4392.0      183.00     0.50103    
1
1
                            STRESS PERIOD NO.    3, LENGTH =   91.00000    
                            -----------------------------------------------

                              NUMBER OF TIME STEPS =     1

                               MULTIPLIER FOR DELT =     1.500

                            INITIAL TIME STEP SIZE =   91.00000    

 WELL NO.  LAYER   ROW   COL   STRESS RATE         
 --------------------------------------------------
      1      1     10     17     -0.1009E+05
      2      1     11     19      -420.2    
      3      1     19     16      -9508.    
      4      1      6     15      -7895.    

      4 WELLS

                 RECHARGE =   0.00000    

 REUSING STREAM SEGMENT DATA FROM LAST STRESS PERIOD
 
 SOLVING FOR HEAD 


     7 CALLS TO PCG ROUTINE FOR TIME STEP   1 IN STRESS PERIOD    3
    27 TOTAL ITERATIONS

 OUTPUT CONTROL FOR STRESS PERIOD    3   TIME STEP    1
    SAVE BUDGET
    SAVE HEAD FOR ALL LAYERS
    PRINT HEAD FOR ALL LAYERS
 UBDSV2 SAVING "STREAMFLOW OUT  " ON UNIT  50 AT TIME STEP  1, STRESS PERIOD   3



 STREAM LISTING     PERIOD      3   STEP        1

 LAYER ROW COL. STREAM  RCH.  FLOW INTO     FLOW TO   FLOW OUT OF   OVRLND.     DIRECT     STREAM       STREAM     STREAM     STREAM   STREAMBED  STREAMBED
                SEG.NO.  NO.  STRM. RCH.    AQUIFER    STRM. RCH.    RUNOFF     PRECIP       ET          HEAD       DEPTH      WIDTH   CONDCTNC.   GRADIENT

   1   13    1     1     1    1.0000E+05 -2.6651E+03   1.0267E+05  0.000E+00  0.000E+00  0.000E+00  4.84072E+01  1.458E-01  2.000E+01  2.000E+04 -1.333E-01
   1   13    2     1     2    1.0267E+05 -3.7688E+03   1.0643E+05  0.000E+00  0.000E+00  0.000E+00  4.79327E+01  1.486E-01  2.000E+01  2.000E+04 -1.884E-01
   1   14    3     1     3    1.0643E+05 -6.4435E+02   1.0708E+05  0.000E+00  0.000E+00  0.000E+00  4.74573E+01  1.504E-01  2.000E+01  2.000E+04 -3.222E-02
   1   15    4     1     4    1.0708E+05 -6.2562E+02   1.0770E+05  0.000E+00  0.000E+00  0.000E+00  4.69805E+01  1.510E-01  2.000E+01  2.000E+04 -3.128E-02
   1   16    5     1     5    1.0770E+05 -2.3568E+03   1.1006E+05  0.000E+00  0.000E+00  0.000E+00  4.65045E+01  1.522E-01  2.000E+01  2.000E+04 -1.178E-01
   1   16    6     1     6    1.1006E+05 -1.4235E+03   1.1148E+05  0.000E+00  0.000E+00  0.000E+00  4.60288E+01  1.538E-01  2.000E+01  2.000E+04 -7.117E-02
   1   16    7     1     7    1.1148E+05 -1.3654E+03   1.1285E+05  0.000E+00  0.000E+00  0.000E+00  4.55527E+01  1.550E-01  2.000E+01  2.000E+04 -6.827E-02
   1   16    8     1     8    1.1285E+05 -1.3201E+03   1.1417E+05  0.000E+00  0.000E+00  0.000E+00  4.50765E+01  1.561E-01  2.000E+01  2.000E+04 -6.601E-02
   1   16    9     1     9    1.1417E+05 -1.2541E+03   1.1542E+05  0.000E+00  0.000E+00  0.000E+00  4.46003E+01  1.571E-01  2.000E+01  2.000E+04 -6.271E-02
   1   16   10     1    10    1.1542E+05 -1.1564E+03   1.1658E+05  0.000E+00  0.000E+00  0.000E+00  4.41240E+01  1.581E-01  2.000E+01  2.000E+04 -5.782E-02
   1   16   11     1    11    1.1658E+05 -1.0320E+03   1.1761E+05  0.000E+00  0.000E+00  0.000E+00  4.36477E+01  1.590E-01  2.000E+01  2.000E+04 -5.160E-02
   1   16   12     1    12    1.1761E+05 -1.4843E+03   1.1910E+05  0.000E+00  0.000E+00  0.000E+00  4.31714E+01  1.600E-01  2.000E+01  2.000E+04 -7.421E-02
   1   15   13     1    13    1.1910E+05 -1.3966E+03   1.2049E+05  0.000E+00  0.000E+00  0.000E+00  4.26953E+01  1.612E-01  2.000E+01  2.000E+04 -6.983E-02
   1   14   14     1    14    1.2049E+05 -1.6649E+03   1.2216E+05  0.000E+00  0.000E+00  0.000E+00  4.22193E+01  1.624E-01  2.000E+01  2.000E+04 -8.324E-02
   1   13   15     1    15    1.2216E+05 -1.8116E+03   1.2397E+05  0.000E+00  0.000E+00  0.000E+00  4.17434E+01  1.638E-01  2.000E+01  2.000E+04 -9.058E-02
   1   12   16     1    16    1.2397E+05 -1.4947E+03   1.2546E+05  0.000E+00  0.000E+00  0.000E+00  4.12674E+01  1.652E-01  2.000E+01  2.000E+04 -7.474E-02
   1   12   17     1    17    1.2546E+05 -1.4552E+02   1.2561E+05  0.000E+00  0.000E+00  0.000E+00  4.07908E+01  1.658E-01  2.000E+01  2.000E+04 -7.276E-03
   1   12   18     1    18    1.2561E+05 -6.1267E+02   1.2622E+05  0.000E+00  0.000E+00  0.000E+00  4.03138E+01  1.661E-01  2.000E+01  2.000E+04 -3.063E-02
   1   12   19     1    19    1.2622E+05 -1.4720E+03   1.2769E+05  0.000E+00  0.000E+00  0.000E+00  3.98374E+01  1.669E-01  2.000E+01  2.000E+04 -7.360E-02
   1   13   20     1    20    1.2769E+05 -1.5549E+03   1.2925E+05  0.000E+00  0.000E+00  0.000E+00  3.93613E+01  1.681E-01  2.000E+01  2.000E+04 -7.775E-02
   1   14   21     1    21    1.2925E+05 -1.5998E+03   1.3085E+05  0.000E+00  0.000E+00  0.000E+00  3.88853E+01  1.694E-01  2.000E+01  2.000E+04 -7.999E-02
   1   14   22     1    22    1.3085E+05  4.8025E+03   1.2605E+05  0.000E+00  0.000E+00  0.000E+00  3.84067E+01  1.681E-01  2.000E+01  2.000E+04  2.401E-01
   1    9   30     2     1    5.0000E+04 -8.9198E+02   5.0892E+04  0.000E+00  0.000E+00  0.000E+00  4.02415E+01  1.165E-01  2.000E+01  2.000E+04 -4.460E-02
   1    9   29     2     2    5.0892E+04 -1.1942E+03   5.2086E+04  0.000E+00  0.000E+00  0.000E+00  3.99929E+01  1.179E-01  2.000E+01  2.000E+04 -5.971E-02
   1    9   28     2     3    5.2086E+04 -1.4609E+03   5.3547E+04  0.000E+00  0.000E+00  0.000E+00  3.97447E+01  1.197E-01  2.000E+01  2.000E+04 -7.304E-02
   1    9   27     2     4    5.3547E+04 -2.8743E+03   5.6421E+04  0.000E+00  0.000E+00  0.000E+00  3.94977E+01  1.227E-01  2.000E+01  2.000E+04 -1.437E-01
   1   10   26     2     5    5.6421E+04 -1.8794E+03   5.8301E+04  0.000E+00  0.000E+00  0.000E+00  3.92508E+01  1.258E-01  2.000E+01  2.000E+04 -9.397E-02
   1   11   25     2     6    5.8301E+04 -1.5686E+03   5.9869E+04  0.000E+00  0.000E+00  0.000E+00  3.90031E+01  1.281E-01  2.000E+01  2.000E+04 -7.843E-02
   1   12   24     2     7    5.9869E+04 -1.5458E+03   6.1415E+04  0.000E+00  0.000E+00  0.000E+00  3.87551E+01  1.301E-01  2.000E+01  2.000E+04 -7.729E-02
   1   13   23     2     8    6.1415E+04 -2.1921E+02   6.1634E+04  0.000E+00  0.000E+00  0.000E+00  3.85062E+01  1.312E-01  2.000E+01  2.000E+04 -1.096E-02
   1   14   22     2     9    6.1634E+04  1.7723E+03   5.9862E+04  0.000E+00  0.000E+00  0.000E+00  3.82552E+01  1.302E-01  2.000E+01  2.000E+04  8.862E-02
   1   14   22     3     1    1.8591E+05 -8.6898E+03   1.9460E+05  0.000E+00  0.000E+00  0.000E+00  3.77321E+01  1.766E-01  2.000E+01  2.000E+04 -4.345E-01
   1   15   23     3     2    1.9460E+05 -5.6777E+02   1.9517E+05  0.000E+00  0.000E+00  0.000E+00  3.68458E+01  1.791E-01  2.000E+01  2.000E+04 -2.839E-02
   1   15   24     3     3    1.9517E+05 -3.2184E+02   1.9549E+05  0.000E+00  0.000E+00  0.000E+00  3.59572E+01  1.794E-01  2.000E+01  2.000E+04 -1.609E-02
   1   15   25     3     4    1.9549E+05 -3.2089E+02   1.9581E+05  0.000E+00  0.000E+00  0.000E+00  3.50684E+01  1.796E-01  2.000E+01  2.000E+04 -1.604E-02
   1   15   26     3     5    1.9581E+05 -3.6383E+02   1.9617E+05  0.000E+00  0.000E+00  0.000E+00  3.41797E+01  1.797E-01  2.000E+01  2.000E+04 -1.819E-02
   1   16   27     3     6    1.9617E+05 -4.2282E+02   1.9660E+05  0.000E+00  0.000E+00  0.000E+00  3.32911E+01  1.800E-01  2.000E+01  2.000E+04 -2.114E-02
   1   17   28     3     7    1.9660E+05 -1.7977E+03   1.9839E+05  0.000E+00  0.000E+00  0.000E+00  3.24028E+01  1.806E-01  2.000E+01  2.000E+04 -8.988E-02
   1   18   29     3     8    1.9839E+05 -3.4213E+03   2.0181E+05  0.000E+00  0.000E+00  0.000E+00  3.15153E+01  1.820E-01  2.000E+01  2.000E+04 -1.711E-01
   1   18   30     3     9    2.0181E+05 -3.4801E+03   2.0529E+05  0.000E+00  0.000E+00  0.000E+00  3.06283E+01  1.839E-01  2.000E+01  2.000E+04 -1.740E-01



1
              HEAD IN LAYER   1 AT END OF TIME STEP   1 IN STRESS PERIOD    3
  ---------------------------------------------------------------------------

          1      2      3      4      5      6      7      8      9     10
         11     12     13     14     15     16     17     18     19     20
         21     22     23     24     25     26     27     28     29     30
 .........................................................................
   1  ****** ****** ****** ****** ****** ****** ****** ****** ****** ******
      ****** ****** ****** ****** ****** ****** ****** ****** ****** ******
      ****** ****** ****** ****** ****** ****** ****** ****** ****** ******
   2  ****** ****** ****** ****** ****** ****** ****** ****** ****** ******
      ****** ****** ****** ****** ****** ****** ****** ****** ****** ******
      ****** ****** ****** ****** ****** ****** ****** ****** ****** ******
   3  ****** ****** ****** ****** ****** ****** ****** ****** ****** ******
      ****** ****** ****** ****** ****** ****** ****** ****** ****** ******
      ****** ****** ****** ****** ****** ****** ****** ****** ****** ******
   4  ****** ****** ****** ****** ****** ****** ****** ****** ****** ******
      ****** ****** ****** ****** ****** ****** ****** ****** ****** ******
      ****** ****** ****** ****** ****** ****** ****** ****** ****** ******
   5  ****** ****** ****** ****** ****** ****** ****** ****** ****** ******
      ****** ****** ****** ****** ****** ****** ****** ****** ****** ******
      ****** ****** ****** ****** ****** ****** ****** ****** ****** ******
   6  ****** ****** ****** ****** ****** ****** ****** ****** ****** ******
      ****** ****** ****** ****** ****** ****** ****** ****** ****** ******
      ****** ****** ****** ****** ****** ****** ****** ****** ****** ******
   7  ****** ****** ****** ****** ****** ****** ****** ****** ****** ******
      ****** ****** ****** ****** ****** ****** ****** ****** ****** ******
      ****** ****** ****** ****** ****** ****** ****** ****** ****** ******
   8  ****** ****** ****** ****** ****** ****** ****** ****** ****** ******
      ****** ****** ****** ****** ****** ****** ****** ****** ****** ******
      ****** ****** ****** ****** ****** ****** ****** ****** ****** ******
   9  ****** ****** ****** ****** ****** ****** ****** ****** ****** ******
      ****** ****** ****** ****** ****** ****** ****** ****** ****** ******
      ****** ****** ****** ****** ****** ****** ****** ****** ****** ******
  10  ****** ****** ****** ****** ****** ****** ****** ****** ****** ******
      ****** ****** ****** ****** ****** ****** ****** ****** ****** ******
      ****** ****** ****** ****** ****** ****** ****** ****** ****** ******
  11  ****** ****** ****** ****** ****** ****** ****** ****** ****** ******
      ****** ****** ****** ****** ****** ****** ****** ****** ****** ******
      ****** ****** ****** ****** ****** ****** ****** ****** ****** ******
  12  ****** ****** ****** ****** ****** ****** ****** ****** ****** ******
      ****** ****** ****** ****** ****** ****** ****** ****** ****** ******
      ****** ****** ****** ****** ****** ****** ****** ****** ****** ******
  13  ****** ****** ****** ****** ****** ****** ****** ****** ****** ******
      ****** ****** ****** ****** ****** ****** ****** ****** ****** ******
      ****** ****** ****** ****** ****** ****** ****** ****** ****** ******
  14  ****** ****** ****** ****** ****** ****** ****** ****** ****** ******
      ****** ****** ****** ****** ****** ****** ****** ****** ****** ******
      ****** ****** ****** ****** ****** ****** ****** ****** ****** ******
  15  ****** ****** ****** ****** ****** ****** ****** ****** ****** ******
      ****** ****** ****** ****** ****** ****** ****** ****** ****** ******
      ****** ****** ****** ****** ****** ****** ****** ****** ****** ******
  16  ****** ****** ****** ****** ****** ****** ****** ****** ****** ******
      ****** ****** ****** ****** ****** ****** ****** ****** ****** ******
      ****** ****** ****** ****** ****** ****** ****** ****** ****** ******
  17  ****** ****** ****** ****** ****** ****** ****** ****** ****** ******
      ****** ****** ****** ****** ****** ****** ****** ****** ****** ******
      ****** ****** ****** ****** ****** ****** ****** ****** ****** ******
  18  ****** ****** ****** ****** ****** ****** ****** ****** ****** ******
      ****** ****** ****** ****** ****** ****** ****** ****** ****** ******
      ****** ****** ****** ****** ****** ****** ****** ****** ****** ******
  19  ****** ****** ****** ****** ****** ****** ****** ****** ****** ******
      ****** ****** ****** ****** ****** ****** ****** ****** ****** ******
      ****** ****** ****** ****** ****** ****** ****** ****** ****** ******
  20  ****** ****** ****** ****** ****** ****** ****** ****** ****** ******
      ****** ****** ****** ****** ****** ****** ****** ****** ****** ******
      ****** ****** ****** ****** ****** ****** ****** ****** ****** ******
  21  ****** ****** ****** ****** ****** ****** ****** ****** ****** ******
      ****** ****** ****** ****** ****** ****** ****** ****** ****** ******
      ****** ****** ****** ****** ****** ****** ****** ****** ****** ******
  22  ****** ****** ****** ****** ****** ****** ****** ****** ****** ******
      ****** ****** ****** ****** ****** ****** ****** ****** ****** ******
      ****** ****** ****** ****** ****** ****** ****** ****** ****** ******
  23  ****** ****** ****** ****** ****** ****** ****** ****** ****** ******
      ****** ****** ****** ****** ****** ****** ****** ****** ****** ******
      ****** ****** ****** ****** ****** ****** ****** ****** ****** ******
  24  ****** ****** ****** ****** ****** ****** ****** ****** ****** ******
      ****** ****** ****** ****** ****** ****** ****** ****** ****** ******
      ****** ****** ****** ****** ****** ****** ****** ****** ****** ******
  25  ****** ****** ****** ****** ****** ****** ****** ****** ****** ******
      ****** ****** ****** ****** ****** ****** ****** ****** ****** ******
      ****** ****** ****** ****** ****** ****** ****** ****** ****** ******

 HEAD WILL BE SAVED ON UNIT   51 AT END OF TIME STEP    1, STRESS PERIOD    3
1
  VOLUMETRIC BUDGET FOR ENTIRE MODEL AT END OF TIME STEP    1, STRESS PERIOD   3
  ------------------------------------------------------------------------------

     CUMULATIVE VOLUMES      L**3       RATES FOR THIS TIME STEP      L**3/T
     ------------------                 ------------------------

           IN:                                      IN:
           ---                                      ---
             STORAGE =    28235051.5280               STORAGE =       56807.9989
       CONSTANT HEAD =     5182401.2621         CONSTANT HEAD =       26401.5249
               WELLS =           0.0000                 WELLS =           0.0000
            RECHARGE =     6292800.0000              RECHARGE =           0.0000
      STREAM LEAKAGE =     1479902.9217        STREAM LEAKAGE =        6574.8027

            TOTAL IN =    41190155.7118              TOTAL IN =       89784.3265

          OUT:                                     OUT:
          ----                                     ----
             STORAGE =           0.0000               STORAGE =           0.0000
       CONSTANT HEAD =           0.0000         CONSTANT HEAD =           0.0000
               WELLS =     7648654.9077                 WELLS =       27914.7989
            RECHARGE =           0.0000              RECHARGE =           0.0000
      STREAM LEAKAGE =    33541502.7336        STREAM LEAKAGE =       61869.5351

           TOTAL OUT =    41190157.6413             TOTAL OUT =       89784.3340

            IN - OUT =          -1.9295              IN - OUT =      -7.4656E-03

 PERCENT DISCREPANCY =          -0.00     PERCENT DISCREPANCY =          -0.00






         TIME SUMMARY AT END OF TIME STEP    1 IN STRESS PERIOD    3
                    SECONDS     MINUTES      HOURS       DAYS        YEARS
                    -----------------------------------------------------------
   TIME STEP LENGTH 7.86240E+06 1.31040E+05  2184.0      91.000     0.24914    
 STRESS PERIOD TIME 7.86240E+06 1.31040E+05  2184.0      91.000     0.24914    
         TOTAL TIME 2.36736E+07 3.94560E+05  6576.0      274.00     0.75017    
1
1
                            STRESS PERIOD NO.    4, LENGTH =   91.00000    
                            -----------------------------------------------

                              NUMBER OF TIME STEPS =     1

                               MULTIPLIER FOR DELT =     1.500

                            INITIAL TIME STEP SIZE =   91.00000    

 WELL NO.  LAYER   ROW   COL   STRESS RATE         
 --------------------------------------------------
      1      1     10     17     -0.1009E+05
      2      1     11     19      -420.2    
      3      1     19     16      -9508.    
      4      1      6     15      -7895.    

      4 WELLS

                 RECHARGE =  1.000000E-03

 REUSING STREAM SEGMENT DATA FROM LAST STRESS PERIOD
 
 SOLVING FOR HEAD 


     6 CALLS TO PCG ROUTINE FOR TIME STEP   1 IN STRESS PERIOD    4
    23 TOTAL ITERATIONS

 OUTPUT CONTROL FOR STRESS PERIOD    4   TIME STEP    1
    SAVE BUDGET
    SAVE HEAD FOR ALL LAYERS
    PRINT HEAD FOR ALL LAYERS
 UBDSV2 SAVING "STREAMFLOW OUT  " ON UNIT  50 AT TIME STEP  1, STRESS PERIOD   4



 STREAM LISTING     PERIOD      4   STEP        1

 LAYER ROW COL. STREAM  RCH.  FLOW INTO     FLOW TO   FLOW OUT OF   OVRLND.     DIRECT     STREAM       STREAM     STREAM     STREAM   STREAMBED  STREAMBED
                SEG.NO.  NO.  STRM. RCH.    AQUIFER    STRM. RCH.    RUNOFF     PRECIP       ET          HEAD       DEPTH      WIDTH   CONDCTNC.   GRADIENT

   1   13    1     1     1    1.0000E+05 -2.4001E+03   1.0240E+05  0.000E+00  0.000E+00  0.000E+00  4.84071E+01  1.457E-01  2.000E+01  2.000E+04 -1.200E-01
   1   13    2     1     2    1.0240E+05 -3.4629E+03   1.0586E+05  0.000E+00  0.000E+00  0.000E+00  4.79323E+01  1.482E-01  2.000E+01  2.000E+04 -1.731E-01
   1   14    3     1     3    1.0586E+05 -6.1197E+02   1.0648E+05  0.000E+00  0.000E+00  0.000E+00  4.74568E+01  1.499E-01  2.000E+01  2.000E+04 -3.060E-02
   1   15    4     1     4    1.0648E+05 -5.8361E+02   1.0706E+05  0.000E+00  0.000E+00  0.000E+00  4.69800E+01  1.504E-01  2.000E+01  2.000E+04 -2.918E-02
   1   16    5     1     5    1.0706E+05 -2.0391E+03   1.0910E+05  0.000E+00  0.000E+00  0.000E+00  4.65038E+01  1.516E-01  2.000E+01  2.000E+04 -1.020E-01
   1   16    6     1     6    1.0910E+05 -1.2642E+03   1.1036E+05  0.000E+00  0.000E+00  0.000E+00  4.60279E+01  1.529E-01  2.000E+01  2.000E+04 -6.321E-02
   1   16    7     1     7    1.1036E+05 -1.2163E+03   1.1158E+05  0.000E+00  0.000E+00  0.000E+00  4.55517E+01  1.540E-01  2.000E+01  2.000E+04 -6.082E-02
   1   16    8     1     8    1.1158E+05 -1.1737E+03   1.1275E+05  0.000E+00  0.000E+00  0.000E+00  4.50754E+01  1.550E-01  2.000E+01  2.000E+04 -5.869E-02
   1   16    9     1     9    1.1275E+05 -1.1087E+03   1.1386E+05  0.000E+00  0.000E+00  0.000E+00  4.45991E+01  1.559E-01  2.000E+01  2.000E+04 -5.543E-02
   1   16   10     1    10    1.1386E+05 -1.0122E+03   1.1487E+05  0.000E+00  0.000E+00  0.000E+00  4.41227E+01  1.568E-01  2.000E+01  2.000E+04 -5.061E-02
   1   16   11     1    11    1.1487E+05 -8.8495E+02   1.1576E+05  0.000E+00  0.000E+00  0.000E+00  4.36462E+01  1.576E-01  2.000E+01  2.000E+04 -4.425E-02
   1   16   12     1    12    1.1576E+05 -1.1748E+03   1.1693E+05  0.000E+00  0.000E+00  0.000E+00  4.31698E+01  1.584E-01  2.000E+01  2.000E+04 -5.874E-02
   1   15   13     1    13    1.1693E+05 -1.1017E+03   1.1803E+05  0.000E+00  0.000E+00  0.000E+00  4.26934E+01  1.593E-01  2.000E+01  2.000E+04 -5.509E-02
   1   14   14     1    14    1.1803E+05 -1.3409E+03   1.1938E+05  0.000E+00  0.000E+00  0.000E+00  4.22171E+01  1.603E-01  2.000E+01  2.000E+04 -6.705E-02
   1   13   15     1    15    1.1938E+05 -1.4560E+03   1.2083E+05  0.000E+00  0.000E+00  0.000E+00  4.17410E+01  1.615E-01  2.000E+01  2.000E+04 -7.280E-02
   1   12   16     1    16    1.2083E+05 -1.0280E+03   1.2186E+05  0.000E+00  0.000E+00  0.000E+00  4.12647E+01  1.625E-01  2.000E+01  2.000E+04 -5.140E-02
   1   12   17     1    17    1.2186E+05  1.3374E+02   1.2173E+05  0.000E+00  0.000E+00  0.000E+00  4.07878E+01  1.628E-01  2.000E+01  2.000E+04  6.687E-03
   1   12   18     1    18    1.2173E+05 -3.5499E+02   1.2208E+05  0.000E+00  0.000E+00  0.000E+00  4.03106E+01  1.629E-01  2.000E+01  2.000E+04 -1.775E-02
   1   12   19     1    19    1.2208E+05 -1.1557E+03   1.2324E+05  0.000E+00  0.000E+00  0.000E+00  3.98340E+01  1.635E-01  2.000E+01  2.000E+04 -5.778E-02
   1   13   20     1    20    1.2324E+05 -1.3510E+03   1.2459E+05  0.000E+00  0.000E+00  0.000E+00  3.93577E+01  1.645E-01  2.000E+01  2.000E+04 -6.755E-02
   1   14   21     1    21    1.2459E+05 -1.3366E+03   1.2592E+05  0.000E+00  0.000E+00  0.000E+00  3.88815E+01  1.656E-01  2.000E+01  2.000E+04 -6.683E-02
   1   14   22     1    22    1.2592E+05  4.8412E+03   1.2108E+05  0.000E+00  0.000E+00  0.000E+00  3.84028E+01  1.642E-01  2.000E+01  2.000E+04  2.421E-01
   1    9   30     2     1    5.0000E+04 -7.9653E+02   5.0797E+04  0.000E+00  0.000E+00  0.000E+00  4.02414E+01  1.164E-01  2.000E+01  2.000E+04 -3.983E-02
   1    9   29     2     2    5.0797E+04 -1.0907E+03   5.1887E+04  0.000E+00  0.000E+00  0.000E+00  3.99927E+01  1.177E-01  2.000E+01  2.000E+04 -5.454E-02
   1    9   28     2     3    5.1887E+04 -1.3346E+03   5.3222E+04  0.000E+00  0.000E+00  0.000E+00  3.97444E+01  1.194E-01  2.000E+01  2.000E+04 -6.673E-02
   1    9   27     2     4    5.3222E+04 -2.5821E+03   5.5804E+04  0.000E+00  0.000E+00  0.000E+00  3.94970E+01  1.220E-01  2.000E+01  2.000E+04 -1.291E-01
   1   10   26     2     5    5.5804E+04 -1.7011E+03   5.7505E+04  0.000E+00  0.000E+00  0.000E+00  3.92499E+01  1.249E-01  2.000E+01  2.000E+04 -8.506E-02
   1   11   25     2     6    5.7505E+04 -1.4308E+03   5.8936E+04  0.000E+00  0.000E+00  0.000E+00  3.90019E+01  1.269E-01  2.000E+01  2.000E+04 -7.154E-02
   1   12   24     2     7    5.8936E+04 -1.4244E+03   6.0360E+04  0.000E+00  0.000E+00  0.000E+00  3.87538E+01  1.288E-01  2.000E+01  2.000E+04 -7.122E-02
   1   13   23     2     8    6.0360E+04 -2.4106E+02   6.0601E+04  0.000E+00  0.000E+00  0.000E+00  3.85049E+01  1.299E-01  2.000E+01  2.000E+04 -1.205E-02
   1   14   22     2     9    6.0601E+04  1.8614E+03   5.8740E+04  0.000E+00  0.000E+00  0.000E+00  3.82538E+01  1.288E-01  2.000E+01  2.000E+04  9.307E-02
   1   14   22     3     1    1.7982E+05 -8.6414E+03   1.8846E+05  0.000E+00  0.000E+00  0.000E+00  3.77287E+01  1.731E-01  2.000E+01  2.000E+04 -4.321E-01
   1   15   23     3     2    1.8846E+05 -5.3814E+02   1.8900E+05  0.000E+00  0.000E+00  0.000E+00  3.68424E+01  1.757E-01  2.000E+01  2.000E+04 -2.691E-02
   1   15   24     3     3    1.8900E+05 -3.1893E+02   1.8932E+05  0.000E+00  0.000E+00  0.000E+00  3.59537E+01  1.760E-01  2.000E+01  2.000E+04 -1.595E-02
   1   15   25     3     4    1.8932E+05 -3.1858E+02   1.8964E+05  0.000E+00  0.000E+00  0.000E+00  3.50650E+01  1.761E-01  2.000E+01  2.000E+04 -1.593E-02
   1   15   26     3     5    1.8964E+05 -3.7210E+02   1.9001E+05  0.000E+00  0.000E+00  0.000E+00  3.41763E+01  1.763E-01  2.000E+01  2.000E+04 -1.861E-02
   1   16   27     3     6    1.9001E+05 -4.2156E+02   1.9043E+05  0.000E+00  0.000E+00  0.000E+00  3.32877E+01  1.765E-01  2.000E+01  2.000E+04 -2.108E-02
   1   17   28     3     7    1.9043E+05 -1.7275E+03   1.9216E+05  0.000E+00  0.000E+00  0.000E+00  3.23994E+01  1.771E-01  2.000E+01  2.000E+04 -8.637E-02
   1   18   29     3     8    1.9216E+05 -3.1883E+03   1.9535E+05  0.000E+00  0.000E+00  0.000E+00  3.15118E+01  1.785E-01  2.000E+01  2.000E+04 -1.594E-01
   1   18   30     3     9    1.9535E+05 -3.3630E+03   1.9871E+05  0.000E+00  0.000E+00  0.000E+00  3.06248E+01  1.803E-01  2.000E+01  2.000E+04 -1.681E-01



1
              HEAD IN LAYER   1 AT END OF TIME STEP   1 IN STRESS PERIOD    4
  ---------------------------------------------------------------------------

          1      2      3      4      5      6      7      8      9     10
         11     12     13     14     15     16     17     18     19     20
         21     22     23     24     25     26     27     28     29     30
 .........................................................................
   1  ****** ****** ****** ****** ****** ****** ****** ****** ****** ******
      ****** ****** ****** ****** ****** ****** ****** ****** ****** ******
      ****** ****** ****** ****** ****** ****** ****** ****** ****** ******
   2  ****** ****** ****** ****** ****** ****** ****** ****** ****** ******
      ****** ****** ****** ****** ****** ****** ****** ****** ****** ******
      ****** ****** ****** ****** ****** ****** ****** ****** ****** ******
   3  ****** ****** ****** ****** ****** ****** ****** ****** ****** ******
      ****** ****** ****** ****** ****** ****** ****** ****** ****** ******
      ****** ****** ****** ****** ****** ****** ****** ****** ****** ******
   4  ****** ****** ****** ****** ****** ****** ****** ****** ****** ******
      ****** ****** ****** ****** ****** ****** ****** ****** ****** ******
      ****** ****** ****** ****** ****** ****** ****** ****** ****** ******
   5  ****** ****** ****** ****** ****** ****** ****** ****** ****** ******
      ****** ****** ****** ****** ****** ****** ****** ****** ****** ******
      ****** ****** ****** ****** ****** ****** ****** ****** ****** ******
   6  ****** ****** ****** ****** ****** ****** ****** ****** ****** ******
      ****** ****** ****** ****** ****** ****** ****** ****** ****** ******
      ****** ****** ****** ****** ****** ****** ****** ****** ****** ******
   7  ****** ****** ****** ****** ****** ****** ****** ****** ****** ******
      ****** ****** ****** ****** ****** ****** ****** ****** ****** ******
      ****** ****** ****** ****** ****** ****** ****** ****** ****** ******
   8  ****** ****** ****** ****** ****** ****** ****** ****** ****** ******
      ****** ****** ****** ****** ****** ****** ****** ****** ****** ******
      ****** ****** ****** ****** ****** ****** ****** ****** ****** ******
   9  ****** ****** ****** ****** ****** ****** ****** ****** ****** ******
      ****** ****** ****** ****** ****** ****** ****** ****** ****** ******
      ****** ****** ****** ****** ****** ****** ****** ****** ****** ******
  10  ****** ****** ****** ****** ****** ****** ****** ****** ****** ******
      ****** ****** ****** ****** ****** ****** ****** ****** ****** ******
      ****** ****** ****** ****** ****** ****** ****** ****** ****** ******
  11  ****** ****** ****** ****** ****** ****** ****** ****** ****** ******
      ****** ****** ****** ****** ****** ****** ****** ****** ****** ******
      ****** ****** ****** ****** ****** ****** ****** ****** ****** ******
  12  ****** ****** ****** ****** ****** ****** ****** ****** ****** ******
      ****** ****** ****** ****** ****** ****** ****** ****** ****** ******
      ****** ****** ****** ****** ****** ****** ****** ****** ****** ******
  13  ****** ****** ****** ****** ****** ****** ****** ****** ****** ******
      ****** ****** ****** ****** ****** ****** ****** ****** ****** ******
      ****** ****** ****** ****** ****** ****** ****** ****** ****** ******
  14  ****** ****** ****** ****** ****** ****** ****** ****** ****** ******
      ****** ****** ****** ****** ****** ****** ****** ****** ****** ******
      ****** ****** ****** ****** ****** ****** ****** ****** ****** ******
  15  ****** ****** ****** ****** ****** ****** ****** ****** ****** ******
      ****** ****** ****** ****** ****** ****** ****** ****** ****** ******
      ****** ****** ****** ****** ****** ****** ****** ****** ****** ******
  16  ****** ****** ****** ****** ****** ****** ****** ****** ****** ******
      ****** ****** ****** ****** ****** ****** ****** ****** ****** ******
      ****** ****** ****** ****** ****** ****** ****** ****** ****** ******
  17  ****** ****** ****** ****** ****** ****** ****** ****** ****** ******
      ****** ****** ****** ****** ****** ****** ****** ****** ****** ******
      ****** ****** ****** ****** ****** ****** ****** ****** ****** ******
  18  ****** ****** ****** ****** ****** ****** ****** ****** ****** ******
      ****** ****** ****** ****** ****** ****** ****** ****** ****** ******
      ****** ****** ****** ****** ****** ****** ****** ****** ****** ******
  19  ****** ****** ****** ****** ****** ****** ****** ****** ****** ******
      ****** ****** ****** ****** ****** ****** ****** ****** ****** ******
      ****** ****** ****** ****** ****** ****** ****** ****** ****** ******
  20  ****** ****** ****** ****** ****** ****** ****** ****** ****** ******
      ****** ****** ****** ****** ****** ****** ****** ****** ****** ******
      ****** ****** ****** ****** ****** ****** ****** ****** ****** ******
  21  ****** ****** ****** ****** ****** ****** ****** ****** ****** ******
      ****** ****** ****** ****** ****** ****** ****** ****** ****** ******
      ****** ****** ****** ****** ****** ****** ****** ****** ****** ******
  22  ****** ****** ****** ****** ****** ****** ****** ****** ****** ******
      ****** ****** ****** ****** ****** ****** ****** ****** ****** ******
      ****** ****** ****** ****** ****** ****** ****** ****** ****** ******
  23  ****** ****** ****** ****** ****** ****** ****** ****** ****** ******
      ****** ****** ****** ****** ****** ****** ****** ****** ****** ******
      ****** ****** ****** ****** ****** ****** ****** ****** ****** ******
  24  ****** ****** ****** ****** ****** ****** ****** ****** ****** ******
      ****** ****** ****** ****** ****** ****** ****** ****** ****** ******
      ****** ****** ****** ****** ****** ****** ****** ****** ****** ******
  25  ****** ****** ****** ****** ****** ****** ****** ****** ****** ******
      ****** ****** ****** ****** ****** ****** ****** ****** ****** ******
      ****** ****** ****** ****** ****** ****** ****** ****** ****** ******

 HEAD WILL BE SAVED ON UNIT   51 AT END OF TIME STEP    1, STRESS PERIOD    4
1
  VOLUMETRIC BUDGET FOR ENTIRE MODEL AT END OF TIME STEP    1, STRESS PERIOD   4
  ------------------------------------------------------------------------------

     CUMULATIVE VOLUMES      L**3       RATES FOR THIS TIME STEP      L**3/T
     ------------------                 ------------------------

           IN:                                      IN:
           ---                                      ---
             STORAGE =    30041852.3964               STORAGE =       19854.9546
       CONSTANT HEAD =     7838230.8964         CONSTANT HEAD =       29184.9410
               WELLS =           0.0000                 WELLS =           0.0000
            RECHARGE =     8804400.0000              RECHARGE =       27600.0000
      STREAM LEAKAGE =     2102011.7340        STREAM LEAKAGE =        6836.3606

            TOTAL IN =    48786495.0267              TOTAL IN =       83476.2562

          OUT:                                     OUT:
          ----                                     ----
             STORAGE =        1194.7680               STORAGE =          13.1293
       CONSTANT HEAD =           0.0000         CONSTANT HEAD =           0.0000
               WELLS =    10188901.6106                 WELLS =       27914.7989
            RECHARGE =           0.0000              RECHARGE =           0.0000
      STREAM LEAKAGE =    38596400.6578        STREAM LEAKAGE =       55548.3288

           TOTAL OUT =    48786497.0364             TOTAL OUT =       83476.2571

            IN - OUT =          -2.0097              IN - OUT =      -8.8176E-04

 PERCENT DISCREPANCY =          -0.00     PERCENT DISCREPANCY =          -0.00






         TIME SUMMARY AT END OF TIME STEP    1 IN STRESS PERIOD    4
                    SECONDS     MINUTES      HOURS       DAYS        YEARS
                    -----------------------------------------------------------
   TIME STEP LENGTH 7.86240E+06 1.31040E+05  2184.0      91.000     0.24914    
 STRESS PERIOD TIME 7.86240E+06 1.31040E+05  2184.0      91.000     0.24914    
         TOTAL TIME 3.15360E+07 5.25600E+05  8760.0      365.00     0.99932    
1
1
                            STRESS PERIOD NO.    5, LENGTH =   92.00000    
                            -----------------------------------------------

                              NUMBER OF TIME STEPS =     1

                               MULTIPLIER FOR DELT =     1.500

                            INITIAL TIME STEP SIZE =   92.00000    

 WELL NO.  LAYER   ROW   COL   STRESS RATE         
 --------------------------------------------------
      1      1     10     17     -0.1009E+05
      2      1     11     19      -420.2    
      3      1     19     16      -9508.    
      4      1      6     15      -7895.    

      4 WELLS

                 RECHARGE =  5.000000E-04

 REUSING STREAM SEGMENT DATA FROM LAST STRESS PERIOD
 
 SOLVING FOR HEAD 


     7 CALLS TO PCG ROUTINE FOR TIME STEP   1 IN STRESS PERIOD    5
    26 TOTAL ITERATIONS

 OUTPUT CONTROL FOR STRESS PERIOD    5   TIME STEP    1
    SAVE BUDGET
    SAVE HEAD FOR ALL LAYERS
    PRINT HEAD FOR ALL LAYERS
 UBDSV2 SAVING "STREAMFLOW OUT  " ON UNIT  50 AT TIME STEP  1, STRESS PERIOD   5



 STREAM LISTING     PERIOD      5   STEP        1

 LAYER ROW COL. STREAM  RCH.  FLOW INTO     FLOW TO   FLOW OUT OF   OVRLND.     DIRECT     STREAM       STREAM     STREAM     STREAM   STREAMBED  STREAMBED
                SEG.NO.  NO.  STRM. RCH.    AQUIFER    STRM. RCH.    RUNOFF     PRECIP       ET          HEAD       DEPTH      WIDTH   CONDCTNC.   GRADIENT

   1   13    1     1     1    1.0000E+05 -1.9611E+03   1.0196E+05  0.000E+00  0.000E+00  0.000E+00  4.84069E+01  1.455E-01  2.000E+01  2.000E+04 -9.805E-02
   1   13    2     1     2    1.0196E+05 -2.9672E+03   1.0493E+05  0.000E+00  0.000E+00  0.000E+00  4.79317E+01  1.476E-01  2.000E+01  2.000E+04 -1.484E-01
   1   14    3     1     3    1.0493E+05 -4.8641E+02   1.0541E+05  0.000E+00  0.000E+00  0.000E+00  4.74559E+01  1.491E-01  2.000E+01  2.000E+04 -2.432E-02
   1   15    4     1     4    1.0541E+05 -4.5188E+02   1.0587E+05  0.000E+00  0.000E+00  0.000E+00  4.69790E+01  1.495E-01  2.000E+01  2.000E+04 -2.259E-02
   1   16    5     1     5    1.0587E+05 -1.5991E+03   1.0747E+05  0.000E+00  0.000E+00  0.000E+00  4.65026E+01  1.504E-01  2.000E+01  2.000E+04 -7.996E-02
   1   16    6     1     6    1.0747E+05 -1.0057E+03   1.0847E+05  0.000E+00  0.000E+00  0.000E+00  4.60265E+01  1.515E-01  2.000E+01  2.000E+04 -5.029E-02
   1   16    7     1     7    1.0847E+05 -9.6777E+02   1.0944E+05  0.000E+00  0.000E+00  0.000E+00  4.55500E+01  1.523E-01  2.000E+01  2.000E+04 -4.839E-02
   1   16    8     1     8    1.0944E+05 -9.2818E+02   1.1037E+05  0.000E+00  0.000E+00  0.000E+00  4.50735E+01  1.531E-01  2.000E+01  2.000E+04 -4.641E-02
   1   16    9     1     9    1.1037E+05 -8.6549E+02   1.1123E+05  0.000E+00  0.000E+00  0.000E+00  4.45970E+01  1.538E-01  2.000E+01  2.000E+04 -4.327E-02
   1   16   10     1    10    1.1123E+05 -7.7193E+02   1.1200E+05  0.000E+00  0.000E+00  0.000E+00  4.41204E+01  1.545E-01  2.000E+01  2.000E+04 -3.860E-02
   1   16   11     1    11    1.1200E+05 -6.4351E+02   1.1265E+05  0.000E+00  0.000E+00  0.000E+00  4.36437E+01  1.551E-01  2.000E+01  2.000E+04 -3.218E-02
   1   16   12     1    12    1.1265E+05 -7.3953E+02   1.1339E+05  0.000E+00  0.000E+00  0.000E+00  4.31670E+01  1.557E-01  2.000E+01  2.000E+04 -3.698E-02
   1   15   13     1    13    1.1339E+05 -6.4021E+02   1.1403E+05  0.000E+00  0.000E+00  0.000E+00  4.26903E+01  1.562E-01  2.000E+01  2.000E+04 -3.201E-02
   1   14   14     1    14    1.1403E+05 -8.4709E+02   1.1488E+05  0.000E+00  0.000E+00  0.000E+00  4.22137E+01  1.569E-01  2.000E+01  2.000E+04 -4.235E-02
   1   13   15     1    15    1.1488E+05 -9.4053E+02   1.1582E+05  0.000E+00  0.000E+00  0.000E+00  4.17371E+01  1.576E-01  2.000E+01  2.000E+04 -4.703E-02
   1   12   16     1    16    1.1582E+05 -4.5767E+02   1.1627E+05  0.000E+00  0.000E+00  0.000E+00  4.12604E+01  1.582E-01  2.000E+01  2.000E+04 -2.288E-02
   1   12   17     1    17    1.1627E+05  5.1263E+02   1.1576E+05  0.000E+00  0.000E+00  0.000E+00  4.07831E+01  1.581E-01  2.000E+01  2.000E+04  2.563E-02
   1   12   18     1    18    1.1576E+05  3.9683E+00   1.1576E+05  0.000E+00  0.000E+00  0.000E+00  4.03057E+01  1.579E-01  2.000E+01  2.000E+04  1.984E-04
   1   12   19     1    19    1.1576E+05 -7.2161E+02   1.1648E+05  0.000E+00  0.000E+00  0.000E+00  3.98287E+01  1.582E-01  2.000E+01  2.000E+04 -3.608E-02
   1   13   20     1    20    1.1648E+05 -9.7883E+02   1.1746E+05  0.000E+00  0.000E+00  0.000E+00  3.93521E+01  1.589E-01  2.000E+01  2.000E+04 -4.894E-02
   1   14   21     1    21    1.1746E+05 -9.4159E+02   1.1840E+05  0.000E+00  0.000E+00  0.000E+00  3.88756E+01  1.597E-01  2.000E+01  2.000E+04 -4.708E-02
   1   14   22     1    22    1.1840E+05  4.9208E+03   1.1348E+05  0.000E+00  0.000E+00  0.000E+00  3.83967E+01  1.581E-01  2.000E+01  2.000E+04  2.460E-01
   1    9   30     2     1    5.0000E+04 -5.6064E+02   5.0561E+04  0.000E+00  0.000E+00  0.000E+00  4.02413E+01  1.163E-01  2.000E+01  2.000E+04 -2.803E-02
   1    9   29     2     2    5.0561E+04 -8.5079E+02   5.1411E+04  0.000E+00  0.000E+00  0.000E+00  3.99922E+01  1.172E-01  2.000E+01  2.000E+04 -4.254E-02
   1    9   28     2     3    5.1411E+04 -1.0814E+03   5.2493E+04  0.000E+00  0.000E+00  0.000E+00  3.97436E+01  1.186E-01  2.000E+01  2.000E+04 -5.407E-02
   1    9   27     2     4    5.2493E+04 -2.1786E+03   5.4671E+04  0.000E+00  0.000E+00  0.000E+00  3.94958E+01  1.208E-01  2.000E+01  2.000E+04 -1.089E-01
   1   10   26     2     5    5.4671E+04 -1.3490E+03   5.6020E+04  0.000E+00  0.000E+00  0.000E+00  3.92481E+01  1.231E-01  2.000E+01  2.000E+04 -6.745E-02
   1   11   25     2     6    5.6020E+04 -1.1070E+03   5.7127E+04  0.000E+00  0.000E+00  0.000E+00  3.89998E+01  1.248E-01  2.000E+01  2.000E+04 -5.535E-02
   1   12   24     2     7    5.7127E+04 -1.1273E+03   5.8255E+04  0.000E+00  0.000E+00  0.000E+00  3.87513E+01  1.263E-01  2.000E+01  2.000E+04 -5.637E-02
   1   13   23     2     8    5.8255E+04 -1.7055E+02   5.8425E+04  0.000E+00  0.000E+00  0.000E+00  3.85021E+01  1.271E-01  2.000E+01  2.000E+04 -8.528E-03
   1   14   22     2     9    5.8425E+04  2.0046E+03   5.6421E+04  0.000E+00  0.000E+00  0.000E+00  3.82509E+01  1.259E-01  2.000E+01  2.000E+04  1.002E-01
   1   14   22     3     1    1.6990E+05 -8.5532E+03   1.7845E+05  0.000E+00  0.000E+00  0.000E+00  3.77230E+01  1.675E-01  2.000E+01  2.000E+04 -4.277E-01
   1   15   23     3     2    1.7845E+05 -4.3609E+02   1.7889E+05  0.000E+00  0.000E+00  0.000E+00  3.68367E+01  1.700E-01  2.000E+01  2.000E+04 -2.180E-02
   1   15   24     3     3    1.7889E+05 -2.4520E+02   1.7913E+05  0.000E+00  0.000E+00  0.000E+00  3.59480E+01  1.702E-01  2.000E+01  2.000E+04 -1.226E-02
   1   15   25     3     4    1.7913E+05 -2.4585E+02   1.7938E+05  0.000E+00  0.000E+00  0.000E+00  3.50593E+01  1.704E-01  2.000E+01  2.000E+04 -1.229E-02
   1   15   26     3     5    1.7938E+05 -2.9913E+02   1.7968E+05  0.000E+00  0.000E+00  0.000E+00  3.41705E+01  1.705E-01  2.000E+01  2.000E+04 -1.496E-02
   1   16   27     3     6    1.7968E+05 -3.2943E+02   1.8001E+05  0.000E+00  0.000E+00  0.000E+00  3.32818E+01  1.707E-01  2.000E+01  2.000E+04 -1.647E-02
   1   17   28     3     7    1.8001E+05 -1.4535E+03   1.8146E+05  0.000E+00  0.000E+00  0.000E+00  3.23934E+01  1.712E-01  2.000E+01  2.000E+04 -7.267E-02
   1   18   29     3     8    1.8146E+05 -2.8008E+03   1.8426E+05  0.000E+00  0.000E+00  0.000E+00  3.15057E+01  1.724E-01  2.000E+01  2.000E+04 -1.400E-01
   1   18   30     3     9    1.8426E+05 -3.0973E+03   1.8736E+05  0.000E+00  0.000E+00  0.000E+00  3.06185E+01  1.741E-01  2.000E+01  2.000E+04 -1.549E-01



1
              HEAD IN LAYER   1 AT END OF TIME STEP   1 IN STRESS PERIOD    5
  ---------------------------------------------------------------------------

          1      2      3      4      5      6      7      8      9     10
         11     12     13     14     15     16     17     18     19     20
         21     22     23     24     25     26     27     28     29     30
 .........................................................................
   1  ****** ****** ****** ****** ****** ****** ****** ****** ****** ******
      ****** ****** ****** ****** ****** ****** ****** ****** ****** ******
      ****** ****** ****** ****** ****** ****** ****** ****** ****** ******
   2  ****** ****** ****** ****** ****** ****** ****** ****** ****** ******
      ****** ****** ****** ****** ****** ****** ****** ****** ****** ******
      ****** ****** ****** ****** ****** ****** ****** ****** ****** ******
   3  ****** ****** ****** ****** ****** ****** ****** ****** ****** ******
      ****** ****** ****** ****** ****** ****** ****** ****** ****** ******
      ****** ****** ****** ****** ****** ****** ****** ****** ****** ******
   4  ****** ****** ****** ****** ****** ****** ****** ****** ****** ******
      ****** ****** ****** ****** ****** ****** ****** ****** ****** ******
      ****** ****** ****** ****** ****** ****** ****** ****** ****** ******
   5  ****** ****** ****** ****** ****** ****** ****** ****** ****** ******
      ****** ****** ****** ****** ****** ****** ****** ****** ****** ******
      ****** ****** ****** ****** ****** ****** ****** ****** ****** ******
   6  ****** ****** ****** ****** ****** ****** ****** ****** ****** ******
      ****** ****** ****** ****** ****** ****** ****** ****** ****** ******
      ****** ****** ****** ****** ****** ****** ****** ****** ****** ******
   7  ****** ****** ****** ****** ****** ****** ****** ****** ****** ******
      ****** ****** ****** ****** ****** ****** ****** ****** ****** ******
      ****** ****** ****** ****** ****** ****** ****** ****** ****** ******
   8  ****** ****** ****** ****** ****** ****** ****** ****** ****** ******
      ****** ****** ****** ****** ****** ****** ****** ****** ****** ******
      ****** ****** ****** ****** ****** ****** ****** ****** ****** ******
   9  ****** ****** ****** ****** ****** ****** ****** ****** ****** ******
      ****** ****** ****** ****** ****** ****** ****** ****** ****** ******
      ****** ****** ****** ****** ****** ****** ****** ****** ****** ******
  10  ****** ****** ****** ****** ****** ****** ****** ****** ****** ******
      ****** ****** ****** ****** ****** ****** ****** ****** ****** ******
      ****** ****** ****** ****** ****** ****** ****** ****** ****** ******
  11  ****** ****** ****** ****** ****** ****** ****** ****** ****** ******
      ****** ****** ****** ****** ****** ****** ****** ****** ****** ******
      ****** ****** ****** ****** ****** ****** ****** ****** ****** ******
  12  ****** ****** ****** ****** ****** ****** ****** ****** ****** ******
      ****** ****** ****** ****** ****** ****** ****** ****** ****** ******
      ****** ****** ****** ****** ****** ****** ****** ****** ****** ******
  13  ****** ****** ****** ****** ****** ****** ****** ****** ****** ******
      ****** ****** ****** ****** ****** ****** ****** ****** ****** ******
      ****** ****** ****** ****** ****** ****** ****** ****** ****** ******
  14  ****** ****** ****** ****** ****** ****** ****** ****** ****** ******
      ****** ****** ****** ****** ****** ****** ****** ****** ****** ******
      ****** ****** ****** ****** ****** ****** ****** ****** ****** ******
  15  ****** ****** ****** ****** ****** ****** ****** ****** ****** ******
      ****** ****** ****** ****** ****** ****** ****** ****** ****** ******
      ****** ****** ****** ****** ****** ****** ****** ****** ****** ******
  16  ****** ****** ****** ****** ****** ****** ****** ****** ****** ******
      ****** ****** ****** ****** ****** ****** ****** ****** ****** ******
      ****** ****** ****** ****** ****** ****** ****** ****** ****** ******
  17  ****** ****** ****** ****** ****** ****** ****** ****** ****** ******
      ****** ****** ****** ****** ****** ****** ****** ****** ****** ******
      ****** ****** ****** ****** ****** ****** ****** ****** ****** ******
  18  ****** ****** ****** ****** ****** ****** ****** ****** ****** ******
      ****** ****** ****** ****** ****** ****** ****** ****** ****** ******
      ****** ****** ****** ****** ****** ****** ****** ****** ****** ******
  19  ****** ****** ****** ****** ****** ****** ****** ****** ****** ******
      ****** ****** ****** ****** ****** ****** ****** ****** ****** ******
      ****** ****** ****** ****** ****** ****** ****** ****** ****** ******
  20  ****** ****** ****** ****** ****** ****** ****** ****** ****** ******
      ****** ****** ****** ****** ****** ****** ****** ****** ****** ******
      ****** ****** ****** ****** ****** ****** ****** ****** ****** ******
  21  ****** ****** ****** ****** ****** ****** ****** ****** ****** ******
      ****** ****** ****** ****** ****** ****** ****** ****** ****** ******
      ****** ****** ****** ****** ****** ****** ****** ****** ****** ******
  22  ****** ****** ****** ****** ****** ****** ****** ****** ****** ******
      ****** ****** ****** ****** ****** ****** ****** ****** ****** ******
      ****** ****** ****** ****** ****** ****** ****** ****** ****** ******
  23  ****** ****** ****** ****** ****** ****** ****** ****** ****** ******
      ****** ****** ****** ****** ****** ****** ****** ****** ****** ******
      ****** ****** ****** ****** ****** ****** ****** ****** ****** ******
  24  ****** ****** ****** ****** ****** ****** ****** ****** ****** ******
      ****** ****** ****** ****** ****** ****** ****** ****** ****** ******
      ****** ****** ****** ****** ****** ****** ****** ****** ****** ******
  25  ****** ****** ****** ****** ****** ****** ****** ****** ****** ******
      ****** ****** ****** ****** ****** ****** ****** ****** ****** ******
      ****** ****** ****** ****** ****** ****** ****** ****** ****** ******

 HEAD WILL BE SAVED ON UNIT   51 AT END OF TIME STEP    1, STRESS PERIOD    5
1
  VOLUMETRIC BUDGET FOR ENTIRE MODEL AT END OF TIME STEP    1, STRESS PERIOD   5
  ------------------------------------------------------------------------------

     CUMULATIVE VOLUMES      L**3       RATES FOR THIS TIME STEP      L**3/T
     ------------------                 ------------------------

           IN:                                      IN:
           ---                                      ---
             STORAGE =    31811839.3556               STORAGE =       19238.9887
       CONSTANT HEAD =    10803842.9403         CONSTANT HEAD =       32234.9135
               WELLS =           0.0000                 WELLS =           0.0000
            RECHARGE =    10074000.0000              RECHARGE =       13800.0000
      STREAM LEAKAGE =     2786678.5165        STREAM LEAKAGE =        7442.0302

            TOTAL IN =    55476360.8125              TOTAL IN =       72715.9325

          OUT:                                     OUT:
          ----                                     ----
             STORAGE =        1194.7680               STORAGE =           0.0000
       CONSTANT HEAD =           0.0000         CONSTANT HEAD =           0.0000
               WELLS =    12757063.1124                 WELLS =       27914.7989
            RECHARGE =           0.0000              RECHARGE =           0.0000
      STREAM LEAKAGE =    42718105.2426        STREAM LEAKAGE =       44801.1368

           TOTAL OUT =    55476363.1230             TOTAL OUT =       72715.9357

            IN - OUT =          -2.3105              IN - OUT =      -3.2694E-03

 PERCENT DISCREPANCY =          -0.00     PERCENT DISCREPANCY =          -0.00






         TIME SUMMARY AT END OF TIME STEP    1 IN STRESS PERIOD    5
                    SECONDS     MINUTES      HOURS       DAYS        YEARS
                    -----------------------------------------------------------
   TIME STEP LENGTH 7.94880E+06 1.32480E+05  2208.0      92.000     0.25188    
 STRESS PERIOD TIME 7.94880E+06 1.32480E+05  2208.0      92.000     0.25188    
         TOTAL TIME 3.94848E+07 6.58080E+05  10968.      457.00      1.2512    
1
1
                            STRESS PERIOD NO.    6, LENGTH =   91.00000    
                            -----------------------------------------------

                              NUMBER OF TIME STEPS =     1

                               MULTIPLIER FOR DELT =     1.500

                            INITIAL TIME STEP SIZE =   91.00000    

 WELL NO.  LAYER   ROW   COL   STRESS RATE         
 --------------------------------------------------
      1      1     10     17     -0.1009E+05
      2      1     11     19      -420.2    
      3      1     19     16      -9508.    
      4      1      6     15      -7895.    

      4 WELLS

                 RECHARGE =  2.000000E-03

 REUSING STREAM SEGMENT DATA FROM LAST STRESS PERIOD
 
 SOLVING FOR HEAD 


     7 CALLS TO PCG ROUTINE FOR TIME STEP   1 IN STRESS PERIOD    6
    26 TOTAL ITERATIONS

 OUTPUT CONTROL FOR STRESS PERIOD    6   TIME STEP    1
    SAVE BUDGET
    SAVE HEAD FOR ALL LAYERS
    PRINT HEAD FOR ALL LAYERS
 UBDSV2 SAVING "STREAMFLOW OUT  " ON UNIT  50 AT TIME STEP  1, STRESS PERIOD   6



 STREAM LISTING     PERIOD      6   STEP        1

 LAYER ROW COL. STREAM  RCH.  FLOW INTO     FLOW TO   FLOW OUT OF   OVRLND.     DIRECT     STREAM       STREAM     STREAM     STREAM   STREAMBED  STREAMBED
                SEG.NO.  NO.  STRM. RCH.    AQUIFER    STRM. RCH.    RUNOFF     PRECIP       ET          HEAD       DEPTH      WIDTH   CONDCTNC.   GRADIENT

   1   13    1     1     1    1.0000E+05 -2.2580E+03   1.0226E+05  0.000E+00  0.000E+00  0.000E+00  4.84070E+01  1.456E-01  2.000E+01  2.000E+04 -1.129E-01
   1   13    2     1     2    1.0226E+05 -3.2917E+03   1.0555E+05  0.000E+00  0.000E+00  0.000E+00  4.79321E+01  1.480E-01  2.000E+01  2.000E+04 -1.646E-01
   1   14    3     1     3    1.0555E+05 -6.3865E+02   1.0619E+05  0.000E+00  0.000E+00  0.000E+00  4.74565E+01  1.497E-01  2.000E+01  2.000E+04 -3.193E-02
   1   15    4     1     4    1.0619E+05 -6.1597E+02   1.0680E+05  0.000E+00  0.000E+00  0.000E+00  4.69798E+01  1.502E-01  2.000E+01  2.000E+04 -3.080E-02
   1   16    5     1     5    1.0680E+05 -2.0903E+03   1.0889E+05  0.000E+00  0.000E+00  0.000E+00  4.65036E+01  1.514E-01  2.000E+01  2.000E+04 -1.045E-01
   1   16    6     1     6    1.0889E+05 -1.2931E+03   1.1019E+05  0.000E+00  0.000E+00  0.000E+00  4.60278E+01  1.528E-01  2.000E+01  2.000E+04 -6.466E-02
   1   16    7     1     7    1.1019E+05 -1.2396E+03   1.1143E+05  0.000E+00  0.000E+00  0.000E+00  4.55516E+01  1.538E-01  2.000E+01  2.000E+04 -6.198E-02
   1   16    8     1     8    1.1143E+05 -1.1953E+03   1.1262E+05  0.000E+00  0.000E+00  0.000E+00  4.50753E+01  1.549E-01  2.000E+01  2.000E+04 -5.976E-02
   1   16    9     1     9    1.1262E+05 -1.1320E+03   1.1375E+05  0.000E+00  0.000E+00  0.000E+00  4.45990E+01  1.558E-01  2.000E+01  2.000E+04 -5.660E-02
   1   16   10     1    10    1.1375E+05 -1.0400E+03   1.1479E+05  0.000E+00  0.000E+00  0.000E+00  4.41226E+01  1.567E-01  2.000E+01  2.000E+04 -5.200E-02
   1   16   11     1    11    1.1479E+05 -9.1485E+02   1.1571E+05  0.000E+00  0.000E+00  0.000E+00  4.36461E+01  1.575E-01  2.000E+01  2.000E+04 -4.574E-02
   1   16   12     1    12    1.1571E+05 -1.1754E+03   1.1688E+05  0.000E+00  0.000E+00  0.000E+00  4.31697E+01  1.584E-01  2.000E+01  2.000E+04 -5.877E-02
   1   15   13     1    13    1.1688E+05 -1.0825E+03   1.1797E+05  0.000E+00  0.000E+00  0.000E+00  4.26934E+01  1.593E-01  2.000E+01  2.000E+04 -5.413E-02
   1   14   14     1    14    1.1797E+05 -1.2813E+03   1.1925E+05  0.000E+00  0.000E+00  0.000E+00  4.22171E+01  1.602E-01  2.000E+01  2.000E+04 -6.406E-02
   1   13   15     1    15    1.1925E+05 -1.3525E+03   1.2060E+05  0.000E+00  0.000E+00  0.000E+00  4.17409E+01  1.613E-01  2.000E+01  2.000E+04 -6.763E-02
   1   12   16     1    16    1.2060E+05 -8.1810E+02   1.2142E+05  0.000E+00  0.000E+00  0.000E+00  4.12645E+01  1.622E-01  2.000E+01  2.000E+04 -4.090E-02
   1   12   17     1    17    1.2142E+05  2.1250E+02   1.2121E+05  0.000E+00  0.000E+00  0.000E+00  4.07874E+01  1.624E-01  2.000E+01  2.000E+04  1.062E-02
   1   12   18     1    18    1.2121E+05 -3.0166E+02   1.2151E+05  0.000E+00  0.000E+00  0.000E+00  4.03102E+01  1.625E-01  2.000E+01  2.000E+04 -1.508E-02
   1   12   19     1    19    1.2151E+05 -1.1022E+03   1.2261E+05  0.000E+00  0.000E+00  0.000E+00  3.98335E+01  1.630E-01  2.000E+01  2.000E+04 -5.511E-02
   1   13   20     1    20    1.2261E+05 -1.3924E+03   1.2400E+05  0.000E+00  0.000E+00  0.000E+00  3.93572E+01  1.640E-01  2.000E+01  2.000E+04 -6.962E-02
   1   14   21     1    21    1.2400E+05 -1.3457E+03   1.2535E+05  0.000E+00  0.000E+00  0.000E+00  3.88810E+01  1.651E-01  2.000E+01  2.000E+04 -6.729E-02
   1   14   22     1    22    1.2535E+05  4.8165E+03   1.2053E+05  0.000E+00  0.000E+00  0.000E+00  3.84024E+01  1.637E-01  2.000E+01  2.000E+04  2.408E-01
   1    9   30     2     1    5.0000E+04 -9.2172E+02   5.0922E+04  0.000E+00  0.000E+00  0.000E+00  4.02415E+01  1.165E-01  2.000E+01  2.000E+04 -4.609E-02
   1    9   29     2     2    5.0922E+04 -1.2072E+03   5.2129E+04  0.000E+00  0.000E+00  0.000E+00  3.99930E+01  1.180E-01  2.000E+01  2.000E+04 -6.036E-02
   1    9   28     2     3    5.2129E+04 -1.4304E+03   5.3559E+04  0.000E+00  0.000E+00  0.000E+00  3.97448E+01  1.198E-01  2.000E+01  2.000E+04 -7.152E-02
   1    9   27     2     4    5.3559E+04 -2.6164E+03   5.6176E+04  0.000E+00  0.000E+00  0.000E+00  3.94975E+01  1.225E-01  2.000E+01  2.000E+04 -1.308E-01
   1   10   26     2     5    5.6176E+04 -1.8121E+03   5.7988E+04  0.000E+00  0.000E+00  0.000E+00  3.92505E+01  1.255E-01  2.000E+01  2.000E+04 -9.061E-02
   1   11   25     2     6    5.7988E+04 -1.5558E+03   5.9544E+04  0.000E+00  0.000E+00  0.000E+00  3.90027E+01  1.277E-01  2.000E+01  2.000E+04 -7.779E-02
   1   12   24     2     7    5.9544E+04 -1.5313E+03   6.1075E+04  0.000E+00  0.000E+00  0.000E+00  3.87547E+01  1.297E-01  2.000E+01  2.000E+04 -7.656E-02
   1   13   23     2     8    6.1075E+04 -3.0747E+02   6.1382E+04  0.000E+00  0.000E+00  0.000E+00  3.85058E+01  1.308E-01  2.000E+01  2.000E+04 -1.537E-02
   1   14   22     2     9    6.1382E+04  1.8658E+03   5.9517E+04  0.000E+00  0.000E+00  0.000E+00  3.82548E+01  1.298E-01  2.000E+01  2.000E+04  9.329E-02
   1   14   22     3     1    1.8005E+05 -8.6545E+03   1.8870E+05  0.000E+00  0.000E+00  0.000E+00  3.77288E+01  1.733E-01  2.000E+01  2.000E+04 -4.327E-01
   1   15   23     3     2    1.8870E+05 -5.7200E+02   1.8928E+05  0.000E+00  0.000E+00  0.000E+00  3.68425E+01  1.759E-01  2.000E+01  2.000E+04 -2.860E-02
   1   15   24     3     3    1.8928E+05 -3.6652E+02   1.8964E+05  0.000E+00  0.000E+00  0.000E+00  3.59539E+01  1.761E-01  2.000E+01  2.000E+04 -1.833E-02
   1   15   25     3     4    1.8964E+05 -3.7180E+02   1.9001E+05  0.000E+00  0.000E+00  0.000E+00  3.50652E+01  1.763E-01  2.000E+01  2.000E+04 -1.859E-02
   1   15   26     3     5    1.9001E+05 -4.5026E+02   1.9046E+05  0.000E+00  0.000E+00  0.000E+00  3.41766E+01  1.766E-01  2.000E+01  2.000E+04 -2.251E-02
   1   16   27     3     6    1.9046E+05 -4.9765E+02   1.9096E+05  0.000E+00  0.000E+00  0.000E+00  3.32879E+01  1.768E-01  2.000E+01  2.000E+04 -2.488E-02
   1   17   28     3     7    1.9096E+05 -1.9145E+03   1.9288E+05  0.000E+00  0.000E+00  0.000E+00  3.23997E+01  1.775E-01  2.000E+01  2.000E+04 -9.573E-02
   1   18   29     3     8    1.9288E+05 -3.2366E+03   1.9611E+05  0.000E+00  0.000E+00  0.000E+00  3.15122E+01  1.789E-01  2.000E+01  2.000E+04 -1.618E-01
   1   18   30     3     9    1.9611E+05 -3.4514E+03   1.9956E+05  0.000E+00  0.000E+00  0.000E+00  3.06252E+01  1.808E-01  2.000E+01  2.000E+04 -1.726E-01



1
              HEAD IN LAYER   1 AT END OF TIME STEP   1 IN STRESS PERIOD    6
  ---------------------------------------------------------------------------

          1      2      3      4      5      6      7      8      9     10
         11     12     13     14     15     16     17     18     19     20
         21     22     23     24     25     26     27     28     29     30
 .........................................................................
   1  ****** ****** ****** ****** ****** ****** ****** ****** ****** ******
      ****** ****** ****** ****** ****** ****** ****** ****** ****** ******
      ****** ****** ****** ****** ****** ****** ****** ****** ****** ******
   2  ****** ****** ****** ****** ****** ****** ****** ****** ****** ******
      ****** ****** ****** ****** ****** ****** ****** ****** ****** ******
      ****** ****** ****** ****** ****** ****** ****** ****** ****** ******
   3  ****** ****** ****** ****** ****** ****** ****** ****** ****** ******
      ****** ****** ****** ****** ****** ****** ****** ****** ****** ******
      ****** ****** ****** ****** ****** ****** ****** ****** ****** ******
   4  ****** ****** ****** ****** ****** ****** ****** ****** ****** ******
      ****** ****** ****** ****** ****** ****** ****** ****** ****** ******
      ****** ****** ****** ****** ****** ****** ****** ****** ****** ******
   5  ****** ****** ****** ****** ****** ****** ****** ****** ****** ******
      ****** ****** ****** ****** ****** ****** ****** ****** ****** ******
      ****** ****** ****** ****** ****** ****** ****** ****** ****** ******
   6  ****** ****** ****** ****** ****** ****** ****** ****** ****** ******
      ****** ****** ****** ****** ****** ****** ****** ****** ****** ******
      ****** ****** ****** ****** ****** ****** ****** ****** ****** ******
   7  ****** ****** ****** ****** ****** ****** ****** ****** ****** ******
      ****** ****** ****** ****** ****** ****** ****** ****** ****** ******
      ****** ****** ****** ****** ****** ****** ****** ****** ****** ******
   8  ****** ****** ****** ****** ****** ****** ****** ****** ****** ******
      ****** ****** ****** ****** ****** ****** ****** ****** ****** ******
      ****** ****** ****** ****** ****** ****** ****** ****** ****** ******
   9  ****** ****** ****** ****** ****** ****** ****** ****** ****** ******
      ****** ****** ****** ****** ****** ****** ****** ****** ****** ******
      ****** ****** ****** ****** ****** ****** ****** ****** ****** ******
  10  ****** ****** ****** ****** ****** ****** ****** ****** ****** ******
      ****** ****** ****** ****** ****** ****** ****** ****** ****** ******
      ****** ****** ****** ****** ****** ****** ****** ****** ****** ******
  11  ****** ****** ****** ****** ****** ****** ****** ****** ****** ******
      ****** ****** ****** ****** ****** ****** ****** ****** ****** ******
      ****** ****** ****** ****** ****** ****** ****** ****** ****** ******
  12  ****** ****** ****** ****** ****** ****** ****** ****** ****** ******
      ****** ****** ****** ****** ****** ****** ****** ****** ****** ******
      ****** ****** ****** ****** ****** ****** ****** ****** ****** ******
  13  ****** ****** ****** ****** ****** ****** ****** ****** ****** ******
      ****** ****** ****** ****** ****** ****** ****** ****** ****** ******
      ****** ****** ****** ****** ****** ****** ****** ****** ****** ******
  14  ****** ****** ****** ****** ****** ****** ****** ****** ****** ******
      ****** ****** ****** ****** ****** ****** ****** ****** ****** ******
      ****** ****** ****** ****** ****** ****** ****** ****** ****** ******
  15  ****** ****** ****** ****** ****** ****** ****** ****** ****** ******
      ****** ****** ****** ****** ****** ****** ****** ****** ****** ******
      ****** ****** ****** ****** ****** ****** ****** ****** ****** ******
  16  ****** ****** ****** ****** ****** ****** ****** ****** ****** ******
      ****** ****** ****** ****** ****** ****** ****** ****** ****** ******
      ****** ****** ****** ****** ****** ****** ****** ****** ****** ******
  17  ****** ****** ****** ****** ****** ****** ****** ****** ****** ******
      ****** ****** ****** ****** ****** ****** ****** ****** ****** ******
      ****** ****** ****** ****** ****** ****** ****** ****** ****** ******
  18  ****** ****** ****** ****** ****** ****** ****** ****** ****** ******
      ****** ****** ****** ****** ****** ****** ****** ****** ****** ******
      ****** ****** ****** ****** ****** ****** ****** ****** ****** ******
  19  ****** ****** ****** ****** ****** ****** ****** ****** ****** ******
      ****** ****** ****** ****** ****** ****** ****** ****** ****** ******
      ****** ****** ****** ****** ****** ****** ****** ****** ****** ******
  20  ****** ****** ****** ****** ****** ****** ****** ****** ****** ******
      ****** ****** ****** ****** ****** ****** ****** ****** ****** ******
      ****** ****** ****** ****** ****** ****** ****** ****** ****** ******
  21  ****** ****** ****** ****** ****** ****** ****** ****** ****** ******
      ****** ****** ****** ****** ****** ****** ****** ****** ****** ******
      ****** ****** ****** ****** ****** ****** ****** ****** ****** ******
  22  ****** ****** ****** ****** ****** ****** ****** ****** ****** ******
      ****** ****** ****** ****** ****** ****** ****** ****** ****** ******
      ****** ****** ****** ****** ****** ****** ****** ****** ****** ******
  23  ****** ****** ****** ****** ****** ****** ****** ****** ****** ******
      ****** ****** ****** ****** ****** ****** ****** ****** ****** ******
      ****** ****** ****** ****** ****** ****** ****** ****** ****** ******
  24  ****** ****** ****** ****** ****** ****** ****** ****** ****** ******
      ****** ****** ****** ****** ****** ****** ****** ****** ****** ******
      ****** ****** ****** ****** ****** ****** ****** ****** ****** ******
  25  ****** ****** ****** ****** ****** ****** ****** ****** ****** ******
      ****** ****** ****** ****** ****** ****** ****** ****** ****** ******
      ****** ****** ****** ****** ****** ****** ****** ****** ****** ******

 HEAD WILL BE SAVED ON UNIT   51 AT END OF TIME STEP    1, STRESS PERIOD    6
1
  VOLUMETRIC BUDGET FOR ENTIRE MODEL AT END OF TIME STEP    1, STRESS PERIOD   6
  ------------------------------------------------------------------------------

     CUMULATIVE VOLUMES      L**3       RATES FOR THIS TIME STEP      L**3/T
     ------------------                 ------------------------

           IN:                                      IN:
           ---                                      ---
             STORAGE =    31812492.5624               STORAGE =           7.1781
       CONSTANT HEAD =    13571434.2538         CONSTANT HEAD =       30413.0914
               WELLS =           0.0000                 WELLS =           0.0000
            RECHARGE =    15097200.0000              RECHARGE =       55200.0000
      STREAM LEAKAGE =     3414103.4494        STREAM LEAKAGE =        6894.7795

            TOTAL IN =    63895230.2657              TOTAL IN =       92515.0489

          OUT:                                     OUT:
          ----                                     ----
             STORAGE =      742053.0701               STORAGE =        8141.3000
       CONSTANT HEAD =           0.0000         CONSTANT HEAD =           0.0000
               WELLS =    15297309.8153                 WELLS =       27914.7989
            RECHARGE =           0.0000              RECHARGE =           0.0000
      STREAM LEAKAGE =    47855869.4343        STREAM LEAKAGE =       56458.9472

           TOTAL OUT =    63895232.3197             TOTAL OUT =       92515.0461

            IN - OUT =          -2.0540              IN - OUT =       2.8181E-03

 PERCENT DISCREPANCY =          -0.00     PERCENT DISCREPANCY =           0.00






         TIME SUMMARY AT END OF TIME STEP    1 IN STRESS PERIOD    6
                    SECONDS     MINUTES      HOURS       DAYS        YEARS
                    -----------------------------------------------------------
   TIME STEP LENGTH 7.86240E+06 1.31040E+05  2184.0      91.000     0.24914    
 STRESS PERIOD TIME 7.86240E+06 1.31040E+05  2184.0      91.000     0.24914    
         TOTAL TIME 4.73472E+07 7.89120E+05  13152.      548.00      1.5003    
1
1
                            STRESS PERIOD NO.    7, LENGTH =   91.00000    
                            -----------------------------------------------

                              NUMBER OF TIME STEPS =     1

                               MULTIPLIER FOR DELT =     1.500

                            INITIAL TIME STEP SIZE =   91.00000    

 WELL NO.  LAYER   ROW   COL   STRESS RATE         
 --------------------------------------------------
      1      1     10     17     -0.1009E+05
      2      1     11     19      -420.2    
      3      1     19     16      -9508.    
      4      1      6     15      -7895.    

      4 WELLS

                 RECHARGE =   0.00000    

 REUSING STREAM SEGMENT DATA FROM LAST STRESS PERIOD
 
 SOLVING FOR HEAD 


     7 CALLS TO PCG ROUTINE FOR TIME STEP   1 IN STRESS PERIOD    7
    26 TOTAL ITERATIONS

 OUTPUT CONTROL FOR STRESS PERIOD    7   TIME STEP    1
    SAVE BUDGET
    SAVE HEAD FOR ALL LAYERS
    PRINT HEAD FOR ALL LAYERS
 UBDSV2 SAVING "STREAMFLOW OUT  " ON UNIT  50 AT TIME STEP  1, STRESS PERIOD   7



 STREAM LISTING     PERIOD      7   STEP        1

 LAYER ROW COL. STREAM  RCH.  FLOW INTO     FLOW TO   FLOW OUT OF   OVRLND.     DIRECT     STREAM       STREAM     STREAM     STREAM   STREAMBED  STREAMBED
                SEG.NO.  NO.  STRM. RCH.    AQUIFER    STRM. RCH.    RUNOFF     PRECIP       ET          HEAD       DEPTH      WIDTH   CONDCTNC.   GRADIENT

   1   13    1     1     1    1.0000E+05 -1.5791E+03   1.0158E+05  0.000E+00  0.000E+00  0.000E+00  4.84067E+01  1.453E-01  2.000E+01  2.000E+04 -7.895E-02
   1   13    2     1     2    1.0158E+05 -2.5317E+03   1.0411E+05  0.000E+00  0.000E+00  0.000E+00  4.79312E+01  1.471E-01  2.000E+01  2.000E+04 -1.266E-01
   1   14    3     1     3    1.0411E+05 -3.8467E+02   1.0450E+05  0.000E+00  0.000E+00  0.000E+00  4.74552E+01  1.484E-01  2.000E+01  2.000E+04 -1.923E-02
   1   15    4     1     4    1.0450E+05 -3.5155E+02   1.0485E+05  0.000E+00  0.000E+00  0.000E+00  4.69782E+01  1.487E-01  2.000E+01  2.000E+04 -1.758E-02
   1   16    5     1     5    1.0485E+05 -1.3339E+03   1.0618E+05  0.000E+00  0.000E+00  0.000E+00  4.65017E+01  1.494E-01  2.000E+01  2.000E+04 -6.669E-02
   1   16    6     1     6    1.0618E+05 -8.3625E+02   1.0702E+05  0.000E+00  0.000E+00  0.000E+00  4.60253E+01  1.503E-01  2.000E+01  2.000E+04 -4.181E-02
   1   16    7     1     7    1.0702E+05 -8.0100E+02   1.0782E+05  0.000E+00  0.000E+00  0.000E+00  4.55487E+01  1.510E-01  2.000E+01  2.000E+04 -4.005E-02
   1   16    8     1     8    1.0782E+05 -7.6246E+02   1.0858E+05  0.000E+00  0.000E+00  0.000E+00  4.50721E+01  1.517E-01  2.000E+01  2.000E+04 -3.812E-02
   1   16    9     1     9    1.0858E+05 -7.0232E+02   1.0928E+05  0.000E+00  0.000E+00  0.000E+00  4.45955E+01  1.523E-01  2.000E+01  2.000E+04 -3.512E-02
   1   16   10     1    10    1.0928E+05 -6.1292E+02   1.0990E+05  0.000E+00  0.000E+00  0.000E+00  4.41187E+01  1.528E-01  2.000E+01  2.000E+04 -3.065E-02
   1   16   11     1    11    1.0990E+05 -4.8666E+02   1.1038E+05  0.000E+00  0.000E+00  0.000E+00  4.36419E+01  1.533E-01  2.000E+01  2.000E+04 -2.433E-02
   1   16   12     1    12    1.1038E+05 -4.5452E+02   1.1084E+05  0.000E+00  0.000E+00  0.000E+00  4.31650E+01  1.537E-01  2.000E+01  2.000E+04 -2.273E-02
   1   15   13     1    13    1.1084E+05 -3.0725E+02   1.1114E+05  0.000E+00  0.000E+00  0.000E+00  4.26881E+01  1.540E-01  2.000E+01  2.000E+04 -1.536E-02
   1   14   14     1    14    1.1114E+05 -4.7617E+02   1.1162E+05  0.000E+00  0.000E+00  0.000E+00  4.22111E+01  1.543E-01  2.000E+01  2.000E+04 -2.381E-02
   1   13   15     1    15    1.1162E+05 -5.4365E+02   1.1216E+05  0.000E+00  0.000E+00  0.000E+00  4.17343E+01  1.547E-01  2.000E+01  2.000E+04 -2.718E-02
   1   12   16     1    16    1.1216E+05 -1.2258E+01   1.1218E+05  0.000E+00  0.000E+00  0.000E+00  4.12572E+01  1.550E-01  2.000E+01  2.000E+04 -6.129E-04
   1   12   17     1    17    1.1218E+05  7.9601E+02   1.1138E+05  0.000E+00  0.000E+00  0.000E+00  4.07796E+01  1.546E-01  2.000E+01  2.000E+04  3.980E-02
   1   12   18     1    18    1.1138E+05  2.6679E+02   1.1111E+05  0.000E+00  0.000E+00  0.000E+00  4.03019E+01  1.542E-01  2.000E+01  2.000E+04  1.334E-02
   1   12   19     1    19    1.1111E+05 -4.0808E+02   1.1152E+05  0.000E+00  0.000E+00  0.000E+00  3.98247E+01  1.543E-01  2.000E+01  2.000E+04 -2.040E-02
   1   13   20     1    20    1.1152E+05 -7.1903E+02   1.1224E+05  0.000E+00  0.000E+00  0.000E+00  3.93479E+01  1.547E-01  2.000E+01  2.000E+04 -3.595E-02
   1   14   21     1    21    1.1224E+05 -6.8187E+02   1.1292E+05  0.000E+00  0.000E+00  0.000E+00  3.88712E+01  1.553E-01  2.000E+01  2.000E+04 -3.409E-02
   1   14   22     1    22    1.1292E+05  4.9713E+03   1.0795E+05  0.000E+00  0.000E+00  0.000E+00  3.83922E+01  1.535E-01  2.000E+01  2.000E+04  2.486E-01
   1    9   30     2     1    5.0000E+04 -4.0653E+02   5.0407E+04  0.000E+00  0.000E+00  0.000E+00  4.02411E+01  1.161E-01  2.000E+01  2.000E+04 -2.033E-02
   1    9   29     2     2    5.0407E+04 -6.9367E+02   5.1100E+04  0.000E+00  0.000E+00  0.000E+00  3.99919E+01  1.169E-01  2.000E+01  2.000E+04 -3.468E-02
   1    9   28     2     3    5.1100E+04 -9.1512E+02   5.2015E+04  0.000E+00  0.000E+00  0.000E+00  3.97430E+01  1.180E-01  2.000E+01  2.000E+04 -4.576E-02
   1    9   27     2     4    5.2015E+04 -1.9145E+03   5.3930E+04  0.000E+00  0.000E+00  0.000E+00  3.94950E+01  1.200E-01  2.000E+01  2.000E+04 -9.573E-02
   1   10   26     2     5    5.3930E+04 -1.1090E+03   5.5039E+04  0.000E+00  0.000E+00  0.000E+00  3.92470E+01  1.220E-01  2.000E+01  2.000E+04 -5.545E-02
   1   11   25     2     6    5.5039E+04 -8.8164E+02   5.5921E+04  0.000E+00  0.000E+00  0.000E+00  3.89983E+01  1.233E-01  2.000E+01  2.000E+04 -4.408E-02
   1   12   24     2     7    5.5921E+04 -9.1622E+02   5.6837E+04  0.000E+00  0.000E+00  0.000E+00  3.87495E+01  1.245E-01  2.000E+01  2.000E+04 -4.581E-02
   1   13   23     2     8    5.6837E+04 -1.1501E+02   5.6952E+04  0.000E+00  0.000E+00  0.000E+00  3.85002E+01  1.252E-01  2.000E+01  2.000E+04 -5.751E-03
   1   14   22     2     9    5.6952E+04  2.1057E+03   5.4846E+04  0.000E+00  0.000E+00  0.000E+00  3.82489E+01  1.239E-01  2.000E+01  2.000E+04  1.053E-01
   1   14   22     3     1    1.6280E+05 -8.4948E+03   1.7129E+05  0.000E+00  0.000E+00  0.000E+00  3.77189E+01  1.633E-01  2.000E+01  2.000E+04 -4.247E-01
   1   15   23     3     2    1.7129E+05 -3.6526E+02   1.7166E+05  0.000E+00  0.000E+00  0.000E+00  3.68326E+01  1.659E-01  2.000E+01  2.000E+04 -1.826E-02
   1   15   24     3     3    1.7166E+05 -1.9280E+02   1.7185E+05  0.000E+00  0.000E+00  0.000E+00  3.59438E+01  1.661E-01  2.000E+01  2.000E+04 -9.640E-03
   1   15   25     3     4    1.7185E+05 -1.9506E+02   1.7205E+05  0.000E+00  0.000E+00  0.000E+00  3.50551E+01  1.662E-01  2.000E+01  2.000E+04 -9.753E-03
   1   15   26     3     5    1.7205E+05 -2.4905E+02   1.7229E+05  0.000E+00  0.000E+00  0.000E+00  3.41663E+01  1.663E-01  2.000E+01  2.000E+04 -1.245E-02
   1   16   27     3     6    1.7229E+05 -2.6529E+02   1.7256E+05  0.000E+00  0.000E+00  0.000E+00  3.32776E+01  1.664E-01  2.000E+01  2.000E+04 -1.326E-02
   1   17   28     3     7    1.7256E+05 -1.2729E+03   1.7383E+05  0.000E+00  0.000E+00  0.000E+00  3.23891E+01  1.669E-01  2.000E+01  2.000E+04 -6.365E-02
   1   18   29     3     8    1.7383E+05 -2.5500E+03   1.7638E+05  0.000E+00  0.000E+00  0.000E+00  3.15013E+01  1.680E-01  2.000E+01  2.000E+04 -1.275E-01
   1   18   30     3     9    1.7638E+05 -2.9226E+03   1.7931E+05  0.000E+00  0.000E+00  0.000E+00  3.06140E+01  1.696E-01  2.000E+01  2.000E+04 -1.461E-01



1
              HEAD IN LAYER   1 AT END OF TIME STEP   1 IN STRESS PERIOD    7
  ---------------------------------------------------------------------------

          1      2      3      4      5      6      7      8      9     10
         11     12     13     14     15     16     17     18     19     20
         21     22     23     24     25     26     27     28     29     30
 .........................................................................
   1  ****** ****** ****** ****** ****** ****** ****** ****** ****** ******
      ****** ****** ****** ****** ****** ****** ****** ****** ****** ******
      ****** ****** ****** ****** ****** ****** ****** ****** ****** ******
   2  ****** ****** ****** ****** ****** ****** ****** ****** ****** ******
      ****** ****** ****** ****** ****** ****** ****** ****** ****** ******
      ****** ****** ****** ****** ****** ****** ****** ****** ****** ******
   3  ****** ****** ****** ****** ****** ****** ****** ****** ****** ******
      ****** ****** ****** ****** ****** ****** ****** ****** ****** ******
      ****** ****** ****** ****** ****** ****** ****** ****** ****** ******
   4  ****** ****** ****** ****** ****** ****** ****** ****** ****** ******
      ****** ****** ****** ****** ****** ****** ****** ****** ****** ******
      ****** ****** ****** ****** ****** ****** ****** ****** ****** ******
   5  ****** ****** ****** ****** ****** ****** ****** ****** ****** ******
      ****** ****** ****** ****** ****** ****** ****** ****** ****** ******
      ****** ****** ****** ****** ****** ****** ****** ****** ****** ******
   6  ****** ****** ****** ****** ****** ****** ****** ****** ****** ******
      ****** ****** ****** ****** ****** ****** ****** ****** ****** ******
      ****** ****** ****** ****** ****** ****** ****** ****** ****** ******
   7  ****** ****** ****** ****** ****** ****** ****** ****** ****** ******
      ****** ****** ****** ****** ****** ****** ****** ****** ****** ******
      ****** ****** ****** ****** ****** ****** ****** ****** ****** ******
   8  ****** ****** ****** ****** ****** ****** ****** ****** ****** ******
      ****** ****** ****** ****** ****** ****** ****** ****** ****** ******
      ****** ****** ****** ****** ****** ****** ****** ****** ****** ******
   9  ****** ****** ****** ****** ****** ****** ****** ****** ****** ******
      ****** ****** ****** ****** ****** ****** ****** ****** ****** ******
      ****** ****** ****** ****** ****** ****** ****** ****** ****** ******
  10  ****** ****** ****** ****** ****** ****** ****** ****** ****** ******
      ****** ****** ****** ****** ****** ****** ****** ****** ****** ******
      ****** ****** ****** ****** ****** ****** ****** ****** ****** ******
  11  ****** ****** ****** ****** ****** ****** ****** ****** ****** ******
      ****** ****** ****** ****** ****** ****** ****** ****** ****** ******
      ****** ****** ****** ****** ****** ****** ****** ****** ****** ******
  12  ****** ****** ****** ****** ****** ****** ****** ****** ****** ******
      ****** ****** ****** ****** ****** ****** ****** ****** ****** ******
      ****** ****** ****** ****** ****** ****** ****** ****** ****** ******
  13  ****** ****** ****** ****** ****** ****** ****** ****** ****** ******
      ****** ****** ****** ****** ****** ****** ****** ****** ****** ******
      ****** ****** ****** ****** ****** ****** ****** ****** ****** ******
  14  ****** ****** ****** ****** ****** ****** ****** ****** ****** ******
      ****** ****** ****** ****** ****** ****** ****** ****** ****** ******
      ****** ****** ****** ****** ****** ****** ****** ****** ****** ******
  15  ****** ****** ****** ****** ****** ****** ****** ****** ****** ******
      ****** ****** ****** ****** ****** ****** ****** ****** ****** ******
      ****** ****** ****** ****** ****** ****** ****** ****** ****** ******
  16  ****** ****** ****** ****** ****** ****** ****** ****** ****** ******
      ****** ****** ****** ****** ****** ****** ****** ****** ****** ******
      ****** ****** ****** ****** ****** ****** ****** ****** ****** ******
  17  ****** ****** ****** ****** ****** ****** ****** ****** ****** ******
      ****** ****** ****** ****** ****** ****** ****** ****** ****** ******
      ****** ****** ****** ****** ****** ****** ****** ****** ****** ******
  18  ****** ****** ****** ****** ****** ****** ****** ****** ****** ******
      ****** ****** ****** ****** ****** ****** ****** ****** ****** ******
      ****** ****** ****** ****** ****** ****** ****** ****** ****** ******
  19  ****** ****** ****** ****** ****** ****** ****** ****** ****** ******
      ****** ****** ****** ****** ****** ****** ****** ****** ****** ******
      ****** ****** ****** ****** ****** ****** ****** ****** ****** ******
  20  ****** ****** ****** ****** ****** ****** ****** ****** ****** ******
      ****** ****** ****** ****** ****** ****** ****** ****** ****** ******
      ****** ****** ****** ****** ****** ****** ****** ****** ****** ******
  21  ****** ****** ****** ****** ****** ****** ****** ****** ****** ******
      ****** ****** ****** ****** ****** ****** ****** ****** ****** ******
      ****** ****** ****** ****** ****** ****** ****** ****** ****** ******
  22  ****** ****** ****** ****** ****** ****** ****** ****** ****** ******
      ****** ****** ****** ****** ****** ****** ****** ****** ****** ******
      ****** ****** ****** ****** ****** ****** ****** ****** ****** ******
  23  ****** ****** ****** ****** ****** ****** ****** ****** ****** ******
      ****** ****** ****** ****** ****** ****** ****** ****** ****** ******
      ****** ****** ****** ****** ****** ****** ****** ****** ****** ******
  24  ****** ****** ****** ****** ****** ****** ****** ****** ****** ******
      ****** ****** ****** ****** ****** ****** ****** ****** ****** ******
      ****** ****** ****** ****** ****** ****** ****** ****** ****** ******
  25  ****** ****** ****** ****** ****** ****** ****** ****** ****** ******
      ****** ****** ****** ****** ****** ****** ****** ****** ****** ******
      ****** ****** ****** ****** ****** ****** ****** ****** ****** ******

 HEAD WILL BE SAVED ON UNIT   51 AT END OF TIME STEP    1, STRESS PERIOD    7
1
  VOLUMETRIC BUDGET FOR ENTIRE MODEL AT END OF TIME STEP    1, STRESS PERIOD   7
  ------------------------------------------------------------------------------

     CUMULATIVE VOLUMES      L**3       RATES FOR THIS TIME STEP      L**3/T
     ------------------                 ------------------------

           IN:                                      IN:
           ---                                      ---
             STORAGE =    33889398.6343               STORAGE =       22823.1436
       CONSTANT HEAD =    16701540.4453         CONSTANT HEAD =       34396.7713
               WELLS =           0.0000                 WELLS =           0.0000
            RECHARGE =    15097200.0000              RECHARGE =           0.0000
      STREAM LEAKAGE =     4154820.5190        STREAM LEAKAGE =        8139.7480

            TOTAL IN =    69842959.5986              TOTAL IN =       65359.6630

          OUT:                                     OUT:
          ----                                     ----
             STORAGE =      742053.0701               STORAGE =           0.0000
       CONSTANT HEAD =           0.0000         CONSTANT HEAD =           0.0000
               WELLS =    17837556.5182                 WELLS =       27914.7989
            RECHARGE =           0.0000              RECHARGE =           0.0000
      STREAM LEAKAGE =    51263352.5686        STREAM LEAKAGE =       37444.8696

           TOTAL OUT =    69842962.1569             TOTAL OUT =       65359.6685

            IN - OUT =          -2.5583              IN - OUT =      -5.5409E-03

 PERCENT DISCREPANCY =          -0.00     PERCENT DISCREPANCY =          -0.00






         TIME SUMMARY AT END OF TIME STEP    1 IN STRESS PERIOD    7
                    SECONDS     MINUTES      HOURS       DAYS        YEARS
                    -----------------------------------------------------------
   TIME STEP LENGTH 7.86240E+06 1.31040E+05  2184.0      91.000     0.24914    
 STRESS PERIOD TIME 7.86240E+06 1.31040E+05  2184.0      91.000     0.24914    
         TOTAL TIME 5.52096E+07 9.20160E+05  15336.      639.00      1.7495    
1
1
                            STRESS PERIOD NO.    8, LENGTH =   91.00000    
                            -----------------------------------------------

                              NUMBER OF TIME STEPS =     1

                               MULTIPLIER FOR DELT =     1.500

                            INITIAL TIME STEP SIZE =   91.00000    

 WELL NO.  LAYER   ROW   COL   STRESS RATE         
 --------------------------------------------------
      1      1     10     17     -0.1009E+05
      2      1     11     19      -420.2    
      3      1     19     16      -9508.    
      4      1      6     15      -7895.    

      4 WELLS

                 RECHARGE =  1.000000E-03

 REUSING STREAM SEGMENT DATA FROM LAST STRESS PERIOD
 
 SOLVING FOR HEAD 


     6 CALLS TO PCG ROUTINE FOR TIME STEP   1 IN STRESS PERIOD    8
    22 TOTAL ITERATIONS

 OUTPUT CONTROL FOR STRESS PERIOD    8   TIME STEP    1
    SAVE BUDGET
    SAVE HEAD FOR ALL LAYERS
    PRINT HEAD FOR ALL LAYERS
 UBDSV2 SAVING "STREAMFLOW OUT  " ON UNIT  50 AT TIME STEP  1, STRESS PERIOD   8



 STREAM LISTING     PERIOD      8   STEP        1

 LAYER ROW COL. STREAM  RCH.  FLOW INTO     FLOW TO   FLOW OUT OF   OVRLND.     DIRECT     STREAM       STREAM     STREAM     STREAM   STREAMBED  STREAMBED
                SEG.NO.  NO.  STRM. RCH.    AQUIFER    STRM. RCH.    RUNOFF     PRECIP       ET          HEAD       DEPTH      WIDTH   CONDCTNC.   GRADIENT

   1   13    1     1     1    1.0000E+05 -1.6431E+03   1.0164E+05  0.000E+00  0.000E+00  0.000E+00  4.84067E+01  1.454E-01  2.000E+01  2.000E+04 -8.216E-02
   1   13    2     1     2    1.0164E+05 -2.5938E+03   1.0424E+05  0.000E+00  0.000E+00  0.000E+00  4.79313E+01  1.472E-01  2.000E+01  2.000E+04 -1.297E-01
   1   14    3     1     3    1.0424E+05 -4.4712E+02   1.0468E+05  0.000E+00  0.000E+00  0.000E+00  4.74553E+01  1.485E-01  2.000E+01  2.000E+04 -2.236E-02
   1   15    4     1     4    1.0468E+05 -4.1892E+02   1.0510E+05  0.000E+00  0.000E+00  0.000E+00  4.69784E+01  1.489E-01  2.000E+01  2.000E+04 -2.095E-02
   1   16    5     1     5    1.0510E+05 -1.5058E+03   1.0661E+05  0.000E+00  0.000E+00  0.000E+00  4.65019E+01  1.497E-01  2.000E+01  2.000E+04 -7.529E-02
   1   16    6     1     6    1.0661E+05 -9.4153E+02   1.0755E+05  0.000E+00  0.000E+00  0.000E+00  4.60257E+01  1.507E-01  2.000E+01  2.000E+04 -4.708E-02
   1   16    7     1     7    1.0755E+05 -9.0116E+02   1.0845E+05  0.000E+00  0.000E+00  0.000E+00  4.55492E+01  1.515E-01  2.000E+01  2.000E+04 -4.506E-02
   1   16    8     1     8    1.0845E+05 -8.6177E+02   1.0931E+05  0.000E+00  0.000E+00  0.000E+00  4.50727E+01  1.522E-01  2.000E+01  2.000E+04 -4.309E-02
   1   16    9     1     9    1.0931E+05 -8.0287E+02   1.1012E+05  0.000E+00  0.000E+00  0.000E+00  4.45961E+01  1.529E-01  2.000E+01  2.000E+04 -4.014E-02
   1   16   10     1    10    1.1012E+05 -7.1617E+02   1.1083E+05  0.000E+00  0.000E+00  0.000E+00  4.41195E+01  1.536E-01  2.000E+01  2.000E+04 -3.581E-02
   1   16   11     1    11    1.1083E+05 -5.9319E+02   1.1143E+05  0.000E+00  0.000E+00  0.000E+00  4.36427E+01  1.541E-01  2.000E+01  2.000E+04 -2.966E-02
   1   16   12     1    12    1.1143E+05 -6.1292E+02   1.1204E+05  0.000E+00  0.000E+00  0.000E+00  4.31660E+01  1.546E-01  2.000E+01  2.000E+04 -3.065E-02
   1   15   13     1    13    1.1204E+05 -4.7039E+02   1.1251E+05  0.000E+00  0.000E+00  0.000E+00  4.26891E+01  1.551E-01  2.000E+01  2.000E+04 -2.352E-02
   1   14   14     1    14    1.1251E+05 -6.3061E+02   1.1314E+05  0.000E+00  0.000E+00  0.000E+00  4.22123E+01  1.555E-01  2.000E+01  2.000E+04 -3.153E-02
   1   13   15     1    15    1.1314E+05 -6.8374E+02   1.1382E+05  0.000E+00  0.000E+00  0.000E+00  4.17356E+01  1.561E-01  2.000E+01  2.000E+04 -3.419E-02
   1   12   16     1    16    1.1382E+05 -1.1159E+02   1.1393E+05  0.000E+00  0.000E+00  0.000E+00  4.12587E+01  1.564E-01  2.000E+01  2.000E+04 -5.579E-03
   1   12   17     1    17    1.1393E+05  6.9101E+02   1.1324E+05  0.000E+00  0.000E+00  0.000E+00  4.07811E+01  1.561E-01  2.000E+01  2.000E+04  3.455E-02
   1   12   18     1    18    1.1324E+05  1.5415E+02   1.1309E+05  0.000E+00  0.000E+00  0.000E+00  4.03035E+01  1.558E-01  2.000E+01  2.000E+04  7.708E-03
   1   12   19     1    19    1.1309E+05 -5.5057E+02   1.1364E+05  0.000E+00  0.000E+00  0.000E+00  3.98264E+01  1.560E-01  2.000E+01  2.000E+04 -2.753E-02
   1   13   20     1    20    1.1364E+05 -8.9383E+02   1.1453E+05  0.000E+00  0.000E+00  0.000E+00  3.93497E+01  1.566E-01  2.000E+01  2.000E+04 -4.469E-02
   1   14   21     1    21    1.1453E+05 -8.3822E+02   1.1537E+05  0.000E+00  0.000E+00  0.000E+00  3.88732E+01  1.573E-01  2.000E+01  2.000E+04 -4.191E-02
   1   14   22     1    22    1.1537E+05  4.9244E+03   1.1045E+05  0.000E+00  0.000E+00  0.000E+00  3.83942E+01  1.556E-01  2.000E+01  2.000E+04  2.462E-01
   1    9   30     2     1    5.0000E+04 -5.6827E+02   5.0568E+04  0.000E+00  0.000E+00  0.000E+00  4.02413E+01  1.163E-01  2.000E+01  2.000E+04 -2.841E-02
   1    9   29     2     2    5.0568E+04 -8.5250E+02   5.1421E+04  0.000E+00  0.000E+00  0.000E+00  3.99922E+01  1.172E-01  2.000E+01  2.000E+04 -4.262E-02
   1    9   28     2     3    5.1421E+04 -1.0681E+03   5.2489E+04  0.000E+00  0.000E+00  0.000E+00  3.97436E+01  1.186E-01  2.000E+01  2.000E+04 -5.340E-02
   1    9   27     2     4    5.2489E+04 -2.0885E+03   5.4577E+04  0.000E+00  0.000E+00  0.000E+00  3.94957E+01  1.207E-01  2.000E+01  2.000E+04 -1.044E-01
   1   10   26     2     5    5.4577E+04 -1.3108E+03   5.5888E+04  0.000E+00  0.000E+00  0.000E+00  3.92480E+01  1.230E-01  2.000E+01  2.000E+04 -6.554E-02
   1   11   25     2     6    5.5888E+04 -1.0820E+03   5.6970E+04  0.000E+00  0.000E+00  0.000E+00  3.89996E+01  1.246E-01  2.000E+01  2.000E+04 -5.410E-02
   1   12   24     2     7    5.6970E+04 -1.0978E+03   5.8068E+04  0.000E+00  0.000E+00  0.000E+00  3.87510E+01  1.260E-01  2.000E+01  2.000E+04 -5.489E-02
   1   13   23     2     8    5.8068E+04 -1.8877E+02   5.8257E+04  0.000E+00  0.000E+00  0.000E+00  3.85019E+01  1.269E-01  2.000E+01  2.000E+04 -9.439E-03
   1   14   22     2     9    5.8257E+04  2.0529E+03   5.6204E+04  0.000E+00  0.000E+00  0.000E+00  3.82506E+01  1.256E-01  2.000E+01  2.000E+04  1.026E-01
   1   14   22     3     1    1.6665E+05 -8.5375E+03   1.7519E+05  0.000E+00  0.000E+00  0.000E+00  3.77211E+01  1.656E-01  2.000E+01  2.000E+04 -4.269E-01
   1   15   23     3     2    1.7519E+05 -4.2914E+02   1.7562E+05  0.000E+00  0.000E+00  0.000E+00  3.68348E+01  1.682E-01  2.000E+01  2.000E+04 -2.146E-02
   1   15   24     3     3    1.7562E+05 -2.5315E+02   1.7587E+05  0.000E+00  0.000E+00  0.000E+00  3.59461E+01  1.684E-01  2.000E+01  2.000E+04 -1.266E-02
   1   15   25     3     4    1.7587E+05 -2.5716E+02   1.7613E+05  0.000E+00  0.000E+00  0.000E+00  3.50574E+01  1.685E-01  2.000E+01  2.000E+04 -1.286E-02
   1   15   26     3     5    1.7613E+05 -3.2363E+02   1.7645E+05  0.000E+00  0.000E+00  0.000E+00  3.41687E+01  1.687E-01  2.000E+01  2.000E+04 -1.618E-02
   1   16   27     3     6    1.7645E+05 -3.4697E+02   1.7680E+05  0.000E+00  0.000E+00  0.000E+00  3.32800E+01  1.689E-01  2.000E+01  2.000E+04 -1.735E-02
   1   17   28     3     7    1.7680E+05 -1.4761E+03   1.7828E+05  0.000E+00  0.000E+00  0.000E+00  3.23916E+01  1.694E-01  2.000E+01  2.000E+04 -7.381E-02
   1   18   29     3     8    1.7828E+05 -2.7143E+03   1.8099E+05  0.000E+00  0.000E+00  0.000E+00  3.15039E+01  1.706E-01  2.000E+01  2.000E+04 -1.357E-01
   1   18   30     3     9    1.8099E+05 -3.0686E+03   1.8406E+05  0.000E+00  0.000E+00  0.000E+00  3.06167E+01  1.722E-01  2.000E+01  2.000E+04 -1.534E-01



1
              HEAD IN LAYER   1 AT END OF TIME STEP   1 IN STRESS PERIOD    8
  ---------------------------------------------------------------------------

          1      2      3      4      5      6      7      8      9     10
         11     12     13     14     15     16     17     18     19     20
         21     22     23     24     25     26     27     28     29     30
 .........................................................................
   1  ****** ****** ****** ****** ****** ****** ****** ****** ****** ******
      ****** ****** ****** ****** ****** ****** ****** ****** ****** ******
      ****** ****** ****** ****** ****** ****** ****** ****** ****** ******
   2  ****** ****** ****** ****** ****** ****** ****** ****** ****** ******
      ****** ****** ****** ****** ****** ****** ****** ****** ****** ******
      ****** ****** ****** ****** ****** ****** ****** ****** ****** ******
   3  ****** ****** ****** ****** ****** ****** ****** ****** ****** ******
      ****** ****** ****** ****** ****** ****** ****** ****** ****** ******
      ****** ****** ****** ****** ****** ****** ****** ****** ****** ******
   4  ****** ****** ****** ****** ****** ****** ****** ****** ****** ******
      ****** ****** ****** ****** ****** ****** ****** ****** ****** ******
      ****** ****** ****** ****** ****** ****** ****** ****** ****** ******
   5  ****** ****** ****** ****** ****** ****** ****** ****** ****** ******
      ****** ****** ****** ****** ****** ****** ****** ****** ****** ******
      ****** ****** ****** ****** ****** ****** ****** ****** ****** ******
   6  ****** ****** ****** ****** ****** ****** ****** ****** ****** ******
      ****** ****** ****** ****** ****** ****** ****** ****** ****** ******
      ****** ****** ****** ****** ****** ****** ****** ****** ****** ******
   7  ****** ****** ****** ****** ****** ****** ****** ****** ****** ******
      ****** ****** ****** ****** ****** ****** ****** ****** ****** ******
      ****** ****** ****** ****** ****** ****** ****** ****** ****** ******
   8  ****** ****** ****** ****** ****** ****** ****** ****** ****** ******
      ****** ****** ****** ****** ****** ****** ****** ****** ****** ******
      ****** ****** ****** ****** ****** ****** ****** ****** ****** ******
   9  ****** ****** ****** ****** ****** ****** ****** ****** ****** ******
      ****** ****** ****** ****** ****** ****** ****** ****** ****** ******
      ****** ****** ****** ****** ****** ****** ****** ****** ****** ******
  10  ****** ****** ****** ****** ****** ****** ****** ****** ****** ******
      ****** ****** ****** ****** ****** ****** ****** ****** ****** ******
      ****** ****** ****** ****** ****** ****** ****** ****** ****** ******
  11  ****** ****** ****** ****** ****** ****** ****** ****** ****** ******
      ****** ****** ****** ****** ****** ****** ****** ****** ****** ******
      ****** ****** ****** ****** ****** ****** ****** ****** ****** ******
  12  ****** ****** ****** ****** ****** ****** ****** ****** ****** ******
      ****** ****** ****** ****** ****** ****** ****** ****** ****** ******
      ****** ****** ****** ****** ****** ****** ****** ****** ****** ******
  13  ****** ****** ****** ****** ****** ****** ****** ****** ****** ******
      ****** ****** ****** ****** ****** ****** ****** ****** ****** ******
      ****** ****** ****** ****** ****** ****** ****** ****** ****** ******
  14  ****** ****** ****** ****** ****** ****** ****** ****** ****** ******
      ****** ****** ****** ****** ****** ****** ****** ****** ****** ******
      ****** ****** ****** ****** ****** ****** ****** ****** ****** ******
  15  ****** ****** ****** ****** ****** ****** ****** ****** ****** ******
      ****** ****** ****** ****** ****** ****** ****** ****** ****** ******
      ****** ****** ****** ****** ****** ****** ****** ****** ****** ******
  16  ****** ****** ****** ****** ****** ****** ****** ****** ****** ******
      ****** ****** ****** ****** ****** ****** ****** ****** ****** ******
      ****** ****** ****** ****** ****** ****** ****** ****** ****** ******
  17  ****** ****** ****** ****** ****** ****** ****** ****** ****** ******
      ****** ****** ****** ****** ****** ****** ****** ****** ****** ******
      ****** ****** ****** ****** ****** ****** ****** ****** ****** ******
  18  ****** ****** ****** ****** ****** ****** ****** ****** ****** ******
      ****** ****** ****** ****** ****** ****** ****** ****** ****** ******
      ****** ****** ****** ****** ****** ****** ****** ****** ****** ******
  19  ****** ****** ****** ****** ****** ****** ****** ****** ****** ******
      ****** ****** ****** ****** ****** ****** ****** ****** ****** ******
      ****** ****** ****** ****** ****** ****** ****** ****** ****** ******
  20  ****** ****** ****** ****** ****** ****** ****** ****** ****** ******
      ****** ****** ****** ****** ****** ****** ****** ****** ****** ******
      ****** ****** ****** ****** ****** ****** ****** ****** ****** ******
  21  ****** ****** ****** ****** ****** ****** ****** ****** ****** ******
      ****** ****** ****** ****** ****** ****** ****** ****** ****** ******
      ****** ****** ****** ****** ****** ****** ****** ****** ****** ******
  22  ****** ****** ****** ****** ****** ****** ****** ****** ****** ******
      ****** ****** ****** ****** ****** ****** ****** ****** ****** ******
      ****** ****** ****** ****** ****** ****** ****** ****** ****** ******
  23  ****** ****** ****** ****** ****** ****** ****** ****** ****** ******
      ****** ****** ****** ****** ****** ****** ****** ****** ****** ******
      ****** ****** ****** ****** ****** ****** ****** ****** ****** ******
  24  ****** ****** ****** ****** ****** ****** ****** ****** ****** ******
      ****** ****** ****** ****** ****** ****** ****** ****** ****** ******
      ****** ****** ****** ****** ****** ****** ****** ****** ****** ******
  25  ****** ****** ****** ****** ****** ****** ****** ****** ****** ******
      ****** ****** ****** ****** ****** ****** ****** ****** ****** ******
      ****** ****** ****** ****** ****** ****** ****** ****** ****** ******

 HEAD WILL BE SAVED ON UNIT   51 AT END OF TIME STEP    1, STRESS PERIOD    8
1
  VOLUMETRIC BUDGET FOR ENTIRE MODEL AT END OF TIME STEP    1, STRESS PERIOD   8
  ------------------------------------------------------------------------------

     CUMULATIVE VOLUMES      L**3       RATES FOR THIS TIME STEP      L**3/T
     ------------------                 ------------------------

           IN:                                      IN:
           ---                                      ---
             STORAGE =    34047630.9473               STORAGE =        1738.8166
       CONSTANT HEAD =    19808353.9933         CONSTANT HEAD =       34140.8082
               WELLS =           0.0000                 WELLS =           0.0000
            RECHARGE =    17608800.0000              RECHARGE =       27600.0000
      STREAM LEAKAGE =     4866666.6282        STREAM LEAKAGE =        7822.4847

            TOTAL IN =    76331451.5688              TOTAL IN =       71302.1096

          OUT:                                     OUT:
          ----                                     ----
             STORAGE =      879145.1949               STORAGE =        1506.5069
       CONSTANT HEAD =           0.0000         CONSTANT HEAD =           0.0000
               WELLS =    20377803.2211                 WELLS =       27914.7989
            RECHARGE =           0.0000              RECHARGE =           0.0000
      STREAM LEAKAGE =    55074504.9909        STREAM LEAKAGE =       41880.7958

           TOTAL OUT =    76331453.4069             TOTAL OUT =       71302.1016

            IN - OUT =          -1.8381              IN - OUT =       7.9138E-03

 PERCENT DISCREPANCY =          -0.00     PERCENT DISCREPANCY =           0.00






         TIME SUMMARY AT END OF TIME STEP    1 IN STRESS PERIOD    8
                    SECONDS     MINUTES      HOURS       DAYS        YEARS
                    -----------------------------------------------------------
   TIME STEP LENGTH 7.86240E+06 1.31040E+05  2184.0      91.000     0.24914    
 STRESS PERIOD TIME 7.86240E+06 1.31040E+05  2184.0      91.000     0.24914    
         TOTAL TIME 6.30720E+07 1.05120E+06  17520.      730.00      1.9986    
1
1
                            STRESS PERIOD NO.    9, LENGTH =   92.00000    
                            -----------------------------------------------

                              NUMBER OF TIME STEPS =     1

                               MULTIPLIER FOR DELT =     1.500

                            INITIAL TIME STEP SIZE =   92.00000    

 WELL NO.  LAYER   ROW   COL   STRESS RATE         
 --------------------------------------------------
      1      1     10     17     -0.1009E+05
      2      1     11     19      -420.2    
      3      1     19     16      -9508.    
      4      1      6     15      -7895.    

      4 WELLS

                 RECHARGE =  5.000000E-04

 REUSING STREAM SEGMENT DATA FROM LAST STRESS PERIOD
 
 SOLVING FOR HEAD 


     6 CALLS TO PCG ROUTINE FOR TIME STEP   1 IN STRESS PERIOD    9
    23 TOTAL ITERATIONS

 OUTPUT CONTROL FOR STRESS PERIOD    9   TIME STEP    1
    SAVE BUDGET
    SAVE HEAD FOR ALL LAYERS
    PRINT HEAD FOR ALL LAYERS
 UBDSV2 SAVING "STREAMFLOW OUT  " ON UNIT  50 AT TIME STEP  1, STRESS PERIOD   9



 STREAM LISTING     PERIOD      9   STEP        1

 LAYER ROW COL. STREAM  RCH.  FLOW INTO     FLOW TO   FLOW OUT OF   OVRLND.     DIRECT     STREAM       STREAM     STREAM     STREAM   STREAMBED  STREAMBED
                SEG.NO.  NO.  STRM. RCH.    AQUIFER    STRM. RCH.    RUNOFF     PRECIP       ET          HEAD       DEPTH      WIDTH   CONDCTNC.   GRADIENT

   1   13    1     1     1    1.0000E+05 -1.4218E+03   1.0142E+05  0.000E+00  0.000E+00  0.000E+00  4.84066E+01  1.453E-01  2.000E+01  2.000E+04 -7.109E-02
   1   13    2     1     2    1.0142E+05 -2.3429E+03   1.0376E+05  0.000E+00  0.000E+00  0.000E+00  4.79310E+01  1.469E-01  2.000E+01  2.000E+04 -1.171E-01
   1   14    3     1     3    1.0376E+05 -3.7510E+02   1.0414E+05  0.000E+00  0.000E+00  0.000E+00  4.74549E+01  1.481E-01  2.000E+01  2.000E+04 -1.875E-02
   1   15    4     1     4    1.0414E+05 -3.4609E+02   1.0449E+05  0.000E+00  0.000E+00  0.000E+00  4.69779E+01  1.484E-01  2.000E+01  2.000E+04 -1.730E-02
   1   16    5     1     5    1.0449E+05 -1.3123E+03   1.0580E+05  0.000E+00  0.000E+00  0.000E+00  4.65013E+01  1.491E-01  2.000E+01  2.000E+04 -6.561E-02
   1   16    6     1     6    1.0580E+05 -8.2047E+02   1.0662E+05  0.000E+00  0.000E+00  0.000E+00  4.60250E+01  1.500E-01  2.000E+01  2.000E+04 -4.102E-02
   1   16    7     1     7    1.0662E+05 -7.8374E+02   1.0740E+05  0.000E+00  0.000E+00  0.000E+00  4.55484E+01  1.507E-01  2.000E+01  2.000E+04 -3.919E-02
   1   16    8     1     8    1.0740E+05 -7.4588E+02   1.0815E+05  0.000E+00  0.000E+00  0.000E+00  4.50718E+01  1.513E-01  2.000E+01  2.000E+04 -3.729E-02
   1   16    9     1     9    1.0815E+05 -6.8867E+02   1.0884E+05  0.000E+00  0.000E+00  0.000E+00  4.45951E+01  1.519E-01  2.000E+01  2.000E+04 -3.443E-02
   1   16   10     1    10    1.0884E+05 -6.0415E+02   1.0944E+05  0.000E+00  0.000E+00  0.000E+00  4.41184E+01  1.524E-01  2.000E+01  2.000E+04 -3.021E-02
   1   16   11     1    11    1.0944E+05 -4.8238E+02   1.0992E+05  0.000E+00  0.000E+00  0.000E+00  4.36415E+01  1.529E-01  2.000E+01  2.000E+04 -2.412E-02
   1   16   12     1    12    1.0992E+05 -4.2291E+02   1.1035E+05  0.000E+00  0.000E+00  0.000E+00  4.31646E+01  1.533E-01  2.000E+01  2.000E+04 -2.115E-02
   1   15   13     1    13    1.1035E+05 -2.5764E+02   1.1060E+05  0.000E+00  0.000E+00  0.000E+00  4.26877E+01  1.536E-01  2.000E+01  2.000E+04 -1.288E-02
   1   14   14     1    14    1.1060E+05 -4.0335E+02   1.1101E+05  0.000E+00  0.000E+00  0.000E+00  4.22107E+01  1.538E-01  2.000E+01  2.000E+04 -2.017E-02
   1   13   15     1    15    1.1101E+05 -4.4975E+02   1.1146E+05  0.000E+00  0.000E+00  0.000E+00  4.17337E+01  1.542E-01  2.000E+01  2.000E+04 -2.249E-02
   1   12   16     1    16    1.1146E+05  1.3221E+02   1.1132E+05  0.000E+00  0.000E+00  0.000E+00  4.12566E+01  1.543E-01  2.000E+01  2.000E+04  6.610E-03
   1   12   17     1    17    1.1132E+05  8.5725E+02   1.1047E+05  0.000E+00  0.000E+00  0.000E+00  4.07789E+01  1.539E-01  2.000E+01  2.000E+04  4.286E-02
   1   12   18     1    18    1.1047E+05  3.1235E+02   1.1016E+05  0.000E+00  0.000E+00  0.000E+00  4.03012E+01  1.534E-01  2.000E+01  2.000E+04  1.562E-02
   1   12   19     1    19    1.1016E+05 -3.6024E+02   1.1052E+05  0.000E+00  0.000E+00  0.000E+00  3.98239E+01  1.534E-01  2.000E+01  2.000E+04 -1.801E-02
   1   13   20     1    20    1.1052E+05 -7.1867E+02   1.1123E+05  0.000E+00  0.000E+00  0.000E+00  3.93471E+01  1.539E-01  2.000E+01  2.000E+04 -3.593E-02
   1   14   21     1    21    1.1123E+05 -6.6575E+02   1.1190E+05  0.000E+00  0.000E+00  0.000E+00  3.88704E+01  1.545E-01  2.000E+01  2.000E+04 -3.329E-02
   1   14   22     1    22    1.1190E+05  4.9617E+03   1.0694E+05  0.000E+00  0.000E+00  0.000E+00  3.83913E+01  1.527E-01  2.000E+01  2.000E+04  2.481E-01
   1    9   30     2     1    5.0000E+04 -4.4418E+02   5.0444E+04  0.000E+00  0.000E+00  0.000E+00  4.02412E+01  1.162E-01  2.000E+01  2.000E+04 -2.221E-02
   1    9   29     2     2    5.0444E+04 -7.2812E+02   5.1172E+04  0.000E+00  0.000E+00  0.000E+00  3.99920E+01  1.170E-01  2.000E+01  2.000E+04 -3.641E-02
   1    9   28     2     3    5.1172E+04 -9.4160E+02   5.2114E+04  0.000E+00  0.000E+00  0.000E+00  3.97431E+01  1.181E-01  2.000E+01  2.000E+04 -4.708E-02
   1    9   27     2     4    5.2114E+04 -1.9098E+03   5.4024E+04  0.000E+00  0.000E+00  0.000E+00  3.94951E+01  1.201E-01  2.000E+01  2.000E+04 -9.549E-02
   1   10   26     2     5    5.4024E+04 -1.1353E+03   5.5159E+04  0.000E+00  0.000E+00  0.000E+00  3.92471E+01  1.221E-01  2.000E+01  2.000E+04 -5.676E-02
   1   11   25     2     6    5.5159E+04 -9.1413E+02   5.6073E+04  0.000E+00  0.000E+00  0.000E+00  3.89985E+01  1.235E-01  2.000E+01  2.000E+04 -4.571E-02
   1   12   24     2     7    5.6073E+04 -9.4331E+02   5.7016E+04  0.000E+00  0.000E+00  0.000E+00  3.87497E+01  1.247E-01  2.000E+01  2.000E+04 -4.717E-02
   1   13   23     2     8    5.7016E+04 -1.4138E+02   5.7158E+04  0.000E+00  0.000E+00  0.000E+00  3.85005E+01  1.255E-01  2.000E+01  2.000E+04 -7.069E-03
   1   14   22     2     9    5.7158E+04  2.1184E+03   5.5039E+04  0.000E+00  0.000E+00  0.000E+00  3.82491E+01  1.241E-01  2.000E+01  2.000E+04  1.059E-01
   1   14   22     3     1    1.6198E+05 -8.4970E+03   1.7047E+05  0.000E+00  0.000E+00  0.000E+00  3.77184E+01  1.628E-01  2.000E+01  2.000E+04 -4.249E-01
   1   15   23     3     2    1.7047E+05 -3.7647E+02   1.7085E+05  0.000E+00  0.000E+00  0.000E+00  3.68321E+01  1.654E-01  2.000E+01  2.000E+04 -1.882E-02
   1   15   24     3     3    1.7085E+05 -2.1010E+02   1.7106E+05  0.000E+00  0.000E+00  0.000E+00  3.59434E+01  1.656E-01  2.000E+01  2.000E+04 -1.051E-02
   1   15   25     3     4    1.7106E+05 -2.1386E+02   1.7128E+05  0.000E+00  0.000E+00  0.000E+00  3.50546E+01  1.657E-01  2.000E+01  2.000E+04 -1.069E-02
   1   15   26     3     5    1.7128E+05 -2.7602E+02   1.7155E+05  0.000E+00  0.000E+00  0.000E+00  3.41659E+01  1.659E-01  2.000E+01  2.000E+04 -1.380E-02
   1   16   27     3     6    1.7155E+05 -2.9094E+02   1.7184E+05  0.000E+00  0.000E+00  0.000E+00  3.32771E+01  1.660E-01  2.000E+01  2.000E+04 -1.455E-02
   1   17   28     3     7    1.7184E+05 -1.3225E+03   1.7316E+05  0.000E+00  0.000E+00  0.000E+00  3.23887E+01  1.665E-01  2.000E+01  2.000E+04 -6.613E-02
   1   18   29     3     8    1.7316E+05 -2.5381E+03   1.7570E+05  0.000E+00  0.000E+00  0.000E+00  3.15009E+01  1.676E-01  2.000E+01  2.000E+04 -1.269E-01
   1   18   30     3     9    1.7570E+05 -2.9363E+03   1.7864E+05  0.000E+00  0.000E+00  0.000E+00  3.06136E+01  1.692E-01  2.000E+01  2.000E+04 -1.468E-01



1
              HEAD IN LAYER   1 AT END OF TIME STEP   1 IN STRESS PERIOD    9
  ---------------------------------------------------------------------------

          1      2      3      4      5      6      7      8      9     10
         11     12     13     14     15     16     17     18     19     20
         21     22     23     24     25     26     27     28     29     30
 .........................................................................
   1  ****** ****** ****** ****** ****** ****** ****** ****** ****** ******
      ****** ****** ****** ****** ****** ****** ****** ****** ****** ******
      ****** ****** ****** ****** ****** ****** ****** ****** ****** ******
   2  ****** ****** ****** ****** ****** ****** ****** ****** ****** ******
      ****** ****** ****** ****** ****** ****** ****** ****** ****** ******
      ****** ****** ****** ****** ****** ****** ****** ****** ****** ******
   3  ****** ****** ****** ****** ****** ****** ****** ****** ****** ******
      ****** ****** ****** ****** ****** ****** ****** ****** ****** ******
      ****** ****** ****** ****** ****** ****** ****** ****** ****** ******
   4  ****** ****** ****** ****** ****** ****** ****** ****** ****** ******
      ****** ****** ****** ****** ****** ****** ****** ****** ****** ******
      ****** ****** ****** ****** ****** ****** ****** ****** ****** ******
   5  ****** ****** ****** ****** ****** ****** ****** ****** ****** ******
      ****** ****** ****** ****** ****** ****** ****** ****** ****** ******
      ****** ****** ****** ****** ****** ****** ****** ****** ****** ******
   6  ****** ****** ****** ****** ****** ****** ****** ****** ****** ******
      ****** ****** ****** ****** ****** ****** ****** ****** ****** ******
      ****** ****** ****** ****** ****** ****** ****** ****** ****** ******
   7  ****** ****** ****** ****** ****** ****** ****** ****** ****** ******
      ****** ****** ****** ****** ****** ****** ****** ****** ****** ******
      ****** ****** ****** ****** ****** ****** ****** ****** ****** ******
   8  ****** ****** ****** ****** ****** ****** ****** ****** ****** ******
      ****** ****** ****** ****** ****** ****** ****** ****** ****** ******
      ****** ****** ****** ****** ****** ****** ****** ****** ****** ******
   9  ****** ****** ****** ****** ****** ****** ****** ****** ****** ******
      ****** ****** ****** ****** ****** ****** ****** ****** ****** ******
      ****** ****** ****** ****** ****** ****** ****** ****** ****** ******
  10  ****** ****** ****** ****** ****** ****** ****** ****** ****** ******
      ****** ****** ****** ****** ****** ****** ****** ****** ****** ******
      ****** ****** ****** ****** ****** ****** ****** ****** ****** ******
  11  ****** ****** ****** ****** ****** ****** ****** ****** ****** ******
      ****** ****** ****** ****** ****** ****** ****** ****** ****** ******
      ****** ****** ****** ****** ****** ****** ****** ****** ****** ******
  12  ****** ****** ****** ****** ****** ****** ****** ****** ****** ******
      ****** ****** ****** ****** ****** ****** ****** ****** ****** ******
      ****** ****** ****** ****** ****** ****** ****** ****** ****** ******
  13  ****** ****** ****** ****** ****** ****** ****** ****** ****** ******
      ****** ****** ****** ****** ****** ****** ****** ****** ****** ******
      ****** ****** ****** ****** ****** ****** ****** ****** ****** ******
  14  ****** ****** ****** ****** ****** ****** ****** ****** ****** ******
      ****** ****** ****** ****** ****** ****** ****** ****** ****** ******
      ****** ****** ****** ****** ****** ****** ****** ****** ****** ******
  15  ****** ****** ****** ****** ****** ****** ****** ****** ****** ******
      ****** ****** ****** ****** ****** ****** ****** ****** ****** ******
      ****** ****** ****** ****** ****** ****** ****** ****** ****** ******
  16  ****** ****** ****** ****** ****** ****** ****** ****** ****** ******
      ****** ****** ****** ****** ****** ****** ****** ****** ****** ******
      ****** ****** ****** ****** ****** ****** ****** ****** ****** ******
  17  ****** ****** ****** ****** ****** ****** ****** ****** ****** ******
      ****** ****** ****** ****** ****** ****** ****** ****** ****** ******
      ****** ****** ****** ****** ****** ****** ****** ****** ****** ******
  18  ****** ****** ****** ****** ****** ****** ****** ****** ****** ******
      ****** ****** ****** ****** ****** ****** ****** ****** ****** ******
      ****** ****** ****** ****** ****** ****** ****** ****** ****** ******
  19  ****** ****** ****** ****** ****** ****** ****** ****** ****** ******
      ****** ****** ****** ****** ****** ****** ****** ****** ****** ******
      ****** ****** ****** ****** ****** ****** ****** ****** ****** ******
  20  ****** ****** ****** ****** ****** ****** ****** ****** ****** ******
      ****** ****** ****** ****** ****** ****** ****** ****** ****** ******
      ****** ****** ****** ****** ****** ****** ****** ****** ****** ******
  21  ****** ****** ****** ****** ****** ****** ****** ****** ****** ******
      ****** ****** ****** ****** ****** ****** ****** ****** ****** ******
      ****** ****** ****** ****** ****** ****** ****** ****** ****** ******
  22  ****** ****** ****** ****** ****** ****** ****** ****** ****** ******
      ****** ****** ****** ****** ****** ****** ****** ****** ****** ******
      ****** ****** ****** ****** ****** ****** ****** ****** ****** ******
  23  ****** ****** ****** ****** ****** ****** ****** ****** ****** ******
      ****** ****** ****** ****** ****** ****** ****** ****** ****** ******
      ****** ****** ****** ****** ****** ****** ****** ****** ****** ******
  24  ****** ****** ****** ****** ****** ****** ****** ****** ****** ******
      ****** ****** ****** ****** ****** ****** ****** ****** ****** ******
      ****** ****** ****** ****** ****** ****** ****** ****** ****** ******
  25  ****** ****** ****** ****** ****** ****** ****** ****** ****** ******
      ****** ****** ****** ****** ****** ****** ****** ****** ****** ******
      ****** ****** ****** ****** ****** ****** ****** ****** ****** ******

 HEAD WILL BE SAVED ON UNIT   51 AT END OF TIME STEP    1, STRESS PERIOD    9
1
  VOLUMETRIC BUDGET FOR ENTIRE MODEL AT END OF TIME STEP    1, STRESS PERIOD   9
  ------------------------------------------------------------------------------

     CUMULATIVE VOLUMES      L**3       RATES FOR THIS TIME STEP      L**3/T
     ------------------                 ------------------------

           IN:                                      IN:
           ---                                      ---
             STORAGE =    34730298.7606               STORAGE =        7420.3023
       CONSTANT HEAD =    23059028.4632         CONSTANT HEAD =       35333.4182
               WELLS =           0.0000                 WELLS =           0.0000
            RECHARGE =    18878400.0000              RECHARGE =       13800.0000
      STREAM LEAKAGE =     5637800.5675        STREAM LEAKAGE =        8381.8906

            TOTAL IN =    82305527.7913              TOTAL IN =       64935.6111

          OUT:                                     OUT:
          ----                                     ----
             STORAGE =      879145.1949               STORAGE =           0.0000
       CONSTANT HEAD =           0.0000         CONSTANT HEAD =           0.0000
               WELLS =    22945964.7230                 WELLS =       27914.7989
            RECHARGE =           0.0000              RECHARGE =           0.0000
      STREAM LEAKAGE =    58480419.7841        STREAM LEAKAGE =       37020.8130

           TOTAL OUT =    82305529.7020             TOTAL OUT =       64935.6119

            IN - OUT =          -1.9107              IN - OUT =      -7.8920E-04

 PERCENT DISCREPANCY =          -0.00     PERCENT DISCREPANCY =          -0.00






         TIME SUMMARY AT END OF TIME STEP    1 IN STRESS PERIOD    9
                    SECONDS     MINUTES      HOURS       DAYS        YEARS
                    -----------------------------------------------------------
   TIME STEP LENGTH 7.94880E+06 1.32480E+05  2208.0      92.000     0.25188    
 STRESS PERIOD TIME 7.94880E+06 1.32480E+05  2208.0      92.000     0.25188    
         TOTAL TIME 7.10208E+07 1.18368E+06  19728.      822.00      2.2505    
1
1
                            STRESS PERIOD NO.   10, LENGTH =   91.00000    
                            -----------------------------------------------

                              NUMBER OF TIME STEPS =     1

                               MULTIPLIER FOR DELT =     1.500

                            INITIAL TIME STEP SIZE =   91.00000    

 WELL NO.  LAYER   ROW   COL   STRESS RATE         
 --------------------------------------------------
      1      1     10     17     -0.1009E+05
      2      1     11     19      -420.2    
      3      1     19     16      -9508.    
      4      1      6     15      -7895.    

      4 WELLS

                 RECHARGE =  2.000000E-03

 REUSING STREAM SEGMENT DATA FROM LAST STRESS PERIOD
 
 SOLVING FOR HEAD 


     7 CALLS TO PCG ROUTINE FOR TIME STEP   1 IN STRESS PERIOD   10
    26 TOTAL ITERATIONS

 OUTPUT CONTROL FOR STRESS PERIOD   10   TIME STEP    1
    SAVE BUDGET
    SAVE HEAD FOR ALL LAYERS
    PRINT HEAD FOR ALL LAYERS
 UBDSV2 SAVING "STREAMFLOW OUT  " ON UNIT  50 AT TIME STEP  1, STRESS PERIOD  10



 STREAM LISTING     PERIOD     10   STEP        1

 LAYER ROW COL. STREAM  RCH.  FLOW INTO     FLOW TO   FLOW OUT OF   OVRLND.     DIRECT     STREAM       STREAM     STREAM     STREAM   STREAMBED  STREAMBED
                SEG.NO.  NO.  STRM. RCH.    AQUIFER    STRM. RCH.    RUNOFF     PRECIP       ET          HEAD       DEPTH      WIDTH   CONDCTNC.   GRADIENT

   1   13    1     1     1    1.0000E+05 -1.8693E+03   1.0187E+05  0.000E+00  0.000E+00  0.000E+00  4.84068E+01  1.455E-01  2.000E+01  2.000E+04 -9.346E-02
   1   13    2     1     2    1.0187E+05 -2.8385E+03   1.0471E+05  0.000E+00  0.000E+00  0.000E+00  4.79316E+01  1.475E-01  2.000E+01  2.000E+04 -1.419E-01
   1   14    3     1     3    1.0471E+05 -5.6072E+02   1.0527E+05  0.000E+00  0.000E+00  0.000E+00  4.74558E+01  1.489E-01  2.000E+01  2.000E+04 -2.804E-02
   1   15    4     1     4    1.0527E+05 -5.4479E+02   1.0581E+05  0.000E+00  0.000E+00  0.000E+00  4.69790E+01  1.494E-01  2.000E+01  2.000E+04 -2.724E-02
   1   16    5     1     5    1.0581E+05 -1.9305E+03   1.0774E+05  0.000E+00  0.000E+00  0.000E+00  4.65027E+01  1.505E-01  2.000E+01  2.000E+04 -9.653E-02
   1   16    6     1     6    1.0774E+05 -1.1819E+03   1.0893E+05  0.000E+00  0.000E+00  0.000E+00  4.60268E+01  1.518E-01  2.000E+01  2.000E+04 -5.910E-02
   1   16    7     1     7    1.0893E+05 -1.1274E+03   1.1005E+05  0.000E+00  0.000E+00  0.000E+00  4.55505E+01  1.527E-01  2.000E+01  2.000E+04 -5.637E-02
   1   16    8     1     8    1.1005E+05 -1.0841E+03   1.1114E+05  0.000E+00  0.000E+00  0.000E+00  4.50741E+01  1.537E-01  2.000E+01  2.000E+04 -5.420E-02
   1   16    9     1     9    1.1114E+05 -1.0254E+03   1.1216E+05  0.000E+00  0.000E+00  0.000E+00  4.45977E+01  1.545E-01  2.000E+01  2.000E+04 -5.127E-02
   1   16   10     1    10    1.1216E+05 -9.4118E+02   1.1310E+05  0.000E+00  0.000E+00  0.000E+00  4.41213E+01  1.554E-01  2.000E+01  2.000E+04 -4.706E-02
   1   16   11     1    11    1.1310E+05 -8.2303E+02   1.1393E+05  0.000E+00  0.000E+00  0.000E+00  4.36447E+01  1.561E-01  2.000E+01  2.000E+04 -4.115E-02
   1   16   12     1    12    1.1393E+05 -9.9130E+02   1.1492E+05  0.000E+00  0.000E+00  0.000E+00  4.31682E+01  1.568E-01  2.000E+01  2.000E+04 -4.957E-02
   1   15   13     1    13    1.1492E+05 -8.4201E+02   1.1576E+05  0.000E+00  0.000E+00  0.000E+00  4.26917E+01  1.576E-01  2.000E+01  2.000E+04 -4.210E-02
   1   14   14     1    14    1.1576E+05 -9.9420E+02   1.1675E+05  0.000E+00  0.000E+00  0.000E+00  4.22152E+01  1.583E-01  2.000E+01  2.000E+04 -4.971E-02
   1   13   15     1    15    1.1675E+05 -1.0300E+03   1.1778E+05  0.000E+00  0.000E+00  0.000E+00  4.17387E+01  1.592E-01  2.000E+01  2.000E+04 -5.150E-02
   1   12   16     1    16    1.1778E+05 -4.2555E+02   1.1821E+05  0.000E+00  0.000E+00  0.000E+00  4.12620E+01  1.598E-01  2.000E+01  2.000E+04 -2.128E-02
   1   12   17     1    17    1.1821E+05  4.3387E+02   1.1778E+05  0.000E+00  0.000E+00  0.000E+00  4.07847E+01  1.597E-01  2.000E+01  2.000E+04  2.169E-02
   1   12   18     1    18    1.1778E+05 -1.0722E+02   1.1788E+05  0.000E+00  0.000E+00  0.000E+00  4.03073E+01  1.596E-01  2.000E+01  2.000E+04 -5.361E-03
   1   12   19     1    19    1.1788E+05 -8.7668E+02   1.1876E+05  0.000E+00  0.000E+00  0.000E+00  3.98305E+01  1.600E-01  2.000E+01  2.000E+04 -4.383E-02
   1   13   20     1    20    1.1876E+05 -1.2389E+03   1.2000E+05  0.000E+00  0.000E+00  0.000E+00  3.93541E+01  1.609E-01  2.000E+01  2.000E+04 -6.195E-02
   1   14   21     1    21    1.2000E+05 -1.1901E+03   1.2119E+05  0.000E+00  0.000E+00  0.000E+00  3.88778E+01  1.619E-01  2.000E+01  2.000E+04 -5.951E-02
   1   14   22     1    22    1.2119E+05  4.8373E+03   1.1635E+05  0.000E+00  0.000E+00  0.000E+00  3.83990E+01  1.604E-01  2.000E+01  2.000E+04  2.419E-01
   1    9   30     2     1    5.0000E+04 -8.5795E+02   5.0858E+04  0.000E+00  0.000E+00  0.000E+00  4.02415E+01  1.165E-01  2.000E+01  2.000E+04 -4.290E-02
   1    9   29     2     2    5.0858E+04 -1.1396E+03   5.1998E+04  0.000E+00  0.000E+00  0.000E+00  3.99928E+01  1.178E-01  2.000E+01  2.000E+04 -5.698E-02
   1    9   28     2     3    5.1998E+04 -1.3521E+03   5.3350E+04  0.000E+00  0.000E+00  0.000E+00  3.97445E+01  1.195E-01  2.000E+01  2.000E+04 -6.761E-02
   1    9   27     2     4    5.3350E+04 -2.4615E+03   5.5811E+04  0.000E+00  0.000E+00  0.000E+00  3.94971E+01  1.221E-01  2.000E+01  2.000E+04 -1.231E-01
   1   10   26     2     5    5.5811E+04 -1.6872E+03   5.7498E+04  0.000E+00  0.000E+00  0.000E+00  3.92499E+01  1.249E-01  2.000E+01  2.000E+04 -8.436E-02
   1   11   25     2     6    5.7498E+04 -1.4415E+03   5.8940E+04  0.000E+00  0.000E+00  0.000E+00  3.90019E+01  1.269E-01  2.000E+01  2.000E+04 -7.208E-02
   1   12   24     2     7    5.8940E+04 -1.4206E+03   6.0360E+04  0.000E+00  0.000E+00  0.000E+00  3.87538E+01  1.288E-01  2.000E+01  2.000E+04 -7.103E-02
   1   13   23     2     8    6.0360E+04 -2.8995E+02   6.0650E+04  0.000E+00  0.000E+00  0.000E+00  3.85049E+01  1.299E-01  2.000E+01  2.000E+04 -1.450E-02
   1   14   22     2     9    6.0650E+04  1.9340E+03   5.8716E+04  0.000E+00  0.000E+00  0.000E+00  3.82538E+01  1.288E-01  2.000E+01  2.000E+04  9.670E-02
   1   14   22     3     1    1.7507E+05 -8.6232E+03   1.8369E+05  0.000E+00  0.000E+00  0.000E+00  3.77260E+01  1.704E-01  2.000E+01  2.000E+04 -4.312E-01
   1   15   23     3     2    1.8369E+05 -5.3895E+02   1.8423E+05  0.000E+00  0.000E+00  0.000E+00  3.68397E+01  1.730E-01  2.000E+01  2.000E+04 -2.695E-02
   1   15   24     3     3    1.8423E+05 -3.4725E+02   1.8458E+05  0.000E+00  0.000E+00  0.000E+00  3.59511E+01  1.733E-01  2.000E+01  2.000E+04 -1.736E-02
   1   15   25     3     4    1.8458E+05 -3.5442E+02   1.8493E+05  0.000E+00  0.000E+00  0.000E+00  3.50624E+01  1.735E-01  2.000E+01  2.000E+04 -1.772E-02
   1   15   26     3     5    1.8493E+05 -4.3825E+02   1.8537E+05  0.000E+00  0.000E+00  0.000E+00  3.41737E+01  1.737E-01  2.000E+01  2.000E+04 -2.191E-02
   1   16   27     3     6    1.8537E+05 -4.7678E+02   1.8585E+05  0.000E+00  0.000E+00  0.000E+00  3.32851E+01  1.740E-01  2.000E+01  2.000E+04 -2.384E-02
   1   17   28     3     7    1.8585E+05 -1.8431E+03   1.8769E+05  0.000E+00  0.000E+00  0.000E+00  3.23968E+01  1.746E-01  2.000E+01  2.000E+04 -9.215E-02
   1   18   29     3     8    1.8769E+05 -3.0893E+03   1.9078E+05  0.000E+00  0.000E+00  0.000E+00  3.15093E+01  1.760E-01  2.000E+01  2.000E+04 -1.545E-01
   1   18   30     3     9    1.9078E+05 -3.3615E+03   1.9414E+05  0.000E+00  0.000E+00  0.000E+00  3.06222E+01  1.778E-01  2.000E+01  2.000E+04 -1.681E-01



1
              HEAD IN LAYER   1 AT END OF TIME STEP   1 IN STRESS PERIOD   10
  ---------------------------------------------------------------------------

          1      2      3      4      5      6      7      8      9     10
         11     12     13     14     15     16     17     18     19     20
         21     22     23     24     25     26     27     28     29     30
 .........................................................................
   1  ****** ****** ****** ****** ****** ****** ****** ****** ****** ******
      ****** ****** ****** ****** ****** ****** ****** ****** ****** ******
      ****** ****** ****** ****** ****** ****** ****** ****** ****** ******
   2  ****** ****** ****** ****** ****** ****** ****** ****** ****** ******
      ****** ****** ****** ****** ****** ****** ****** ****** ****** ******
      ****** ****** ****** ****** ****** ****** ****** ****** ****** ******
   3  ****** ****** ****** ****** ****** ****** ****** ****** ****** ******
      ****** ****** ****** ****** ****** ****** ****** ****** ****** ******
      ****** ****** ****** ****** ****** ****** ****** ****** ****** ******
   4  ****** ****** ****** ****** ****** ****** ****** ****** ****** ******
      ****** ****** ****** ****** ****** ****** ****** ****** ****** ******
      ****** ****** ****** ****** ****** ****** ****** ****** ****** ******
   5  ****** ****** ****** ****** ****** ****** ****** ****** ****** ******
      ****** ****** ****** ****** ****** ****** ****** ****** ****** ******
      ****** ****** ****** ****** ****** ****** ****** ****** ****** ******
   6  ****** ****** ****** ****** ****** ****** ****** ****** ****** ******
      ****** ****** ****** ****** ****** ****** ****** ****** ****** ******
      ****** ****** ****** ****** ****** ****** ****** ****** ****** ******
   7  ****** ****** ****** ****** ****** ****** ****** ****** ****** ******
      ****** ****** ****** ****** ****** ****** ****** ****** ****** ******
      ****** ****** ****** ****** ****** ****** ****** ****** ****** ******
   8  ****** ****** ****** ****** ****** ****** ****** ****** ****** ******
      ****** ****** ****** ****** ****** ****** ****** ****** ****** ******
      ****** ****** ****** ****** ****** ****** ****** ****** ****** ******
   9  ****** ****** ****** ****** ****** ****** ****** ****** ****** ******
      ****** ****** ****** ****** ****** ****** ****** ****** ****** ******
      ****** ****** ****** ****** ****** ****** ****** ****** ****** ******
  10  ****** ****** ****** ****** ****** ****** ****** ****** ****** ******
      ****** ****** ****** ****** ****** ****** ****** ****** ****** ******
      ****** ****** ****** ****** ****** ****** ****** ****** ****** ******
  11  ****** ****** ****** ****** ****** ****** ****** ****** ****** ******
      ****** ****** ****** ****** ****** ****** ****** ****** ****** ******
      ****** ****** ****** ****** ****** ****** ****** ****** ****** ******
  12  ****** ****** ****** ****** ****** ****** ****** ****** ****** ******
      ****** ****** ****** ****** ****** ****** ****** ****** ****** ******
      ****** ****** ****** ****** ****** ****** ****** ****** ****** ******
  13  ****** ****** ****** ****** ****** ****** ****** ****** ****** ******
      ****** ****** ****** ****** ****** ****** ****** ****** ****** ******
      ****** ****** ****** ****** ****** ****** ****** ****** ****** ******
  14  ****** ****** ****** ****** ****** ****** ****** ****** ****** ******
      ****** ****** ****** ****** ****** ****** ****** ****** ****** ******
      ****** ****** ****** ****** ****** ****** ****** ****** ****** ******
  15  ****** ****** ****** ****** ****** ****** ****** ****** ****** ******
      ****** ****** ****** ****** ****** ****** ****** ****** ****** ******
      ****** ****** ****** ****** ****** ****** ****** ****** ****** ******
  16  ****** ****** ****** ****** ****** ****** ****** ****** ****** ******
      ****** ****** ****** ****** ****** ****** ****** ****** ****** ******
      ****** ****** ****** ****** ****** ****** ****** ****** ****** ******
  17  ****** ****** ****** ****** ****** ****** ****** ****** ****** ******
      ****** ****** ****** ****** ****** ****** ****** ****** ****** ******
      ****** ****** ****** ****** ****** ****** ****** ****** ****** ******
  18  ****** ****** ****** ****** ****** ****** ****** ****** ****** ******
      ****** ****** ****** ****** ****** ****** ****** ****** ****** ******
      ****** ****** ****** ****** ****** ****** ****** ****** ****** ******
  19  ****** ****** ****** ****** ****** ****** ****** ****** ****** ******
      ****** ****** ****** ****** ****** ****** ****** ****** ****** ******
      ****** ****** ****** ****** ****** ****** ****** ****** ****** ******
  20  ****** ****** ****** ****** ****** ****** ****** ****** ****** ******
      ****** ****** ****** ****** ****** ****** ****** ****** ****** ******
      ****** ****** ****** ****** ****** ****** ****** ****** ****** ******
  21  ****** ****** ****** ****** ****** ****** ****** ****** ****** ******
      ****** ****** ****** ****** ****** ****** ****** ****** ****** ******
      ****** ****** ****** ****** ****** ****** ****** ****** ****** ******
  22  ****** ****** ****** ****** ****** ****** ****** ****** ****** ******
      ****** ****** ****** ****** ****** ****** ****** ****** ****** ******
      ****** ****** ****** ****** ****** ****** ****** ****** ****** ******
  23  ****** ****** ****** ****** ****** ****** ****** ****** ****** ******
      ****** ****** ****** ****** ****** ****** ****** ****** ****** ******
      ****** ****** ****** ****** ****** ****** ****** ****** ****** ******
  24  ****** ****** ****** ****** ****** ****** ****** ****** ****** ******
      ****** ****** ****** ****** ****** ****** ****** ****** ****** ******
      ****** ****** ****** ****** ****** ****** ****** ****** ****** ******
  25  ****** ****** ****** ****** ****** ****** ****** ****** ****** ******
      ****** ****** ****** ****** ****** ****** ****** ****** ****** ******
      ****** ****** ****** ****** ****** ****** ****** ****** ****** ******

 HEAD WILL BE SAVED ON UNIT   51 AT END OF TIME STEP    1, STRESS PERIOD   10
1
  VOLUMETRIC BUDGET FOR ENTIRE MODEL AT END OF TIME STEP    1, STRESS PERIOD  10
  ------------------------------------------------------------------------------

     CUMULATIVE VOLUMES      L**3       RATES FOR THIS TIME STEP      L**3/T
     ------------------                 ------------------------

           IN:                                      IN:
           ---                                      ---
             STORAGE =    34730298.7606               STORAGE =           0.0000
       CONSTANT HEAD =    26007213.8643         CONSTANT HEAD =       32397.6418
               WELLS =           0.0000                 WELLS =           0.0000
            RECHARGE =    23901600.0000              RECHARGE =       55200.0000
      STREAM LEAKAGE =     6293469.1146        STREAM LEAKAGE =        7205.1489

            TOTAL IN =    90932581.7394              TOTAL IN =       94802.7906

          OUT:                                     OUT:
          ----                                     ----
             STORAGE =     2293480.7783               STORAGE =       15542.1493
       CONSTANT HEAD =           0.0000         CONSTANT HEAD =           0.0000
               WELLS =    25486211.4259                 WELLS =       27914.7989
            RECHARGE =           0.0000              RECHARGE =           0.0000
      STREAM LEAKAGE =    63152891.1004        STREAM LEAKAGE =       51345.8386

           TOTAL OUT =    90932583.3046             TOTAL OUT =       94802.7868

            IN - OUT =          -1.5651              IN - OUT =       3.7978E-03

 PERCENT DISCREPANCY =          -0.00     PERCENT DISCREPANCY =           0.00






         TIME SUMMARY AT END OF TIME STEP    1 IN STRESS PERIOD   10
                    SECONDS     MINUTES      HOURS       DAYS        YEARS
                    -----------------------------------------------------------
   TIME STEP LENGTH 7.86240E+06 1.31040E+05  2184.0      91.000     0.24914    
 STRESS PERIOD TIME 7.86240E+06 1.31040E+05  2184.0      91.000     0.24914    
         TOTAL TIME 7.88832E+07 1.31472E+06  21912.      913.00      2.4997    
1
1
                            STRESS PERIOD NO.   11, LENGTH =   91.00000    
                            -----------------------------------------------

                              NUMBER OF TIME STEPS =     1

                               MULTIPLIER FOR DELT =     1.500

                            INITIAL TIME STEP SIZE =   91.00000    

 WELL NO.  LAYER   ROW   COL   STRESS RATE         
 --------------------------------------------------
      1      1     10     17     -0.1009E+05
      2      1     11     19      -420.2    
      3      1     19     16      -9508.    
      4      1      6     15      -7895.    

      4 WELLS

                 RECHARGE =   0.00000    

 REUSING STREAM SEGMENT DATA FROM LAST STRESS PERIOD
 
 SOLVING FOR HEAD 


     7 CALLS TO PCG ROUTINE FOR TIME STEP   1 IN STRESS PERIOD   11
    26 TOTAL ITERATIONS

 OUTPUT CONTROL FOR STRESS PERIOD   11   TIME STEP    1
    SAVE BUDGET
    SAVE HEAD FOR ALL LAYERS
    PRINT HEAD FOR ALL LAYERS
 UBDSV2 SAVING "STREAMFLOW OUT  " ON UNIT  50 AT TIME STEP  1, STRESS PERIOD  11



 STREAM LISTING     PERIOD     11   STEP        1

 LAYER ROW COL. STREAM  RCH.  FLOW INTO     FLOW TO   FLOW OUT OF   OVRLND.     DIRECT     STREAM       STREAM     STREAM     STREAM   STREAMBED  STREAMBED
                SEG.NO.  NO.  STRM. RCH.    AQUIFER    STRM. RCH.    RUNOFF     PRECIP       ET          HEAD       DEPTH      WIDTH   CONDCTNC.   GRADIENT

   1   13    1     1     1    1.0000E+05 -1.2979E+03   1.0130E+05  0.000E+00  0.000E+00  0.000E+00  4.84066E+01  1.452E-01  2.000E+01  2.000E+04 -6.489E-02
   1   13    2     1     2    1.0130E+05 -2.2020E+03   1.0350E+05  0.000E+00  0.000E+00  0.000E+00  4.79308E+01  1.467E-01  2.000E+01  2.000E+04 -1.101E-01
   1   14    3     1     3    1.0350E+05 -3.2916E+02   1.0383E+05  0.000E+00  0.000E+00  0.000E+00  4.74546E+01  1.478E-01  2.000E+01  2.000E+04 -1.646E-02
   1   15    4     1     4    1.0383E+05 -3.0235E+02   1.0413E+05  0.000E+00  0.000E+00  0.000E+00  4.69776E+01  1.481E-01  2.000E+01  2.000E+04 -1.512E-02
   1   16    5     1     5    1.0413E+05 -1.2423E+03   1.0537E+05  0.000E+00  0.000E+00  0.000E+00  4.65010E+01  1.487E-01  2.000E+01  2.000E+04 -6.211E-02
   1   16    6     1     6    1.0537E+05 -7.6714E+02   1.0614E+05  0.000E+00  0.000E+00  0.000E+00  4.60246E+01  1.496E-01  2.000E+01  2.000E+04 -3.836E-02
   1   16    7     1     7    1.0614E+05 -7.3010E+02   1.0687E+05  0.000E+00  0.000E+00  0.000E+00  4.55480E+01  1.502E-01  2.000E+01  2.000E+04 -3.651E-02
   1   16    8     1     8    1.0687E+05 -6.9233E+02   1.0756E+05  0.000E+00  0.000E+00  0.000E+00  4.50713E+01  1.508E-01  2.000E+01  2.000E+04 -3.462E-02
   1   16    9     1     9    1.0756E+05 -6.3595E+02   1.0820E+05  0.000E+00  0.000E+00  0.000E+00  4.45946E+01  1.514E-01  2.000E+01  2.000E+04 -3.180E-02
   1   16   10     1    10    1.0820E+05 -5.5292E+02   1.0875E+05  0.000E+00  0.000E+00  0.000E+00  4.41178E+01  1.519E-01  2.000E+01  2.000E+04 -2.765E-02
   1   16   11     1    11    1.0875E+05 -4.3308E+02   1.0919E+05  0.000E+00  0.000E+00  0.000E+00  4.36409E+01  1.523E-01  2.000E+01  2.000E+04 -2.165E-02
   1   16   12     1    12    1.0919E+05 -3.4498E+02   1.0953E+05  0.000E+00  0.000E+00  0.000E+00  4.31640E+01  1.526E-01  2.000E+01  2.000E+04 -1.725E-02
   1   15   13     1    13    1.0953E+05 -1.5207E+02   1.0968E+05  0.000E+00  0.000E+00  0.000E+00  4.26869E+01  1.528E-01  2.000E+01  2.000E+04 -7.604E-03
   1   14   14     1    14    1.0968E+05 -2.8600E+02   1.0997E+05  0.000E+00  0.000E+00  0.000E+00  4.22098E+01  1.530E-01  2.000E+01  2.000E+04 -1.430E-02
   1   13   15     1    15    1.0997E+05 -3.2698E+02   1.1030E+05  0.000E+00  0.000E+00  0.000E+00  4.17328E+01  1.533E-01  2.000E+01  2.000E+04 -1.635E-02
   1   12   16     1    16    1.1030E+05  2.5472E+02   1.1004E+05  0.000E+00  0.000E+00  0.000E+00  4.12556E+01  1.533E-01  2.000E+01  2.000E+04  1.274E-02
   1   12   17     1    17    1.1004E+05  9.4206E+02   1.0910E+05  0.000E+00  0.000E+00  0.000E+00  4.07778E+01  1.528E-01  2.000E+01  2.000E+04  4.710E-02
   1   12   18     1    18    1.0910E+05  3.9299E+02   1.0871E+05  0.000E+00  0.000E+00  0.000E+00  4.03000E+01  1.522E-01  2.000E+01  2.000E+04  1.965E-02
   1   12   19     1    19    1.0871E+05 -2.6273E+02   1.0897E+05  0.000E+00  0.000E+00  0.000E+00  3.98226E+01  1.522E-01  2.000E+01  2.000E+04 -1.314E-02
   1   13   20     1    20    1.0897E+05 -6.2609E+02   1.0959E+05  0.000E+00  0.000E+00  0.000E+00  3.93457E+01  1.526E-01  2.000E+01  2.000E+04 -3.130E-02
   1   14   21     1    21    1.0959E+05 -5.9314E+02   1.1019E+05  0.000E+00  0.000E+00  0.000E+00  3.88690E+01  1.531E-01  2.000E+01  2.000E+04 -2.966E-02
   1   14   22     1    22    1.1019E+05  4.9808E+03   1.0521E+05  0.000E+00  0.000E+00  0.000E+00  3.83899E+01  1.512E-01  2.000E+01  2.000E+04  2.490E-01
   1    9   30     2     1    5.0000E+04 -3.6964E+02   5.0370E+04  0.000E+00  0.000E+00  0.000E+00  4.02411E+01  1.161E-01  2.000E+01  2.000E+04 -1.848E-02
   1    9   29     2     2    5.0370E+04 -6.5427E+02   5.1024E+04  0.000E+00  0.000E+00  0.000E+00  3.99918E+01  1.168E-01  2.000E+01  2.000E+04 -3.271E-02
   1    9   28     2     3    5.1024E+04 -8.6896E+02   5.1893E+04  0.000E+00  0.000E+00  0.000E+00  3.97429E+01  1.179E-01  2.000E+01  2.000E+04 -4.345E-02
   1    9   27     2     4    5.1893E+04 -1.8209E+03   5.3714E+04  0.000E+00  0.000E+00  0.000E+00  3.94947E+01  1.197E-01  2.000E+01  2.000E+04 -9.105E-02
   1   10   26     2     5    5.3714E+04 -1.0323E+03   5.4746E+04  0.000E+00  0.000E+00  0.000E+00  3.92467E+01  1.217E-01  2.000E+01  2.000E+04 -5.162E-02
   1   11   25     2     6    5.4746E+04 -8.1052E+02   5.5557E+04  0.000E+00  0.000E+00  0.000E+00  3.89979E+01  1.229E-01  2.000E+01  2.000E+04 -4.053E-02
   1   12   24     2     7    5.5557E+04 -8.4653E+02   5.6403E+04  0.000E+00  0.000E+00  0.000E+00  3.87490E+01  1.240E-01  2.000E+01  2.000E+04 -4.233E-02
   1   13   23     2     8    5.6403E+04 -1.0395E+02   5.6507E+04  0.000E+00  0.000E+00  0.000E+00  3.84996E+01  1.246E-01  2.000E+01  2.000E+04 -5.198E-03
   1   14   22     2     9    5.6507E+04  2.1486E+03   5.4358E+04  0.000E+00  0.000E+00  0.000E+00  3.82483E+01  1.233E-01  2.000E+01  2.000E+04  1.074E-01
   1   14   22     3     1    1.5957E+05 -8.4776E+03   1.6804E+05  0.000E+00  0.000E+00  0.000E+00  3.77170E+01  1.614E-01  2.000E+01  2.000E+04 -4.239E-01
   1   15   23     3     2    1.6804E+05 -3.4689E+02   1.6839E+05  0.000E+00  0.000E+00  0.000E+00  3.68307E+01  1.640E-01  2.000E+01  2.000E+04 -1.734E-02
   1   15   24     3     3    1.6839E+05 -1.8212E+02   1.6857E+05  0.000E+00  0.000E+00  0.000E+00  3.59419E+01  1.641E-01  2.000E+01  2.000E+04 -9.106E-03
   1   15   25     3     4    1.6857E+05 -1.8547E+02   1.6876E+05  0.000E+00  0.000E+00  0.000E+00  3.50531E+01  1.643E-01  2.000E+01  2.000E+04 -9.273E-03
   1   15   26     3     5    1.6876E+05 -2.4256E+02   1.6900E+05  0.000E+00  0.000E+00  0.000E+00  3.41644E+01  1.644E-01  2.000E+01  2.000E+04 -1.213E-02
   1   16   27     3     6    1.6900E+05 -2.5377E+02   1.6925E+05  0.000E+00  0.000E+00  0.000E+00  3.32756E+01  1.645E-01  2.000E+01  2.000E+04 -1.269E-02
   1   17   28     3     7    1.6925E+05 -1.2333E+03   1.7049E+05  0.000E+00  0.000E+00  0.000E+00  3.23872E+01  1.650E-01  2.000E+01  2.000E+04 -6.167E-02
   1   18   29     3     8    1.7049E+05 -2.4674E+03   1.7295E+05  0.000E+00  0.000E+00  0.000E+00  3.14994E+01  1.660E-01  2.000E+01  2.000E+04 -1.234E-01
   1   18   30     3     9    1.7295E+05 -2.8723E+03   1.7583E+05  0.000E+00  0.000E+00  0.000E+00  3.06120E+01  1.676E-01  2.000E+01  2.000E+04 -1.436E-01



1
              HEAD IN LAYER   1 AT END OF TIME STEP   1 IN STRESS PERIOD   11
  ---------------------------------------------------------------------------

          1      2      3      4      5      6      7      8      9     10
         11     12     13     14     15     16     17     18     19     20
         21     22     23     24     25     26     27     28     29     30
 .........................................................................
   1  ****** ****** ****** ****** ****** ****** ****** ****** ****** ******
      ****** ****** ****** ****** ****** ****** ****** ****** ****** ******
      ****** ****** ****** ****** ****** ****** ****** ****** ****** ******
   2  ****** ****** ****** ****** ****** ****** ****** ****** ****** ******
      ****** ****** ****** ****** ****** ****** ****** ****** ****** ******
      ****** ****** ****** ****** ****** ****** ****** ****** ****** ******
   3  ****** ****** ****** ****** ****** ****** ****** ****** ****** ******
      ****** ****** ****** ****** ****** ****** ****** ****** ****** ******
      ****** ****** ****** ****** ****** ****** ****** ****** ****** ******
   4  ****** ****** ****** ****** ****** ****** ****** ****** ****** ******
      ****** ****** ****** ****** ****** ****** ****** ****** ****** ******
      ****** ****** ****** ****** ****** ****** ****** ****** ****** ******
   5  ****** ****** ****** ****** ****** ****** ****** ****** ****** ******
      ****** ****** ****** ****** ****** ****** ****** ****** ****** ******
      ****** ****** ****** ****** ****** ****** ****** ****** ****** ******
   6  ****** ****** ****** ****** ****** ****** ****** ****** ****** ******
      ****** ****** ****** ****** ****** ****** ****** ****** ****** ******
      ****** ****** ****** ****** ****** ****** ****** ****** ****** ******
   7  ****** ****** ****** ****** ****** ****** ****** ****** ****** ******
      ****** ****** ****** ****** ****** ****** ****** ****** ****** ******
      ****** ****** ****** ****** ****** ****** ****** ****** ****** ******
   8  ****** ****** ****** ****** ****** ****** ****** ****** ****** ******
      ****** ****** ****** ****** ****** ****** ****** ****** ****** ******
      ****** ****** ****** ****** ****** ****** ****** ****** ****** ******
   9  ****** ****** ****** ****** ****** ****** ****** ****** ****** ******
      ****** ****** ****** ****** ****** ****** ****** ****** ****** ******
      ****** ****** ****** ****** ****** ****** ****** ****** ****** ******
  10  ****** ****** ****** ****** ****** ****** ****** ****** ****** ******
      ****** ****** ****** ****** ****** ****** ****** ****** ****** ******
      ****** ****** ****** ****** ****** ****** ****** ****** ****** ******
  11  ****** ****** ****** ****** ****** ****** ****** ****** ****** ******
      ****** ****** ****** ****** ****** ****** ****** ****** ****** ******
      ****** ****** ****** ****** ****** ****** ****** ****** ****** ******
  12  ****** ****** ****** ****** ****** ****** ****** ****** ****** ******
      ****** ****** ****** ****** ****** ****** ****** ****** ****** ******
      ****** ****** ****** ****** ****** ****** ****** ****** ****** ******
  13  ****** ****** ****** ****** ****** ****** ****** ****** ****** ******
      ****** ****** ****** ****** ****** ****** ****** ****** ****** ******
      ****** ****** ****** ****** ****** ****** ****** ****** ****** ******
  14  ****** ****** ****** ****** ****** ****** ****** ****** ****** ******
      ****** ****** ****** ****** ****** ****** ****** ****** ****** ******
      ****** ****** ****** ****** ****** ****** ****** ****** ****** ******
  15  ****** ****** ****** ****** ****** ****** ****** ****** ****** ******
      ****** ****** ****** ****** ****** ****** ****** ****** ****** ******
      ****** ****** ****** ****** ****** ****** ****** ****** ****** ******
  16  ****** ****** ****** ****** ****** ****** ****** ****** ****** ******
      ****** ****** ****** ****** ****** ****** ****** ****** ****** ******
      ****** ****** ****** ****** ****** ****** ****** ****** ****** ******
  17  ****** ****** ****** ****** ****** ****** ****** ****** ****** ******
      ****** ****** ****** ****** ****** ****** ****** ****** ****** ******
      ****** ****** ****** ****** ****** ****** ****** ****** ****** ******
  18  ****** ****** ****** ****** ****** ****** ****** ****** ****** ******
      ****** ****** ****** ****** ****** ****** ****** ****** ****** ******
      ****** ****** ****** ****** ****** ****** ****** ****** ****** ******
  19  ****** ****** ****** ****** ****** ****** ****** ****** ****** ******
      ****** ****** ****** ****** ****** ****** ****** ****** ****** ******
      ****** ****** ****** ****** ****** ****** ****** ****** ****** ******
  20  ****** ****** ****** ****** ****** ****** ****** ****** ****** ******
      ****** ****** ****** ****** ****** ****** ****** ****** ****** ******
      ****** ****** ****** ****** ****** ****** ****** ****** ****** ******
  21  ****** ****** ****** ****** ****** ****** ****** ****** ****** ******
      ****** ****** ****** ****** ****** ****** ****** ****** ****** ******
      ****** ****** ****** ****** ****** ****** ****** ****** ****** ******
  22  ****** ****** ****** ****** ****** ****** ****** ****** ****** ******
      ****** ****** ****** ****** ****** ****** ****** ****** ****** ******
      ****** ****** ****** ****** ****** ****** ****** ****** ****** ******
  23  ****** ****** ****** ****** ****** ****** ****** ****** ****** ******
      ****** ****** ****** ****** ****** ****** ****** ****** ****** ******
      ****** ****** ****** ****** ****** ****** ****** ****** ****** ******
  24  ****** ****** ****** ****** ****** ****** ****** ****** ****** ******
      ****** ****** ****** ****** ****** ****** ****** ****** ****** ******
      ****** ****** ****** ****** ****** ****** ****** ****** ****** ******
  25  ****** ****** ****** ****** ****** ****** ****** ****** ****** ******
      ****** ****** ****** ****** ****** ****** ****** ****** ****** ******
      ****** ****** ****** ****** ****** ****** ****** ****** ****** ******

 HEAD WILL BE SAVED ON UNIT   51 AT END OF TIME STEP    1, STRESS PERIOD   11
1
  VOLUMETRIC BUDGET FOR ENTIRE MODEL AT END OF TIME STEP    1, STRESS PERIOD  11
  ------------------------------------------------------------------------------

     CUMULATIVE VOLUMES      L**3       RATES FOR THIS TIME STEP      L**3/T
     ------------------                 ------------------------

           IN:                                      IN:
           ---                                      ---
             STORAGE =    36372484.6048               STORAGE =       18045.9983
       CONSTANT HEAD =    29255499.5597         CONSTANT HEAD =       35695.4472
               WELLS =           0.0000                 WELLS =           0.0000
            RECHARGE =    23901600.0000              RECHARGE =           0.0000
      STREAM LEAKAGE =     7086915.3909        STREAM LEAKAGE =        8719.1898

            TOTAL IN =    96616499.5554              TOTAL IN =       62460.6353

          OUT:                                     OUT:
          ----                                     ----
             STORAGE =     2293480.7783               STORAGE =           0.0000
       CONSTANT HEAD =           0.0000         CONSTANT HEAD =           0.0000
               WELLS =    28026458.1288                 WELLS =       27914.7989
            RECHARGE =           0.0000              RECHARGE =           0.0000
      STREAM LEAKAGE =    66296562.6631        STREAM LEAKAGE =       34545.8413

           TOTAL OUT =    96616501.5701             TOTAL OUT =       62460.6403

            IN - OUT =          -2.0147              IN - OUT =      -4.9405E-03

 PERCENT DISCREPANCY =          -0.00     PERCENT DISCREPANCY =          -0.00






         TIME SUMMARY AT END OF TIME STEP    1 IN STRESS PERIOD   11
                    SECONDS     MINUTES      HOURS       DAYS        YEARS
                    -----------------------------------------------------------
   TIME STEP LENGTH 7.86240E+06 1.31040E+05  2184.0      91.000     0.24914    
 STRESS PERIOD TIME 7.86240E+06 1.31040E+05  2184.0      91.000     0.24914    
         TOTAL TIME 8.67456E+07 1.44576E+06  24096.      1004.0      2.7488    
1
1
                            STRESS PERIOD NO.   12, LENGTH =   91.00000    
                            -----------------------------------------------

                              NUMBER OF TIME STEPS =     1

                               MULTIPLIER FOR DELT =     1.500

                            INITIAL TIME STEP SIZE =   91.00000    

 WELL NO.  LAYER   ROW   COL   STRESS RATE         
 --------------------------------------------------
      1      1     10     17     -0.1009E+05
      2      1     11     19      -420.2    
      3      1     19     16      -9508.    
      4      1      6     15      -7895.    

      4 WELLS

                 RECHARGE =  1.000000E-03

 REUSING STREAM SEGMENT DATA FROM LAST STRESS PERIOD
 
 SOLVING FOR HEAD 


     7 CALLS TO PCG ROUTINE FOR TIME STEP   1 IN STRESS PERIOD   12
    24 TOTAL ITERATIONS

 OUTPUT CONTROL FOR STRESS PERIOD   12   TIME STEP    1
    SAVE BUDGET
    SAVE HEAD FOR ALL LAYERS
    PRINT HEAD FOR ALL LAYERS
 UBDSV2 SAVING "STREAMFLOW OUT  " ON UNIT  50 AT TIME STEP  1, STRESS PERIOD  12



 STREAM LISTING     PERIOD     12   STEP        1

 LAYER ROW COL. STREAM  RCH.  FLOW INTO     FLOW TO   FLOW OUT OF   OVRLND.     DIRECT     STREAM       STREAM     STREAM     STREAM   STREAMBED  STREAMBED
                SEG.NO.  NO.  STRM. RCH.    AQUIFER    STRM. RCH.    RUNOFF     PRECIP       ET          HEAD       DEPTH      WIDTH   CONDCTNC.   GRADIENT

   1   13    1     1     1    1.0000E+05 -1.4395E+03   1.0144E+05  0.000E+00  0.000E+00  0.000E+00  4.84066E+01  1.453E-01  2.000E+01  2.000E+04 -7.197E-02
   1   13    2     1     2    1.0144E+05 -2.3540E+03   1.0379E+05  0.000E+00  0.000E+00  0.000E+00  4.79310E+01  1.469E-01  2.000E+01  2.000E+04 -1.177E-01
   1   14    3     1     3    1.0379E+05 -4.0723E+02   1.0420E+05  0.000E+00  0.000E+00  0.000E+00  4.74549E+01  1.481E-01  2.000E+01  2.000E+04 -2.036E-02
   1   15    4     1     4    1.0420E+05 -3.8431E+02   1.0459E+05  0.000E+00  0.000E+00  0.000E+00  4.69780E+01  1.484E-01  2.000E+01  2.000E+04 -1.922E-02
   1   16    5     1     5    1.0459E+05 -1.4517E+03   1.0604E+05  0.000E+00  0.000E+00  0.000E+00  4.65015E+01  1.492E-01  2.000E+01  2.000E+04 -7.259E-02
   1   16    6     1     6    1.0604E+05 -8.9721E+02   1.0693E+05  0.000E+00  0.000E+00  0.000E+00  4.60252E+01  1.502E-01  2.000E+01  2.000E+04 -4.486E-02
   1   16    7     1     7    1.0693E+05 -8.5507E+02   1.0779E+05  0.000E+00  0.000E+00  0.000E+00  4.55487E+01  1.510E-01  2.000E+01  2.000E+04 -4.275E-02
   1   16    8     1     8    1.0779E+05 -8.1625E+02   1.0861E+05  0.000E+00  0.000E+00  0.000E+00  4.50721E+01  1.517E-01  2.000E+01  2.000E+04 -4.081E-02
   1   16    9     1     9    1.0861E+05 -7.6035E+02   1.0937E+05  0.000E+00  0.000E+00  0.000E+00  4.45955E+01  1.523E-01  2.000E+01  2.000E+04 -3.802E-02
   1   16   10     1    10    1.0937E+05 -6.7871E+02   1.1004E+05  0.000E+00  0.000E+00  0.000E+00  4.41188E+01  1.529E-01  2.000E+01  2.000E+04 -3.394E-02
   1   16   11     1    11    1.1004E+05 -5.6119E+02   1.1061E+05  0.000E+00  0.000E+00  0.000E+00  4.36421E+01  1.534E-01  2.000E+01  2.000E+04 -2.806E-02
   1   16   12     1    12    1.1061E+05 -5.4622E+02   1.1115E+05  0.000E+00  0.000E+00  0.000E+00  4.31653E+01  1.539E-01  2.000E+01  2.000E+04 -2.731E-02
   1   15   13     1    13    1.1115E+05 -3.6804E+02   1.1152E+05  0.000E+00  0.000E+00  0.000E+00  4.26884E+01  1.543E-01  2.000E+01  2.000E+04 -1.840E-02
   1   14   14     1    14    1.1152E+05 -5.0219E+02   1.1202E+05  0.000E+00  0.000E+00  0.000E+00  4.22115E+01  1.546E-01  2.000E+01  2.000E+04 -2.511E-02
   1   13   15     1    15    1.1202E+05 -5.3559E+02   1.1256E+05  0.000E+00  0.000E+00  0.000E+00  4.17346E+01  1.551E-01  2.000E+01  2.000E+04 -2.678E-02
   1   12   16     1    16    1.1256E+05  7.3065E+01   1.1248E+05  0.000E+00  0.000E+00  0.000E+00  4.12575E+01  1.553E-01  2.000E+01  2.000E+04  3.653E-03
   1   12   17     1    17    1.1248E+05  7.8950E+02   1.1170E+05  0.000E+00  0.000E+00  0.000E+00  4.07799E+01  1.549E-01  2.000E+01  2.000E+04  3.947E-02
   1   12   18     1    18    1.1170E+05  2.3810E+02   1.1146E+05  0.000E+00  0.000E+00  0.000E+00  4.03022E+01  1.545E-01  2.000E+01  2.000E+04  1.190E-02
   1   12   19     1    19    1.1146E+05 -4.5430E+02   1.1191E+05  0.000E+00  0.000E+00  0.000E+00  3.98250E+01  1.546E-01  2.000E+01  2.000E+04 -2.271E-02
   1   13   20     1    20    1.1191E+05 -8.3606E+02   1.1275E+05  0.000E+00  0.000E+00  0.000E+00  3.93483E+01  1.551E-01  2.000E+01  2.000E+04 -4.180E-02
   1   14   21     1    21    1.1275E+05 -7.8699E+02   1.1353E+05  0.000E+00  0.000E+00  0.000E+00  3.88717E+01  1.558E-01  2.000E+01  2.000E+04 -3.935E-02
   1   14   22     1    22    1.1353E+05  4.9287E+03   1.0861E+05  0.000E+00  0.000E+00  0.000E+00  3.83927E+01  1.541E-01  2.000E+01  2.000E+04  2.464E-01
   1    9   30     2     1    5.0000E+04 -5.4588E+02   5.0546E+04  0.000E+00  0.000E+00  0.000E+00  4.02412E+01  1.162E-01  2.000E+01  2.000E+04 -2.729E-02
   1    9   29     2     2    5.0546E+04 -8.2845E+02   5.1374E+04  0.000E+00  0.000E+00  0.000E+00  3.99922E+01  1.172E-01  2.000E+01  2.000E+04 -4.142E-02
   1    9   28     2     3    5.1374E+04 -1.0396E+03   5.2414E+04  0.000E+00  0.000E+00  0.000E+00  3.97435E+01  1.185E-01  2.000E+01  2.000E+04 -5.198E-02
   1    9   27     2     4    5.2414E+04 -2.0296E+03   5.4443E+04  0.000E+00  0.000E+00  0.000E+00  3.94956E+01  1.206E-01  2.000E+01  2.000E+04 -1.015E-01
   1   10   26     2     5    5.4443E+04 -1.2617E+03   5.5705E+04  0.000E+00  0.000E+00  0.000E+00  3.92478E+01  1.228E-01  2.000E+01  2.000E+04 -6.309E-02
   1   11   25     2     6    5.5705E+04 -1.0360E+03   5.6741E+04  0.000E+00  0.000E+00  0.000E+00  3.89993E+01  1.243E-01  2.000E+01  2.000E+04 -5.180E-02
   1   12   24     2     7    5.6741E+04 -1.0523E+03   5.7794E+04  0.000E+00  0.000E+00  0.000E+00  3.87507E+01  1.257E-01  2.000E+01  2.000E+04 -5.262E-02
   1   13   23     2     8    5.7794E+04 -1.8153E+02   5.7975E+04  0.000E+00  0.000E+00  0.000E+00  3.85015E+01  1.265E-01  2.000E+01  2.000E+04 -9.077E-03
   1   14   22     2     9    5.7975E+04  2.0800E+03   5.5895E+04  0.000E+00  0.000E+00  0.000E+00  3.82503E+01  1.253E-01  2.000E+01  2.000E+04  1.040E-01
   1   14   22     3     1    1.6450E+05 -8.5278E+03   1.7303E+05  0.000E+00  0.000E+00  0.000E+00  3.77199E+01  1.643E-01  2.000E+01  2.000E+04 -4.264E-01
   1   15   23     3     2    1.7303E+05 -4.1891E+02   1.7345E+05  0.000E+00  0.000E+00  0.000E+00  3.68336E+01  1.669E-01  2.000E+01  2.000E+04 -2.095E-02
   1   15   24     3     3    1.7345E+05 -2.4720E+02   1.7369E+05  0.000E+00  0.000E+00  0.000E+00  3.59449E+01  1.671E-01  2.000E+01  2.000E+04 -1.236E-02
   1   15   25     3     4    1.7369E+05 -2.5182E+02   1.7395E+05  0.000E+00  0.000E+00  0.000E+00  3.50561E+01  1.672E-01  2.000E+01  2.000E+04 -1.259E-02
   1   15   26     3     5    1.7395E+05 -3.2004E+02   1.7427E+05  0.000E+00  0.000E+00  0.000E+00  3.41674E+01  1.674E-01  2.000E+01  2.000E+04 -1.600E-02
   1   16   27     3     6    1.7427E+05 -3.4055E+02   1.7461E+05  0.000E+00  0.000E+00  0.000E+00  3.32787E+01  1.676E-01  2.000E+01  2.000E+04 -1.703E-02
   1   17   28     3     7    1.7461E+05 -1.4541E+03   1.7606E+05  0.000E+00  0.000E+00  0.000E+00  3.23903E+01  1.681E-01  2.000E+01  2.000E+04 -7.270E-02
   1   18   29     3     8    1.7606E+05 -2.6680E+03   1.7873E+05  0.000E+00  0.000E+00  0.000E+00  3.15026E+01  1.693E-01  2.000E+01  2.000E+04 -1.334E-01
   1   18   30     3     9    1.7873E+05 -3.0405E+03   1.8177E+05  0.000E+00  0.000E+00  0.000E+00  3.06154E+01  1.709E-01  2.000E+01  2.000E+04 -1.520E-01



1
              HEAD IN LAYER   1 AT END OF TIME STEP   1 IN STRESS PERIOD   12
  ---------------------------------------------------------------------------

          1      2      3      4      5      6      7      8      9     10
         11     12     13     14     15     16     17     18     19     20
         21     22     23     24     25     26     27     28     29     30
 .........................................................................
   1  ****** ****** ****** ****** ****** ****** ****** ****** ****** ******
      ****** ****** ****** ****** ****** ****** ****** ****** ****** ******
      ****** ****** ****** ****** ****** ****** ****** ****** ****** ******
   2  ****** ****** ****** ****** ****** ****** ****** ****** ****** ******
      ****** ****** ****** ****** ****** ****** ****** ****** ****** ******
      ****** ****** ****** ****** ****** ****** ****** ****** ****** ******
   3  ****** ****** ****** ****** ****** ****** ****** ****** ****** ******
      ****** ****** ****** ****** ****** ****** ****** ****** ****** ******
      ****** ****** ****** ****** ****** ****** ****** ****** ****** ******
   4  ****** ****** ****** ****** ****** ****** ****** ****** ****** ******
      ****** ****** ****** ****** ****** ****** ****** ****** ****** ******
      ****** ****** ****** ****** ****** ****** ****** ****** ****** ******
   5  ****** ****** ****** ****** ****** ****** ****** ****** ****** ******
      ****** ****** ****** ****** ****** ****** ****** ****** ****** ******
      ****** ****** ****** ****** ****** ****** ****** ****** ****** ******
   6  ****** ****** ****** ****** ****** ****** ****** ****** ****** ******
      ****** ****** ****** ****** ****** ****** ****** ****** ****** ******
      ****** ****** ****** ****** ****** ****** ****** ****** ****** ******
   7  ****** ****** ****** ****** ****** ****** ****** ****** ****** ******
      ****** ****** ****** ****** ****** ****** ****** ****** ****** ******
      ****** ****** ****** ****** ****** ****** ****** ****** ****** ******
   8  ****** ****** ****** ****** ****** ****** ****** ****** ****** ******
      ****** ****** ****** ****** ****** ****** ****** ****** ****** ******
      ****** ****** ****** ****** ****** ****** ****** ****** ****** ******
   9  ****** ****** ****** ****** ****** ****** ****** ****** ****** ******
      ****** ****** ****** ****** ****** ****** ****** ****** ****** ******
      ****** ****** ****** ****** ****** ****** ****** ****** ****** ******
  10  ****** ****** ****** ****** ****** ****** ****** ****** ****** ******
      ****** ****** ****** ****** ****** ****** ****** ****** ****** ******
      ****** ****** ****** ****** ****** ****** ****** ****** ****** ******
  11  ****** ****** ****** ****** ****** ****** ****** ****** ****** ******
      ****** ****** ****** ****** ****** ****** ****** ****** ****** ******
      ****** ****** ****** ****** ****** ****** ****** ****** ****** ******
  12  ****** ****** ****** ****** ****** ****** ****** ****** ****** ******
      ****** ****** ****** ****** ****** ****** ****** ****** ****** ******
      ****** ****** ****** ****** ****** ****** ****** ****** ****** ******
  13  ****** ****** ****** ****** ****** ****** ****** ****** ****** ******
      ****** ****** ****** ****** ****** ****** ****** ****** ****** ******
      ****** ****** ****** ****** ****** ****** ****** ****** ****** ******
  14  ****** ****** ****** ****** ****** ****** ****** ****** ****** ******
      ****** ****** ****** ****** ****** ****** ****** ****** ****** ******
      ****** ****** ****** ****** ****** ****** ****** ****** ****** ******
  15  ****** ****** ****** ****** ****** ****** ****** ****** ****** ******
      ****** ****** ****** ****** ****** ****** ****** ****** ****** ******
      ****** ****** ****** ****** ****** ****** ****** ****** ****** ******
  16  ****** ****** ****** ****** ****** ****** ****** ****** ****** ******
      ****** ****** ****** ****** ****** ****** ****** ****** ****** ******
      ****** ****** ****** ****** ****** ****** ****** ****** ****** ******
  17  ****** ****** ****** ****** ****** ****** ****** ****** ****** ******
      ****** ****** ****** ****** ****** ****** ****** ****** ****** ******
      ****** ****** ****** ****** ****** ****** ****** ****** ****** ******
  18  ****** ****** ****** ****** ****** ****** ****** ****** ****** ******
      ****** ****** ****** ****** ****** ****** ****** ****** ****** ******
      ****** ****** ****** ****** ****** ****** ****** ****** ****** ******
  19  ****** ****** ****** ****** ****** ****** ****** ****** ****** ******
      ****** ****** ****** ****** ****** ****** ****** ****** ****** ******
      ****** ****** ****** ****** ****** ****** ****** ****** ****** ******
  20  ****** ****** ****** ****** ****** ****** ****** ****** ****** ******
      ****** ****** ****** ****** ****** ****** ****** ****** ****** ******
      ****** ****** ****** ****** ****** ****** ****** ****** ****** ******
  21  ****** ****** ****** ****** ****** ****** ****** ****** ****** ******
      ****** ****** ****** ****** ****** ****** ****** ****** ****** ******
      ****** ****** ****** ****** ****** ****** ****** ****** ****** ******
  22  ****** ****** ****** ****** ****** ****** ****** ****** ****** ******
      ****** ****** ****** ****** ****** ****** ****** ****** ****** ******
      ****** ****** ****** ****** ****** ****** ****** ****** ****** ******
  23  ****** ****** ****** ****** ****** ****** ****** ****** ****** ******
      ****** ****** ****** ****** ****** ****** ****** ****** ****** ******
      ****** ****** ****** ****** ****** ****** ****** ****** ****** ******
  24  ****** ****** ****** ****** ****** ****** ****** ****** ****** ******
      ****** ****** ****** ****** ****** ****** ****** ****** ****** ******
      ****** ****** ****** ****** ****** ****** ****** ****** ****** ******
  25  ****** ****** ****** ****** ****** ****** ****** ****** ****** ******
      ****** ****** ****** ****** ****** ****** ****** ****** ****** ******
      ****** ****** ****** ****** ****** ****** ****** ****** ****** ******

 HEAD WILL BE SAVED ON UNIT   51 AT END OF TIME STEP    1, STRESS PERIOD   12
1
  VOLUMETRIC BUDGET FOR ENTIRE MODEL AT END OF TIME STEP    1, STRESS PERIOD  12
  ------------------------------------------------------------------------------

     CUMULATIVE VOLUMES      L**3       RATES FOR THIS TIME STEP      L**3/T
     ------------------                 ------------------------

           IN:                                      IN:
           ---                                      ---
             STORAGE =    36374765.7170               STORAGE =          25.0672
       CONSTANT HEAD =    32441216.7007         CONSTANT HEAD =       35007.8807
               WELLS =           0.0000                 WELLS =           0.0000
            RECHARGE =    26413200.0000              RECHARGE =       27600.0000
      STREAM LEAKAGE =     7824867.0702        STREAM LEAKAGE =        8109.3591

            TOTAL IN =   103054049.4879              TOTAL IN =       70742.3070

          OUT:                                     OUT:
          ----                                     ----
             STORAGE =     2561800.7412               STORAGE =        2948.5710
       CONSTANT HEAD =           0.0000         CONSTANT HEAD =           0.0000
               WELLS =    30566704.8317                 WELLS =       27914.7989
            RECHARGE =           0.0000              RECHARGE =           0.0000
      STREAM LEAKAGE =    69925545.8424        STREAM LEAKAGE =       39878.9360

           TOTAL OUT =   103054051.4154             TOTAL OUT =       70742.3060

            IN - OUT =          -1.9275              IN - OUT =       9.5870E-04

 PERCENT DISCREPANCY =          -0.00     PERCENT DISCREPANCY =           0.00






         TIME SUMMARY AT END OF TIME STEP    1 IN STRESS PERIOD   12
                    SECONDS     MINUTES      HOURS       DAYS        YEARS
                    -----------------------------------------------------------
   TIME STEP LENGTH 7.86240E+06 1.31040E+05  2184.0      91.000     0.24914    
 STRESS PERIOD TIME 7.86240E+06 1.31040E+05  2184.0      91.000     0.24914    
         TOTAL TIME 9.46080E+07 1.57680E+06  26280.      1095.0      2.9979    
1

 Run end date and time (yyyy/mm/dd hh:mm:ss): 2019/03/27 18:04:34
 Elapsed run time:  0.067 Seconds

