                                  MODFLOW-2005     
      U.S. GEOLOGICAL SURVEY MODULAR FINITE-DIFFERENCE GROUND-WATER FLOW MODEL
                            VERSION 1.11.00 8/8/2013

 LIST FILE: supply2.lst
                         UNIT   10

 OPENING ..\data\supply.dis
 FILE TYPE:DIS   UNIT   11   STATUS:OLD    
 FORMAT:FORMATTED              ACCESS:SEQUENTIAL          

 OPENING ..\data\supply.ba6
 FILE TYPE:BAS6   UNIT   12   STATUS:OLD    
 FORMAT:FORMATTED              ACCESS:SEQUENTIAL          

 OPENING ..\data\supply.bc6
 FILE TYPE:BCF6   UNIT   13   STATUS:OLD    
 FORMAT:FORMATTED              ACCESS:SEQUENTIAL          

 OPENING ..\data\supply.rch
 FILE TYPE:RCH   UNIT   15   STATUS:OLD    
 FORMAT:FORMATTED              ACCESS:SEQUENTIAL          

 OPENING ..\data\supply2.sfr
 FILE TYPE:SFR   UNIT   16   STATUS:OLD    
 FORMAT:FORMATTED              ACCESS:SEQUENTIAL          

 OPENING ..\data\supply.oc
 FILE TYPE:OC   UNIT   17   STATUS:OLD    
 FORMAT:FORMATTED              ACCESS:SEQUENTIAL          

 OPENING ..\data\supply.pcg
 FILE TYPE:PCG   UNIT   18   STATUS:OLD    
 FORMAT:FORMATTED              ACCESS:SEQUENTIAL          

 OPENING supply2.wel
 FILE TYPE:WEL   UNIT   19   STATUS:OLD    
 FORMAT:FORMATTED              ACCESS:SEQUENTIAL          

 OPENING supply2sf.bin
 FILE TYPE:DATA(BINARY)   UNIT   50   STATUS:UNKNOWN
 FORMAT:BINARY                 ACCESS:SEQUENTIAL          

 OPENING supply2hd.bin
 FILE TYPE:DATA(BINARY)   UNIT   51   STATUS:UNKNOWN
 FORMAT:BINARY                 ACCESS:SEQUENTIAL          

 BAS -- BASIC PACKAGE, VERSION 7, 5/2/2005 INPUT READ FROM UNIT   12
 
 MODFLOW was compiled using uniform precision
 Precision of REAL and DOUBLE PRECISION variables:          15

 DISCRETIZATION INPUT DATA READ FROM UNIT   11
    1 LAYERS        25 ROWS        30 COLUMNS
   12 STRESS PERIOD(S) IN SIMULATION
 MODEL TIME UNIT IS DAYS
 MODEL LENGTH UNIT IS UNDEFINED
  Confining bed flag for each layer:
   0

                     DELR =   200.000    

                     DELC =   200.000    

 TOP ELEVATION OF LAYER 1 =  100.0000    

   MODEL LAYER BOTTOM EL. =   0.00000     FOR LAYER   1


 STRESS PERIOD     LENGTH       TIME STEPS     MULTIPLIER FOR DELT    SS FLAG
 ----------------------------------------------------------------------------
        1         92.00000          1                    1.500         TR
        2         91.00000          1                    1.500         TR
        3         91.00000          1                    1.500         TR
        4         91.00000          1                    1.500         TR
        5         92.00000          1                    1.500         TR
        6         91.00000          1                    1.500         TR
        7         91.00000          1                    1.500         TR
        8         91.00000          1                    1.500         TR
        9         92.00000          1                    1.500         TR
       10         91.00000          1                    1.500         TR
       11         91.00000          1                    1.500         TR
       12         91.00000          1                    1.500         TR

 TRANSIENT SIMULATION



 
 #MODOFC transient water supply sample problem                                   
 #                                                                               
 THE FREE FORMAT OPTION HAS BEEN SELECTED



                     BOUNDARY ARRAY FOR LAYER   1
 READING ON UNIT   12 WITH FORMAT: (20I4)              

 AQUIFER HEAD WILL BE SET TO   0.0000     AT ALL NO-FLOW NODES (IBOUND=0).



                       INITIAL HEAD FOR LAYER   1
 READING ON UNIT   12 WITH FORMAT: (10F13.0)           

 OUTPUT CONTROL IS SPECIFIED ONLY AT TIME STEPS FOR WHICH OUTPUT IS DESIRED
 COMPACT CELL-BY-CELL BUDGET FILES WILL BE WRITTEN
 HEAD PRINT FORMAT CODE IS  18    DRAWDOWN PRINT FORMAT CODE IS   0
 HEADS WILL BE SAVED ON UNIT   51    DRAWDOWNS WILL BE SAVED ON UNIT    0

 BCF -- BLOCK-CENTERED FLOW PACKAGE, VERSION 7, 5/2/2005
         INPUT READ FROM UNIT 13
 TRANSIENT SIMULATION
 HEAD AT CELLS THAT CONVERT TO DRY=   0.0000    
 WETTING CAPABILITY IS NOT ACTIVE
      LAYER  LAYER-TYPE CODE     INTERBLOCK T
      --------------------------------------------
         1            0          0 -- HARMONIC    

 COLUMN TO ROW ANISOTROPY =  1.000000    

     PRIMARY STORAGE COEF =  5.000000E-02 FOR LAYER   1

     TRANSMIS. ALONG ROWS =   5000.00     FOR LAYER   1

 WEL -- WELL PACKAGE, VERSION 7, 5/2/2005 INPUT READ FROM UNIT   19
 # Well package input file written by MMProc
 No named parameters
 MAXIMUM OF      7 ACTIVE WELLS AT ONE TIME


     0 Well parameters

 RCH -- RECHARGE PACKAGE, VERSION 7, 5/2/2005 INPUT READ FROM UNIT   15
 No named parameters
 OPTION 1 -- RECHARGE TO TOP LAYER


     0 Recharge parameters

 SFR7 -- STREAMFLOW ROUTING PACKAGE, VERSION 1.0.7, 2013-01-15
         INPUT READ FROM UNIT  16
 #  Supply2 test problem for GWM-VI
 #  The eighth entry in the first data line is ISTCB2 -
 #    Setting this to a negative number indicates that
 #    streamflows out of the reach will be saved to a
 #    binary file.  The absolute value of ISTCB2 is the
 #    unit to which unformatted flows will be written.
 #
 No named parameters
 Segment information will not be 
 read by reach
 No named parameters
 No specifed inflow files


 NUMBER OF STREAM REACHES IS   40

 NUMBER OF STREAM SEGMENTS IS    3

 NUMBER OF STREAM PARAMETERS IS    0

 NUMBER OF STREAM SEGMENTS DEFINED USING PARAMETERS IS              0

 MAXIMUM ERROR FOR STREAM LEAKAGE RATES IS  1.00E-04

 CONSTANT FOR MANNINGS EQUATION IS  1.2839E+05





   STREAM NETWORK DESCRIPTION: 

   LAYER    ROW    COL   SEGMENT   REACH     LENGTH
                          NUMBER   NUMBER    IN CELL        
   --------------------------------------------------
      1     13      1       1        1    2.0000E+02
      1     13      2       1        2    2.0000E+02
      1     14      3       1        3    2.0000E+02
      1     15      4       1        4    2.0000E+02
      1     16      5       1        5    2.0000E+02
      1     16      6       1        6    2.0000E+02
      1     16      7       1        7    2.0000E+02
      1     16      8       1        8    2.0000E+02
      1     16      9       1        9    2.0000E+02
      1     16     10       1       10    2.0000E+02
      1     16     11       1       11    2.0000E+02
      1     16     12       1       12    2.0000E+02
      1     15     13       1       13    2.0000E+02
      1     14     14       1       14    2.0000E+02
      1     13     15       1       15    2.0000E+02
      1     12     16       1       16    2.0000E+02
      1     12     17       1       17    2.0000E+02
      1     12     18       1       18    2.0000E+02
      1     12     19       1       19    2.0000E+02
      1     13     20       1       20    2.0000E+02
      1     14     21       1       21    2.0000E+02
      1     14     22       1       22    2.0000E+02
      1      9     30       2        1    2.0000E+02
      1      9     29       2        2    2.0000E+02
      1      9     28       2        3    2.0000E+02
      1      9     27       2        4    2.0000E+02
      1     10     26       2        5    2.0000E+02
      1     11     25       2        6    2.0000E+02
      1     12     24       2        7    2.0000E+02
      1     13     23       2        8    2.0000E+02
      1     14     22       2        9    2.0000E+02
      1     14     22       3        1    2.0000E+02
      1     15     23       3        2    2.0000E+02
      1     15     24       3        3    2.0000E+02
      1     15     25       3        4    2.0000E+02
      1     15     26       3        5    2.0000E+02
      1     16     27       3        6    2.0000E+02
      1     17     28       3        7    2.0000E+02
      1     18     29       3        8    2.0000E+02
      1     18     30       3        9    2.0000E+02




 PCG -- CONJUGATE-GRADIENT SOLUTION PACKAGE, VERSION 7, 5/2/2005
 MAXIMUM OF    500 CALLS OF SOLUTION ROUTINE
 MAXIMUM OF      5 INTERNAL ITERATIONS PER CALL TO SOLUTION ROUTINE
 MATRIX PRECONDITIONING TYPE :    1



                                    SOLUTION BY THE CONJUGATE-GRADIENT METHOD
                                   -------------------------------------------
                    MAXIMUM NUMBER OF CALLS TO PCG ROUTINE =      500
                        MAXIMUM ITERATIONS PER CALL TO PCG =        5
                               MATRIX PRECONDITIONING TYPE =        1
        RELAXATION FACTOR (ONLY USED WITH PRECOND. TYPE 1) =    0.10000E+01
 PARAMETER OF POLYNOMIAL PRECOND. = 2 (2) OR IS CALCULATED :        0
                         HEAD CHANGE CRITERION FOR CLOSURE =    0.10000E-05
                     RESIDUAL CHANGE CRITERION FOR CLOSURE =    0.10000E+01
            PCG HEAD AND RESIDUAL CHANGE PRINTOUT INTERVAL =        1
     PRINTING FROM SOLVER IS LIMITED(1) OR SUPPRESSED (>1) =        1
                            STEADY-STATE DAMPING PARAMETER =    0.10000E+01
                               TRANSIENT DAMPING PARAMETER =    0.10000E+01
1
                            STRESS PERIOD NO.    1, LENGTH =   92.00000    
                            -----------------------------------------------

                              NUMBER OF TIME STEPS =     1

                               MULTIPLIER FOR DELT =     1.500

                            INITIAL TIME STEP SIZE =   92.00000    

 WELL NO.  LAYER   ROW   COL   STRESS RATE         
 --------------------------------------------------
      1      1      5     18     -0.5000E+05
      2      1      5      2     -0.3000E+05

      2 WELLS

                 RECHARGE =  5.000000E-04



 CLASSIFICATION & COUNT OF STREAM SEGMENTS BASED ON SOURCE OF INFLOW:

                HEADWATER     DIVERSION     RECEIVES TRIBUTARY FLOW
                ---------     ---------     -----------------------
                     2              0               1



                    INPUT DATA FOR EACH STREAM SEGMENT
 ---------------------------------------------------------------------------------------------

 SEGMENT    SEG.     INFLOW   OVERLAND   STREAM    STREAM   ICALC  OUTFLOW  DIVERSION PRIORITY
    NO.    LENGTH     RATE     RUNOFF      ET       PPT.    METH.  TO SEG.  FROM SEG.    NO.

      1  4.400E+03 1.000E+05 0.000E+00 0.000E+00 0.000E+00    1        3        0        0
      2  1.800E+03 5.000E+04 0.000E+00 0.000E+00 0.000E+00    1        3        0        0
      3  1.800E+03 0.000E+00 0.000E+00 0.000E+00 0.000E+00    1        0        0        0


         STREAMBED PROPERTIES AND STREAM DIMENSIONS

 SEGMENT     BED HYD. COND.      BED THICKNESS     ELEV.-TOP OF BED     WIDTH OF STREAM     DEPTH OF STREAM    STREAM ROUGHNESS
    No.     UPPER     LOWER     UPPER     LOWER     UPPER     LOWER     UPPER     LOWER     UPPER     LOWER   CHANNEL      BANK

     1  5.000E+00 5.000E+00 1.000E+00 1.000E+00 4.850E+01 3.800E+01 2.000E+01 2.000E+01                     5.000E-02
     2  5.000E+00 5.000E+00 1.000E+00 1.000E+00 4.025E+01 3.800E+01 2.000E+01 2.000E+01                     5.000E-02
     3  5.000E+00 5.000E+00 1.000E+00 1.000E+00 3.800E+01 3.000E+01 2.000E+01 2.000E+01                     5.000E-02



 
 SOLVING FOR HEAD 


     8 CALLS TO PCG ROUTINE FOR TIME STEP   1 IN STRESS PERIOD    1
    32 TOTAL ITERATIONS

 OUTPUT CONTROL FOR STRESS PERIOD    1   TIME STEP    1
    SAVE BUDGET
    SAVE HEAD FOR ALL LAYERS
    PRINT HEAD FOR ALL LAYERS
 UBDSV2 SAVING "STREAMFLOW OUT  " ON UNIT  50 AT TIME STEP  1, STRESS PERIOD   1



 STREAM LISTING     PERIOD      1   STEP        1

 LAYER ROW COL. STREAM  RCH.  FLOW INTO     FLOW TO   FLOW OUT OF   OVRLND.     DIRECT     STREAM       STREAM     STREAM     STREAM   STREAMBED  STREAMBED
                SEG.NO.  NO.  STRM. RCH.    AQUIFER    STRM. RCH.    RUNOFF     PRECIP       ET          HEAD       DEPTH      WIDTH   CONDCTNC.   GRADIENT

   1   13    1     1     1    1.0000E+05 -3.0167E+04   1.3017E+05  0.000E+00  0.000E+00  0.000E+00  4.84187E+01  1.574E-01  2.000E+01  2.000E+04 -1.508E+00
   1   13    2     1     2    1.3017E+05 -4.0324E+04   1.7049E+05  0.000E+00  0.000E+00  0.000E+00  4.79688E+01  1.847E-01  2.000E+01  2.000E+04 -2.016E+00
   1   14    3     1     3    1.7049E+05 -3.6573E+04   2.0706E+05  0.000E+00  0.000E+00  0.000E+00  4.75186E+01  2.118E-01  2.000E+01  2.000E+04 -1.829E+00
   1   15    4     1     4    2.0706E+05 -3.6035E+04   2.4310E+05  0.000E+00  0.000E+00  0.000E+00  4.70649E+01  2.354E-01  2.000E+01  2.000E+04 -1.802E+00
   1   16    5     1     5    2.4310E+05 -3.7319E+04   2.8042E+05  0.000E+00  0.000E+00  0.000E+00  4.66099E+01  2.577E-01  2.000E+01  2.000E+04 -1.866E+00
   1   16    6     1     6    2.8042E+05 -3.2579E+04   3.1300E+05  0.000E+00  0.000E+00  0.000E+00  4.61528E+01  2.778E-01  2.000E+01  2.000E+04 -1.629E+00
   1   16    7     1     7    3.1300E+05 -3.2388E+04   3.4539E+05  0.000E+00  0.000E+00  0.000E+00  4.56934E+01  2.957E-01  2.000E+01  2.000E+04 -1.619E+00
   1   16    8     1     8    3.4539E+05 -3.2613E+04   3.7800E+05  0.000E+00  0.000E+00  0.000E+00  4.52333E+01  3.128E-01  2.000E+01  2.000E+04 -1.631E+00
   1   16    9     1     9    3.7800E+05 -3.2736E+04   4.1073E+05  0.000E+00  0.000E+00  0.000E+00  4.47727E+01  3.295E-01  2.000E+01  2.000E+04 -1.637E+00
   1   16   10     1    10    4.1073E+05 -3.2808E+04   4.4354E+05  0.000E+00  0.000E+00  0.000E+00  4.43116E+01  3.457E-01  2.000E+01  2.000E+04 -1.640E+00
   1   16   11     1    11    4.4354E+05 -3.3520E+04   4.7706E+05  0.000E+00  0.000E+00  0.000E+00  4.38502E+01  3.615E-01  2.000E+01  2.000E+04 -1.676E+00
   1   16   12     1    12    4.7706E+05 -3.9664E+04   5.1672E+05  0.000E+00  0.000E+00  0.000E+00  4.33899E+01  3.785E-01  2.000E+01  2.000E+04 -1.983E+00
   1   15   13     1    13    5.1672E+05 -3.8811E+04   5.5554E+05  0.000E+00  0.000E+00  0.000E+00  4.29303E+01  3.962E-01  2.000E+01  2.000E+04 -1.941E+00
   1   14   14     1    14    5.5554E+05 -3.9398E+04   5.9493E+05  0.000E+00  0.000E+00  0.000E+00  4.24701E+01  4.133E-01  2.000E+01  2.000E+04 -1.970E+00
   1   13   15     1    15    5.9493E+05 -4.1233E+04   6.3617E+05  0.000E+00  0.000E+00  0.000E+00  4.20100E+01  4.304E-01  2.000E+01  2.000E+04 -2.062E+00
   1   12   16     1    16    6.3617E+05 -4.6273E+04   6.8244E+05  0.000E+00  0.000E+00  0.000E+00  4.15508E+01  4.485E-01  2.000E+01  2.000E+04 -2.314E+00
   1   12   17     1    17    6.8244E+05 -3.6308E+04   7.1875E+05  0.000E+00  0.000E+00  0.000E+00  4.10902E+01  4.652E-01  2.000E+01  2.000E+04 -1.815E+00
   1   12   18     1    18    7.1875E+05 -3.4581E+04   7.5333E+05  0.000E+00  0.000E+00  0.000E+00  4.06269E+01  4.791E-01  2.000E+01  2.000E+04 -1.729E+00
   1   12   19     1    19    7.5333E+05 -3.8819E+04   7.9215E+05  0.000E+00  0.000E+00  0.000E+00  4.01638E+01  4.933E-01  2.000E+01  2.000E+04 -1.941E+00
   1   13   20     1    20    7.9215E+05 -2.9871E+04   8.2202E+05  0.000E+00  0.000E+00  0.000E+00  3.96996E+01  5.064E-01  2.000E+01  2.000E+04 -1.494E+00
   1   14   21     1    21    8.2202E+05 -2.2730E+04   8.4475E+05  0.000E+00  0.000E+00  0.000E+00  3.92321E+01  5.162E-01  2.000E+01  2.000E+04 -1.136E+00
   1   14   22     1    22    8.4475E+05 -2.8765E+03   8.4762E+05  0.000E+00  0.000E+00  0.000E+00  3.87596E+01  5.210E-01  2.000E+01  2.000E+04 -1.438E-01
   1    9   30     2     1    5.0000E+04 -2.9459E+04   7.9459E+04  0.000E+00  0.000E+00  0.000E+00  4.02603E+01  1.353E-01  2.000E+01  2.000E+04 -1.473E+00
   1    9   29     2     2    7.9459E+04 -3.1859E+04   1.1132E+05  0.000E+00  0.000E+00  0.000E+00  4.00457E+01  1.707E-01  2.000E+01  2.000E+04 -1.593E+00
   1    9   28     2     3    1.1132E+05 -3.6070E+04   1.4739E+05  0.000E+00  0.000E+00  0.000E+00  3.98299E+01  2.049E-01  2.000E+01  2.000E+04 -1.804E+00
   1    9   27     2     4    1.4739E+05 -5.0361E+04   1.9775E+05  0.000E+00  0.000E+00  0.000E+00  3.96186E+01  2.436E-01  2.000E+01  2.000E+04 -2.518E+00
   1   10   26     2     5    1.9775E+05 -3.6702E+04   2.3445E+05  0.000E+00  0.000E+00  0.000E+00  3.94038E+01  2.788E-01  2.000E+01  2.000E+04 -1.835E+00
   1   11   25     2     6    2.3445E+05 -2.8294E+04   2.6275E+05  0.000E+00  0.000E+00  0.000E+00  3.91783E+01  3.033E-01  2.000E+01  2.000E+04 -1.415E+00
   1   12   24     2     7    2.6275E+05 -2.1420E+04   2.8417E+05  0.000E+00  0.000E+00  0.000E+00  3.89461E+01  3.211E-01  2.000E+01  2.000E+04 -1.071E+00
   1   13   23     2     8    2.8417E+05 -1.5591E+04   2.9976E+05  0.000E+00  0.000E+00  0.000E+00  3.87090E+01  3.340E-01  2.000E+01  2.000E+04 -7.795E-01
   1   14   22     2     9    2.9976E+05 -8.7225E+03   3.0848E+05  0.000E+00  0.000E+00  0.000E+00  3.84673E+01  3.423E-01  2.000E+01  2.000E+04 -4.361E-01
   1   14   22     3     1    1.1561E+06 -1.6486E+04   1.1726E+06  0.000E+00  0.000E+00  0.000E+00  3.80791E+01  5.235E-01  2.000E+01  2.000E+04 -8.243E-01
   1   15   23     3     2    1.1726E+06 -2.6691E+04   1.1993E+06  0.000E+00  0.000E+00  0.000E+00  3.71960E+01  5.293E-01  2.000E+01  2.000E+04 -1.335E+00
   1   15   24     3     3    1.1993E+06 -2.2341E+04   1.2216E+06  0.000E+00  0.000E+00  0.000E+00  3.63137E+01  5.359E-01  2.000E+01  2.000E+04 -1.117E+00
   1   15   25     3     4    1.2216E+06 -2.2069E+04   1.2437E+06  0.000E+00  0.000E+00  0.000E+00  3.54306E+01  5.418E-01  2.000E+01  2.000E+04 -1.103E+00
   1   15   26     3     5    1.2437E+06 -2.5493E+04   1.2692E+06  0.000E+00  0.000E+00  0.000E+00  3.45480E+01  5.480E-01  2.000E+01  2.000E+04 -1.275E+00
   1   16   27     3     6    1.2692E+06 -3.3238E+04   1.3024E+06  0.000E+00  0.000E+00  0.000E+00  3.36668E+01  5.557E-01  2.000E+01  2.000E+04 -1.662E+00
   1   17   28     3     7    1.3024E+06 -4.0258E+04   1.3427E+06  0.000E+00  0.000E+00  0.000E+00  3.27874E+01  5.651E-01  2.000E+01  2.000E+04 -2.013E+00
   1   18   29     3     8    1.3427E+06 -5.0716E+04   1.3934E+06  0.000E+00  0.000E+00  0.000E+00  3.19100E+01  5.767E-01  2.000E+01  2.000E+04 -2.536E+00
   1   18   30     3     9    1.3934E+06 -4.6711E+04   1.4401E+06  0.000E+00  0.000E+00  0.000E+00  3.10334E+01  5.889E-01  2.000E+01  2.000E+04 -2.336E+00



1
              HEAD IN LAYER   1 AT END OF TIME STEP   1 IN STRESS PERIOD    1
  ---------------------------------------------------------------------------

          1      2      3      4      5      6      7      8      9     10
         11     12     13     14     15     16     17     18     19     20
         21     22     23     24     25     26     27     28     29     30
 .........................................................................
   1  ****** ****** ****** ****** ****** ****** ****** ****** ****** ******
      ****** ****** ****** ****** ****** ****** ****** ****** ****** ******
      ****** ****** ****** ****** ****** ****** ****** ****** ****** ******
   2  ****** ****** ****** ****** ****** ****** ****** ****** ****** ******
      ****** ****** ****** ****** ****** ****** ****** ****** ****** ******
      ****** ****** ****** ****** ****** ****** ****** ****** ****** ******
   3  ****** ****** ****** ****** ****** ****** ****** ****** ****** ******
      ****** ****** ****** ****** ****** ****** ****** ****** ****** ******
      ****** ****** ****** ****** ****** ****** ****** ****** ****** ******
   4  ****** ****** ****** ****** ****** ****** ****** ****** ****** ******
      ****** ****** ****** ****** ****** ****** ****** ****** ****** ******
      ****** ****** ****** ****** ****** ****** ****** ****** ****** ******
   5  ****** ****** ****** ****** ****** ****** ****** ****** ****** ******
      ****** ****** ****** ****** ****** ****** ****** ****** ****** ******
      ****** ****** ****** ****** ****** ****** ****** ****** ****** ******
   6  ****** ****** ****** ****** ****** ****** ****** ****** ****** ******
      ****** ****** ****** ****** ****** ****** ****** ****** ****** ******
      ****** ****** ****** ****** ****** ****** ****** ****** ****** ******
   7  ****** ****** ****** ****** ****** ****** ****** ****** ****** ******
      ****** ****** ****** ****** ****** ****** ****** ****** ****** ******
      ****** ****** ****** ****** ****** ****** ****** ****** ****** ******
   8  ****** ****** ****** ****** ****** ****** ****** ****** ****** ******
      ****** ****** ****** ****** ****** ****** ****** ****** ****** ******
      ****** ****** ****** ****** ****** ****** ****** ****** ****** ******
   9  ****** ****** ****** ****** ****** ****** ****** ****** ****** ******
      ****** ****** ****** ****** ****** ****** ****** ****** ****** ******
      ****** ****** ****** ****** ****** ****** ****** ****** ****** ******
  10  ****** ****** ****** ****** ****** ****** ****** ****** ****** ******
      ****** ****** ****** ****** ****** ****** ****** ****** ****** ******
      ****** ****** ****** ****** ****** ****** ****** ****** ****** ******
  11  ****** ****** ****** ****** ****** ****** ****** ****** ****** ******
      ****** ****** ****** ****** ****** ****** ****** ****** ****** ******
      ****** ****** ****** ****** ****** ****** ****** ****** ****** ******
  12  ****** ****** ****** ****** ****** ****** ****** ****** ****** ******
      ****** ****** ****** ****** ****** ****** ****** ****** ****** ******
      ****** ****** ****** ****** ****** ****** ****** ****** ****** ******
  13  ****** ****** ****** ****** ****** ****** ****** ****** ****** ******
      ****** ****** ****** ****** ****** ****** ****** ****** ****** ******
      ****** ****** ****** ****** ****** ****** ****** ****** ****** ******
  14  ****** ****** ****** ****** ****** ****** ****** ****** ****** ******
      ****** ****** ****** ****** ****** ****** ****** ****** ****** ******
      ****** ****** ****** ****** ****** ****** ****** ****** ****** ******
  15  ****** ****** ****** ****** ****** ****** ****** ****** ****** ******
      ****** ****** ****** ****** ****** ****** ****** ****** ****** ******
      ****** ****** ****** ****** ****** ****** ****** ****** ****** ******
  16  ****** ****** ****** ****** ****** ****** ****** ****** ****** ******
      ****** ****** ****** ****** ****** ****** ****** ****** ****** ******
      ****** ****** ****** ****** ****** ****** ****** ****** ****** ******
  17  ****** ****** ****** ****** ****** ****** ****** ****** ****** ******
      ****** ****** ****** ****** ****** ****** ****** ****** ****** ******
      ****** ****** ****** ****** ****** ****** ****** ****** ****** ******
  18  ****** ****** ****** ****** ****** ****** ****** ****** ****** ******
      ****** ****** ****** ****** ****** ****** ****** ****** ****** ******
      ****** ****** ****** ****** ****** ****** ****** ****** ****** ******
  19  ****** ****** ****** ****** ****** ****** ****** ****** ****** ******
      ****** ****** ****** ****** ****** ****** ****** ****** ****** ******
      ****** ****** ****** ****** ****** ****** ****** ****** ****** ******
  20  ****** ****** ****** ****** ****** ****** ****** ****** ****** ******
      ****** ****** ****** ****** ****** ****** ****** ****** ****** ******
      ****** ****** ****** ****** ****** ****** ****** ****** ****** ******
  21  ****** ****** ****** ****** ****** ****** ****** ****** ****** ******
      ****** ****** ****** ****** ****** ****** ****** ****** ****** ******
      ****** ****** ****** ****** ****** ****** ****** ****** ****** ******
  22  ****** ****** ****** ****** ****** ****** ****** ****** ****** ******
      ****** ****** ****** ****** ****** ****** ****** ****** ****** ******
      ****** ****** ****** ****** ****** ****** ****** ****** ****** ******
  23  ****** ****** ****** ****** ****** ****** ****** ****** ****** ******
      ****** ****** ****** ****** ****** ****** ****** ****** ****** ******
      ****** ****** ****** ****** ****** ****** ****** ****** ****** ******
  24  ****** ****** ****** ****** ****** ****** ****** ****** ****** ******
      ****** ****** ****** ****** ****** ****** ****** ****** ****** ******
      ****** ****** ****** ****** ****** ****** ****** ****** ****** ******
  25  ****** ****** ****** ****** ****** ****** ****** ****** ****** ******
      ****** ****** ****** ****** ****** ****** ****** ****** ****** ******
      ****** ****** ****** ****** ****** ****** ****** ****** ****** ******

 HEAD WILL BE SAVED ON UNIT   51 AT END OF TIME STEP    1, STRESS PERIOD    1
1
  VOLUMETRIC BUDGET FOR ENTIRE MODEL AT END OF TIME STEP    1, STRESS PERIOD   1
  ------------------------------------------------------------------------------

     CUMULATIVE VOLUMES      L**3       RATES FOR THIS TIME STEP      L**3/T
     ------------------                 ------------------------

           IN:                                      IN:
           ---                                      ---
             STORAGE =    19364326.7377               STORAGE =      210481.8124
       CONSTANT HEAD =   105415787.0758         CONSTANT HEAD =     1145823.7726
               WELLS =           0.0000                 WELLS =           0.0000
            RECHARGE =     1269600.0000              RECHARGE =       13800.0000
      STREAM LEAKAGE =           0.0000        STREAM LEAKAGE =           0.0000

            TOTAL IN =   126049713.8136              TOTAL IN =     1370105.5849

          OUT:                                     OUT:
          ----                                     ----
             STORAGE =           0.0000               STORAGE =           0.0000
       CONSTANT HEAD =           0.0000         CONSTANT HEAD =           0.0000
               WELLS =     7360000.0000                 WELLS =       80000.0000
            RECHARGE =           0.0000              RECHARGE =           0.0000
      STREAM LEAKAGE =   118689715.6502        STREAM LEAKAGE =     1290105.6049

           TOTAL OUT =   126049715.6502             TOTAL OUT =     1370105.6049

            IN - OUT =          -1.8366              IN - OUT =      -1.9963E-02

 PERCENT DISCREPANCY =          -0.00     PERCENT DISCREPANCY =          -0.00






         TIME SUMMARY AT END OF TIME STEP    1 IN STRESS PERIOD    1
                    SECONDS     MINUTES      HOURS       DAYS        YEARS
                    -----------------------------------------------------------
   TIME STEP LENGTH 7.94880E+06 1.32480E+05  2208.0      92.000     0.25188    
 STRESS PERIOD TIME 7.94880E+06 1.32480E+05  2208.0      92.000     0.25188    
         TOTAL TIME 7.94880E+06 1.32480E+05  2208.0      92.000     0.25188    
1
1
                            STRESS PERIOD NO.    2, LENGTH =   91.00000    
                            -----------------------------------------------

                              NUMBER OF TIME STEPS =     1

                               MULTIPLIER FOR DELT =     1.500

                            INITIAL TIME STEP SIZE =   91.00000    

 WELL NO.  LAYER   ROW   COL   STRESS RATE         
 --------------------------------------------------
      1      1      5     18     -0.5000E+05
      2      1      5      2     -0.1245E+05
      3      1     23      5     -0.1755E+05

      3 WELLS

                 RECHARGE =  2.000000E-03

 REUSING STREAM SEGMENT DATA FROM LAST STRESS PERIOD
 
 SOLVING FOR HEAD 


     6 CALLS TO PCG ROUTINE FOR TIME STEP   1 IN STRESS PERIOD    2
    25 TOTAL ITERATIONS

 OUTPUT CONTROL FOR STRESS PERIOD    2   TIME STEP    1
    SAVE BUDGET
    SAVE HEAD FOR ALL LAYERS
    PRINT HEAD FOR ALL LAYERS
 UBDSV2 SAVING "STREAMFLOW OUT  " ON UNIT  50 AT TIME STEP  1, STRESS PERIOD   2



 STREAM LISTING     PERIOD      2   STEP        1

 LAYER ROW COL. STREAM  RCH.  FLOW INTO     FLOW TO   FLOW OUT OF   OVRLND.     DIRECT     STREAM       STREAM     STREAM     STREAM   STREAMBED  STREAMBED
                SEG.NO.  NO.  STRM. RCH.    AQUIFER    STRM. RCH.    RUNOFF     PRECIP       ET          HEAD       DEPTH      WIDTH   CONDCTNC.   GRADIENT

   1   13    1     1     1    1.0000E+05 -2.7573E+04   1.2757E+05  0.000E+00  0.000E+00  0.000E+00  4.84177E+01  1.563E-01  2.000E+01  2.000E+04 -1.379E+00
   1   13    2     1     2    1.2757E+05 -3.7284E+04   1.6486E+05  0.000E+00  0.000E+00  0.000E+00  4.79658E+01  1.817E-01  2.000E+01  2.000E+04 -1.864E+00
   1   14    3     1     3    1.6486E+05 -3.2975E+04   1.9783E+05  0.000E+00  0.000E+00  0.000E+00  4.75136E+01  2.067E-01  2.000E+01  2.000E+04 -1.649E+00
   1   15    4     1     4    1.9783E+05 -3.2265E+04   2.3010E+05  0.000E+00  0.000E+00  0.000E+00  4.70579E+01  2.283E-01  2.000E+01  2.000E+04 -1.613E+00
   1   16    5     1     5    2.3010E+05 -3.3719E+04   2.6382E+05  0.000E+00  0.000E+00  0.000E+00  4.66011E+01  2.488E-01  2.000E+01  2.000E+04 -1.686E+00
   1   16    6     1     6    2.6382E+05 -2.9507E+04   2.9332E+05  0.000E+00  0.000E+00  0.000E+00  4.61425E+01  2.675E-01  2.000E+01  2.000E+04 -1.475E+00
   1   16    7     1     7    2.9332E+05 -2.9388E+04   3.2271E+05  0.000E+00  0.000E+00  0.000E+00  4.56818E+01  2.841E-01  2.000E+01  2.000E+04 -1.469E+00
   1   16    8     1     8    3.2271E+05 -2.9636E+04   3.5235E+05  0.000E+00  0.000E+00  0.000E+00  4.52206E+01  3.001E-01  2.000E+01  2.000E+04 -1.482E+00
   1   16    9     1     9    3.5235E+05 -2.9784E+04   3.8213E+05  0.000E+00  0.000E+00  0.000E+00  4.47589E+01  3.157E-01  2.000E+01  2.000E+04 -1.489E+00
   1   16   10     1    10    3.8213E+05 -2.9883E+04   4.1201E+05  0.000E+00  0.000E+00  0.000E+00  4.42968E+01  3.309E-01  2.000E+01  2.000E+04 -1.494E+00
   1   16   11     1    11    4.1201E+05 -3.0574E+04   4.4259E+05  0.000E+00  0.000E+00  0.000E+00  4.38344E+01  3.458E-01  2.000E+01  2.000E+04 -1.529E+00
   1   16   12     1    12    4.4259E+05 -3.6274E+04   4.7886E+05  0.000E+00  0.000E+00  0.000E+00  4.33731E+01  3.617E-01  2.000E+01  2.000E+04 -1.814E+00
   1   15   13     1    13    4.7886E+05 -3.4951E+04   5.1381E+05  0.000E+00  0.000E+00  0.000E+00  4.29124E+01  3.783E-01  2.000E+01  2.000E+04 -1.748E+00
   1   14   14     1    14    5.1381E+05 -3.5360E+04   5.4917E+05  0.000E+00  0.000E+00  0.000E+00  4.24509E+01  3.941E-01  2.000E+01  2.000E+04 -1.768E+00
   1   13   15     1    15    5.4917E+05 -3.7222E+04   5.8640E+05  0.000E+00  0.000E+00  0.000E+00  4.19896E+01  4.100E-01  2.000E+01  2.000E+04 -1.861E+00
   1   12   16     1    16    5.8640E+05 -4.2512E+04   6.2891E+05  0.000E+00  0.000E+00  0.000E+00  4.15294E+01  4.271E-01  2.000E+01  2.000E+04 -2.126E+00
   1   12   17     1    17    6.2891E+05 -3.3154E+04   6.6206E+05  0.000E+00  0.000E+00  0.000E+00  4.10678E+01  4.428E-01  2.000E+01  2.000E+04 -1.658E+00
   1   12   18     1    18    6.6206E+05 -3.1507E+04   6.9357E+05  0.000E+00  0.000E+00  0.000E+00  4.06038E+01  4.560E-01  2.000E+01  2.000E+04 -1.575E+00
   1   12   19     1    19    6.9357E+05 -3.5425E+04   7.2899E+05  0.000E+00  0.000E+00  0.000E+00  4.01399E+01  4.694E-01  2.000E+01  2.000E+04 -1.771E+00
   1   13   20     1    20    7.2899E+05 -2.6566E+04   7.5556E+05  0.000E+00  0.000E+00  0.000E+00  3.96748E+01  4.816E-01  2.000E+01  2.000E+04 -1.328E+00
   1   14   21     1    21    7.5556E+05 -1.9947E+04   7.7551E+05  0.000E+00  0.000E+00  0.000E+00  3.92065E+01  4.906E-01  2.000E+01  2.000E+04 -9.974E-01
   1   14   22     1    22    7.7551E+05 -1.8205E+03   7.7733E+05  0.000E+00  0.000E+00  0.000E+00  3.87334E+01  4.947E-01  2.000E+01  2.000E+04 -9.102E-02
   1    9   30     2     1    5.0000E+04 -2.6785E+04   7.6785E+04  0.000E+00  0.000E+00  0.000E+00  4.02586E+01  1.336E-01  2.000E+01  2.000E+04 -1.339E+00
   1    9   29     2     2    7.6785E+04 -2.9210E+04   1.0600E+05  0.000E+00  0.000E+00  0.000E+00  4.00414E+01  1.664E-01  2.000E+01  2.000E+04 -1.460E+00
   1    9   28     2     3    1.0600E+05 -3.3397E+04   1.3939E+05  0.000E+00  0.000E+00  0.000E+00  3.98235E+01  1.985E-01  2.000E+01  2.000E+04 -1.670E+00
   1    9   27     2     4    1.3939E+05 -4.7270E+04   1.8666E+05  0.000E+00  0.000E+00  0.000E+00  3.96105E+01  2.355E-01  2.000E+01  2.000E+04 -2.364E+00
   1   10   26     2     5    1.8666E+05 -3.3200E+04   2.1986E+05  0.000E+00  0.000E+00  0.000E+00  3.93938E+01  2.688E-01  2.000E+01  2.000E+04 -1.660E+00
   1   11   25     2     6    2.1986E+05 -2.4814E+04   2.4468E+05  0.000E+00  0.000E+00  0.000E+00  3.91662E+01  2.912E-01  2.000E+01  2.000E+04 -1.241E+00
   1   12   24     2     7    2.4468E+05 -1.8270E+04   2.6295E+05  0.000E+00  0.000E+00  0.000E+00  3.89321E+01  3.071E-01  2.000E+01  2.000E+04 -9.135E-01
   1   13   23     2     8    2.6295E+05 -1.3038E+04   2.7598E+05  0.000E+00  0.000E+00  0.000E+00  3.86933E+01  3.183E-01  2.000E+01  2.000E+04 -6.519E-01
   1   14   22     2     9    2.7598E+05 -7.4772E+03   2.8346E+05  0.000E+00  0.000E+00  0.000E+00  3.84505E+01  3.255E-01  2.000E+01  2.000E+04 -3.739E-01
   1   14   22     3     1    1.0608E+06 -1.5432E+04   1.0762E+06  0.000E+00  0.000E+00  0.000E+00  3.80528E+01  4.972E-01  2.000E+01  2.000E+04 -7.716E-01
   1   15   23     3     2    1.0762E+06 -2.4149E+04   1.1004E+06  0.000E+00  0.000E+00  0.000E+00  3.71694E+01  5.027E-01  2.000E+01  2.000E+04 -1.207E+00
   1   15   24     3     3    1.1004E+06 -2.0095E+04   1.1205E+06  0.000E+00  0.000E+00  0.000E+00  3.62866E+01  5.089E-01  2.000E+01  2.000E+04 -1.005E+00
   1   15   25     3     4    1.1205E+06 -1.9689E+04   1.1402E+06  0.000E+00  0.000E+00  0.000E+00  3.54032E+01  5.143E-01  2.000E+01  2.000E+04 -9.844E-01
   1   15   26     3     5    1.1402E+06 -2.2506E+04   1.1627E+06  0.000E+00  0.000E+00  0.000E+00  3.45200E+01  5.200E-01  2.000E+01  2.000E+04 -1.125E+00
   1   16   27     3     6    1.1627E+06 -2.9807E+04   1.1925E+06  0.000E+00  0.000E+00  0.000E+00  3.36382E+01  5.271E-01  2.000E+01  2.000E+04 -1.490E+00
   1   17   28     3     7    1.1925E+06 -3.6892E+04   1.2294E+06  0.000E+00  0.000E+00  0.000E+00  3.27582E+01  5.360E-01  2.000E+01  2.000E+04 -1.845E+00
   1   18   29     3     8    1.2294E+06 -4.7855E+04   1.2772E+06  0.000E+00  0.000E+00  0.000E+00  3.18805E+01  5.472E-01  2.000E+01  2.000E+04 -2.393E+00
   1   18   30     3     9    1.2772E+06 -4.4183E+04   1.3214E+06  0.000E+00  0.000E+00  0.000E+00  3.10036E+01  5.591E-01  2.000E+01  2.000E+04 -2.209E+00



1
              HEAD IN LAYER   1 AT END OF TIME STEP   1 IN STRESS PERIOD    2
  ---------------------------------------------------------------------------

          1      2      3      4      5      6      7      8      9     10
         11     12     13     14     15     16     17     18     19     20
         21     22     23     24     25     26     27     28     29     30
 .........................................................................
   1  ****** ****** ****** ****** ****** ****** ****** ****** ****** ******
      ****** ****** ****** ****** ****** ****** ****** ****** ****** ******
      ****** ****** ****** ****** ****** ****** ****** ****** ****** ******
   2  ****** ****** ****** ****** ****** ****** ****** ****** ****** ******
      ****** ****** ****** ****** ****** ****** ****** ****** ****** ******
      ****** ****** ****** ****** ****** ****** ****** ****** ****** ******
   3  ****** ****** ****** ****** ****** ****** ****** ****** ****** ******
      ****** ****** ****** ****** ****** ****** ****** ****** ****** ******
      ****** ****** ****** ****** ****** ****** ****** ****** ****** ******
   4  ****** ****** ****** ****** ****** ****** ****** ****** ****** ******
      ****** ****** ****** ****** ****** ****** ****** ****** ****** ******
      ****** ****** ****** ****** ****** ****** ****** ****** ****** ******
   5  ****** ****** ****** ****** ****** ****** ****** ****** ****** ******
      ****** ****** ****** ****** ****** ****** ****** ****** ****** ******
      ****** ****** ****** ****** ****** ****** ****** ****** ****** ******
   6  ****** ****** ****** ****** ****** ****** ****** ****** ****** ******
      ****** ****** ****** ****** ****** ****** ****** ****** ****** ******
      ****** ****** ****** ****** ****** ****** ****** ****** ****** ******
   7  ****** ****** ****** ****** ****** ****** ****** ****** ****** ******
      ****** ****** ****** ****** ****** ****** ****** ****** ****** ******
      ****** ****** ****** ****** ****** ****** ****** ****** ****** ******
   8  ****** ****** ****** ****** ****** ****** ****** ****** ****** ******
      ****** ****** ****** ****** ****** ****** ****** ****** ****** ******
      ****** ****** ****** ****** ****** ****** ****** ****** ****** ******
   9  ****** ****** ****** ****** ****** ****** ****** ****** ****** ******
      ****** ****** ****** ****** ****** ****** ****** ****** ****** ******
      ****** ****** ****** ****** ****** ****** ****** ****** ****** ******
  10  ****** ****** ****** ****** ****** ****** ****** ****** ****** ******
      ****** ****** ****** ****** ****** ****** ****** ****** ****** ******
      ****** ****** ****** ****** ****** ****** ****** ****** ****** ******
  11  ****** ****** ****** ****** ****** ****** ****** ****** ****** ******
      ****** ****** ****** ****** ****** ****** ****** ****** ****** ******
      ****** ****** ****** ****** ****** ****** ****** ****** ****** ******
  12  ****** ****** ****** ****** ****** ****** ****** ****** ****** ******
      ****** ****** ****** ****** ****** ****** ****** ****** ****** ******
      ****** ****** ****** ****** ****** ****** ****** ****** ****** ******
  13  ****** ****** ****** ****** ****** ****** ****** ****** ****** ******
      ****** ****** ****** ****** ****** ****** ****** ****** ****** ******
      ****** ****** ****** ****** ****** ****** ****** ****** ****** ******
  14  ****** ****** ****** ****** ****** ****** ****** ****** ****** ******
      ****** ****** ****** ****** ****** ****** ****** ****** ****** ******
      ****** ****** ****** ****** ****** ****** ****** ****** ****** ******
  15  ****** ****** ****** ****** ****** ****** ****** ****** ****** ******
      ****** ****** ****** ****** ****** ****** ****** ****** ****** ******
      ****** ****** ****** ****** ****** ****** ****** ****** ****** ******
  16  ****** ****** ****** ****** ****** ****** ****** ****** ****** ******
      ****** ****** ****** ****** ****** ****** ****** ****** ****** ******
      ****** ****** ****** ****** ****** ****** ****** ****** ****** ******
  17  ****** ****** ****** ****** ****** ****** ****** ****** ****** ******
      ****** ****** ****** ****** ****** ****** ****** ****** ****** ******
      ****** ****** ****** ****** ****** ****** ****** ****** ****** ******
  18  ****** ****** ****** ****** ****** ****** ****** ****** ****** ******
      ****** ****** ****** ****** ****** ****** ****** ****** ****** ******
      ****** ****** ****** ****** ****** ****** ****** ****** ****** ******
  19  ****** ****** ****** ****** ****** ****** ****** ****** ****** ******
      ****** ****** ****** ****** ****** ****** ****** ****** ****** ******
      ****** ****** ****** ****** ****** ****** ****** ****** ****** ******
  20  ****** ****** ****** ****** ****** ****** ****** ****** ****** ******
      ****** ****** ****** ****** ****** ****** ****** ****** ****** ******
      ****** ****** ****** ****** ****** ****** ****** ****** ****** ******
  21  ****** ****** ****** ****** ****** ****** ****** ****** ****** ******
      ****** ****** ****** ****** ****** ****** ****** ****** ****** ******
      ****** ****** ****** ****** ****** ****** ****** ****** ****** ******
  22  ****** ****** ****** ****** ****** ****** ****** ****** ****** ******
      ****** ****** ****** ****** ****** ****** ****** ****** ****** ******
      ****** ****** ****** ****** ****** ****** ****** ****** ****** ******
  23  ****** ****** ****** ****** ****** ****** ****** ****** ****** ******
      ****** ****** ****** ****** ****** ****** ****** ****** ****** ******
      ****** ****** ****** ****** ****** ****** ****** ****** ****** ******
  24  ****** ****** ****** ****** ****** ****** ****** ****** ****** ******
      ****** ****** ****** ****** ****** ****** ****** ****** ****** ******
      ****** ****** ****** ****** ****** ****** ****** ****** ****** ******
  25  ****** ****** ****** ****** ****** ****** ****** ****** ****** ******
      ****** ****** ****** ****** ****** ****** ****** ****** ****** ******
      ****** ****** ****** ****** ****** ****** ****** ****** ****** ******

 HEAD WILL BE SAVED ON UNIT   51 AT END OF TIME STEP    1, STRESS PERIOD    2
1
  VOLUMETRIC BUDGET FOR ENTIRE MODEL AT END OF TIME STEP    1, STRESS PERIOD   2
  ------------------------------------------------------------------------------

     CUMULATIVE VOLUMES      L**3       RATES FOR THIS TIME STEP      L**3/T
     ------------------                 ------------------------

           IN:                                      IN:
           ---                                      ---
             STORAGE =    20016569.5866               STORAGE =        7167.5038
       CONSTANT HEAD =   213641107.1895         CONSTANT HEAD =     1189289.2320
               WELLS =           0.0000                 WELLS =           0.0000
            RECHARGE =     6292800.0000              RECHARGE =       55200.0000
      STREAM LEAKAGE =           0.0000        STREAM LEAKAGE =           0.0000

            TOTAL IN =   239950476.7761              TOTAL IN =     1251656.7359

          OUT:                                     OUT:
          ----                                     ----
             STORAGE =       23661.8569               STORAGE =         260.0204
       CONSTANT HEAD =           0.0000         CONSTANT HEAD =           0.0000
               WELLS =    14640000.0000                 WELLS =       80000.0000
            RECHARGE =           0.0000              RECHARGE =           0.0000
      STREAM LEAKAGE =   225286818.4192        STREAM LEAKAGE =     1171396.7337

           TOTAL OUT =   239950480.2761             TOTAL OUT =     1251656.7541

            IN - OUT =          -3.5000              IN - OUT =      -1.8279E-02

 PERCENT DISCREPANCY =          -0.00     PERCENT DISCREPANCY =          -0.00






         TIME SUMMARY AT END OF TIME STEP    1 IN STRESS PERIOD    2
                    SECONDS     MINUTES      HOURS       DAYS        YEARS
                    -----------------------------------------------------------
   TIME STEP LENGTH 7.86240E+06 1.31040E+05  2184.0      91.000     0.24914    
 STRESS PERIOD TIME 7.86240E+06 1.31040E+05  2184.0      91.000     0.24914    
         TOTAL TIME 1.58112E+07 2.63520E+05  4392.0      183.00     0.50103    
1
1
                            STRESS PERIOD NO.    3, LENGTH =   91.00000    
                            -----------------------------------------------

                              NUMBER OF TIME STEPS =     1

                               MULTIPLIER FOR DELT =     1.500

                            INITIAL TIME STEP SIZE =   91.00000    

 WELL NO.  LAYER   ROW   COL   STRESS RATE         
 --------------------------------------------------
      1      1      5     18     -0.5000E+05
      2      1      5      2     -0.3000E+05

      2 WELLS

                 RECHARGE =   0.00000    

 REUSING STREAM SEGMENT DATA FROM LAST STRESS PERIOD
 
 SOLVING FOR HEAD 


     6 CALLS TO PCG ROUTINE FOR TIME STEP   1 IN STRESS PERIOD    3
    23 TOTAL ITERATIONS

 OUTPUT CONTROL FOR STRESS PERIOD    3   TIME STEP    1
    SAVE BUDGET
    SAVE HEAD FOR ALL LAYERS
    PRINT HEAD FOR ALL LAYERS
 UBDSV2 SAVING "STREAMFLOW OUT  " ON UNIT  50 AT TIME STEP  1, STRESS PERIOD   3



 STREAM LISTING     PERIOD      3   STEP        1

 LAYER ROW COL. STREAM  RCH.  FLOW INTO     FLOW TO   FLOW OUT OF   OVRLND.     DIRECT     STREAM       STREAM     STREAM     STREAM   STREAMBED  STREAMBED
                SEG.NO.  NO.  STRM. RCH.    AQUIFER    STRM. RCH.    RUNOFF     PRECIP       ET          HEAD       DEPTH      WIDTH   CONDCTNC.   GRADIENT

   1   13    1     1     1    1.0000E+05 -2.5904E+04   1.2590E+05  0.000E+00  0.000E+00  0.000E+00  4.84170E+01  1.556E-01  2.000E+01  2.000E+04 -1.295E+00
   1   13    2     1     2    1.2590E+05 -3.5258E+04   1.6116E+05  0.000E+00  0.000E+00  0.000E+00  4.79638E+01  1.797E-01  2.000E+01  2.000E+04 -1.763E+00
   1   14    3     1     3    1.6116E+05 -3.1472E+04   1.9263E+05  0.000E+00  0.000E+00  0.000E+00  4.75105E+01  2.037E-01  2.000E+01  2.000E+04 -1.574E+00
   1   15    4     1     4    1.9263E+05 -3.1143E+04   2.2378E+05  0.000E+00  0.000E+00  0.000E+00  4.70542E+01  2.246E-01  2.000E+01  2.000E+04 -1.557E+00
   1   16    5     1     5    2.2378E+05 -3.3057E+04   2.5683E+05  0.000E+00  0.000E+00  0.000E+00  4.65971E+01  2.448E-01  2.000E+01  2.000E+04 -1.653E+00
   1   16    6     1     6    2.5683E+05 -2.8830E+04   2.8566E+05  0.000E+00  0.000E+00  0.000E+00  4.61382E+01  2.632E-01  2.000E+01  2.000E+04 -1.441E+00
   1   16    7     1     7    2.8566E+05 -2.8655E+04   3.1432E+05  0.000E+00  0.000E+00  0.000E+00  4.56774E+01  2.796E-01  2.000E+01  2.000E+04 -1.433E+00
   1   16    8     1     8    3.1432E+05 -2.8857E+04   3.4317E+05  0.000E+00  0.000E+00  0.000E+00  4.52159E+01  2.954E-01  2.000E+01  2.000E+04 -1.443E+00
   1   16    9     1     9    3.4317E+05 -2.8972E+04   3.7215E+05  0.000E+00  0.000E+00  0.000E+00  4.47539E+01  3.107E-01  2.000E+01  2.000E+04 -1.449E+00
   1   16   10     1    10    3.7215E+05 -2.9051E+04   4.0120E+05  0.000E+00  0.000E+00  0.000E+00  4.42915E+01  3.256E-01  2.000E+01  2.000E+04 -1.453E+00
   1   16   11     1    11    4.0120E+05 -2.9719E+04   4.3092E+05  0.000E+00  0.000E+00  0.000E+00  4.38289E+01  3.403E-01  2.000E+01  2.000E+04 -1.486E+00
   1   16   12     1    12    4.3092E+05 -3.5279E+04   4.6619E+05  0.000E+00  0.000E+00  0.000E+00  4.33673E+01  3.560E-01  2.000E+01  2.000E+04 -1.764E+00
   1   15   13     1    13    4.6619E+05 -3.3740E+04   4.9994E+05  0.000E+00  0.000E+00  0.000E+00  4.29062E+01  3.722E-01  2.000E+01  2.000E+04 -1.687E+00
   1   14   14     1    14    4.9994E+05 -3.4069E+04   5.3400E+05  0.000E+00  0.000E+00  0.000E+00  4.24444E+01  3.876E-01  2.000E+01  2.000E+04 -1.703E+00
   1   13   15     1    15    5.3400E+05 -3.5924E+04   5.6993E+05  0.000E+00  0.000E+00  0.000E+00  4.19827E+01  4.032E-01  2.000E+01  2.000E+04 -1.796E+00
   1   12   16     1    16    5.6993E+05 -4.1246E+04   6.1117E+05  0.000E+00  0.000E+00  0.000E+00  4.15221E+01  4.198E-01  2.000E+01  2.000E+04 -2.062E+00
   1   12   17     1    17    6.1117E+05 -3.2175E+04   6.4335E+05  0.000E+00  0.000E+00  0.000E+00  4.10603E+01  4.353E-01  2.000E+01  2.000E+04 -1.609E+00
   1   12   18     1    18    6.4335E+05 -3.0593E+04   6.7394E+05  0.000E+00  0.000E+00  0.000E+00  4.05960E+01  4.482E-01  2.000E+01  2.000E+04 -1.530E+00
   1   12   19     1    19    6.7394E+05 -3.4438E+04   7.0838E+05  0.000E+00  0.000E+00  0.000E+00  4.01318E+01  4.614E-01  2.000E+01  2.000E+04 -1.722E+00
   1   13   20     1    20    7.0838E+05 -2.5670E+04   7.3405E+05  0.000E+00  0.000E+00  0.000E+00  3.96665E+01  4.733E-01  2.000E+01  2.000E+04 -1.284E+00
   1   14   21     1    21    7.3405E+05 -1.9188E+04   7.5324E+05  0.000E+00  0.000E+00  0.000E+00  3.91980E+01  4.821E-01  2.000E+01  2.000E+04 -9.594E-01
   1   14   22     1    22    7.5324E+05 -1.5615E+03   7.5480E+05  0.000E+00  0.000E+00  0.000E+00  3.87248E+01  4.861E-01  2.000E+01  2.000E+04 -7.808E-02
   1    9   30     2     1    5.0000E+04 -2.6114E+04   7.6114E+04  0.000E+00  0.000E+00  0.000E+00  4.02582E+01  1.332E-01  2.000E+01  2.000E+04 -1.306E+00
   1    9   29     2     2    7.6114E+04 -2.8539E+04   1.0465E+05  0.000E+00  0.000E+00  0.000E+00  4.00403E+01  1.653E-01  2.000E+01  2.000E+04 -1.427E+00
   1    9   28     2     3    1.0465E+05 -3.2700E+04   1.3735E+05  0.000E+00  0.000E+00  0.000E+00  3.98219E+01  1.969E-01  2.000E+01  2.000E+04 -1.635E+00
   1    9   27     2     4    1.3735E+05 -4.6408E+04   1.8376E+05  0.000E+00  0.000E+00  0.000E+00  3.96083E+01  2.333E-01  2.000E+01  2.000E+04 -2.320E+00
   1   10   26     2     5    1.8376E+05 -3.2300E+04   2.1606E+05  0.000E+00  0.000E+00  0.000E+00  3.93911E+01  2.661E-01  2.000E+01  2.000E+04 -1.615E+00
   1   11   25     2     6    2.1606E+05 -2.3945E+04   2.4001E+05  0.000E+00  0.000E+00  0.000E+00  3.91630E+01  2.880E-01  2.000E+01  2.000E+04 -1.197E+00
   1   12   24     2     7    2.4001E+05 -1.7493E+04   2.5750E+05  0.000E+00  0.000E+00  0.000E+00  3.89284E+01  3.034E-01  2.000E+01  2.000E+04 -8.747E-01
   1   13   23     2     8    2.5750E+05 -1.2410E+04   2.6991E+05  0.000E+00  0.000E+00  0.000E+00  3.86892E+01  3.142E-01  2.000E+01  2.000E+04 -6.205E-01
   1   14   22     2     9    2.6991E+05 -7.1336E+03   2.7704E+05  0.000E+00  0.000E+00  0.000E+00  3.84462E+01  3.212E-01  2.000E+01  2.000E+04 -3.567E-01
   1   14   22     3     1    1.0318E+06 -1.5164E+04   1.0470E+06  0.000E+00  0.000E+00  0.000E+00  3.80446E+01  4.891E-01  2.000E+01  2.000E+04 -7.582E-01
   1   15   23     3     2    1.0470E+06 -2.3452E+04   1.0705E+06  0.000E+00  0.000E+00  0.000E+00  3.71612E+01  4.945E-01  2.000E+01  2.000E+04 -1.173E+00
   1   15   24     3     3    1.0705E+06 -1.9523E+04   1.0900E+06  0.000E+00  0.000E+00  0.000E+00  3.62783E+01  5.005E-01  2.000E+01  2.000E+04 -9.761E-01
   1   15   25     3     4    1.0900E+06 -1.9121E+04   1.1091E+06  0.000E+00  0.000E+00  0.000E+00  3.53947E+01  5.059E-01  2.000E+01  2.000E+04 -9.560E-01
   1   15   26     3     5    1.1091E+06 -2.1842E+04   1.1309E+06  0.000E+00  0.000E+00  0.000E+00  3.45115E+01  5.115E-01  2.000E+01  2.000E+04 -1.092E+00
   1   16   27     3     6    1.1309E+06 -2.9002E+04   1.1599E+06  0.000E+00  0.000E+00  0.000E+00  3.36295E+01  5.184E-01  2.000E+01  2.000E+04 -1.450E+00
   1   17   28     3     7    1.1599E+06 -3.6071E+04   1.1960E+06  0.000E+00  0.000E+00  0.000E+00  3.27494E+01  5.272E-01  2.000E+01  2.000E+04 -1.804E+00
   1   18   29     3     8    1.1960E+06 -4.7089E+04   1.2431E+06  0.000E+00  0.000E+00  0.000E+00  3.18716E+01  5.383E-01  2.000E+01  2.000E+04 -2.354E+00
   1   18   30     3     9    1.2431E+06 -4.3546E+04   1.2867E+06  0.000E+00  0.000E+00  0.000E+00  3.09947E+01  5.502E-01  2.000E+01  2.000E+04 -2.177E+00



1
              HEAD IN LAYER   1 AT END OF TIME STEP   1 IN STRESS PERIOD    3
  ---------------------------------------------------------------------------

          1      2      3      4      5      6      7      8      9     10
         11     12     13     14     15     16     17     18     19     20
         21     22     23     24     25     26     27     28     29     30
 .........................................................................
   1  ****** ****** ****** ****** ****** ****** ****** ****** ****** ******
      ****** ****** ****** ****** ****** ****** ****** ****** ****** ******
      ****** ****** ****** ****** ****** ****** ****** ****** ****** ******
   2  ****** ****** ****** ****** ****** ****** ****** ****** ****** ******
      ****** ****** ****** ****** ****** ****** ****** ****** ****** ******
      ****** ****** ****** ****** ****** ****** ****** ****** ****** ******
   3  ****** ****** ****** ****** ****** ****** ****** ****** ****** ******
      ****** ****** ****** ****** ****** ****** ****** ****** ****** ******
      ****** ****** ****** ****** ****** ****** ****** ****** ****** ******
   4  ****** ****** ****** ****** ****** ****** ****** ****** ****** ******
      ****** ****** ****** ****** ****** ****** ****** ****** ****** ******
      ****** ****** ****** ****** ****** ****** ****** ****** ****** ******
   5  ****** ****** ****** ****** ****** ****** ****** ****** ****** ******
      ****** ****** ****** ****** ****** ****** ****** ****** ****** ******
      ****** ****** ****** ****** ****** ****** ****** ****** ****** ******
   6  ****** ****** ****** ****** ****** ****** ****** ****** ****** ******
      ****** ****** ****** ****** ****** ****** ****** ****** ****** ******
      ****** ****** ****** ****** ****** ****** ****** ****** ****** ******
   7  ****** ****** ****** ****** ****** ****** ****** ****** ****** ******
      ****** ****** ****** ****** ****** ****** ****** ****** ****** ******
      ****** ****** ****** ****** ****** ****** ****** ****** ****** ******
   8  ****** ****** ****** ****** ****** ****** ****** ****** ****** ******
      ****** ****** ****** ****** ****** ****** ****** ****** ****** ******
      ****** ****** ****** ****** ****** ****** ****** ****** ****** ******
   9  ****** ****** ****** ****** ****** ****** ****** ****** ****** ******
      ****** ****** ****** ****** ****** ****** ****** ****** ****** ******
      ****** ****** ****** ****** ****** ****** ****** ****** ****** ******
  10  ****** ****** ****** ****** ****** ****** ****** ****** ****** ******
      ****** ****** ****** ****** ****** ****** ****** ****** ****** ******
      ****** ****** ****** ****** ****** ****** ****** ****** ****** ******
  11  ****** ****** ****** ****** ****** ****** ****** ****** ****** ******
      ****** ****** ****** ****** ****** ****** ****** ****** ****** ******
      ****** ****** ****** ****** ****** ****** ****** ****** ****** ******
  12  ****** ****** ****** ****** ****** ****** ****** ****** ****** ******
      ****** ****** ****** ****** ****** ****** ****** ****** ****** ******
      ****** ****** ****** ****** ****** ****** ****** ****** ****** ******
  13  ****** ****** ****** ****** ****** ****** ****** ****** ****** ******
      ****** ****** ****** ****** ****** ****** ****** ****** ****** ******
      ****** ****** ****** ****** ****** ****** ****** ****** ****** ******
  14  ****** ****** ****** ****** ****** ****** ****** ****** ****** ******
      ****** ****** ****** ****** ****** ****** ****** ****** ****** ******
      ****** ****** ****** ****** ****** ****** ****** ****** ****** ******
  15  ****** ****** ****** ****** ****** ****** ****** ****** ****** ******
      ****** ****** ****** ****** ****** ****** ****** ****** ****** ******
      ****** ****** ****** ****** ****** ****** ****** ****** ****** ******
  16  ****** ****** ****** ****** ****** ****** ****** ****** ****** ******
      ****** ****** ****** ****** ****** ****** ****** ****** ****** ******
      ****** ****** ****** ****** ****** ****** ****** ****** ****** ******
  17  ****** ****** ****** ****** ****** ****** ****** ****** ****** ******
      ****** ****** ****** ****** ****** ****** ****** ****** ****** ******
      ****** ****** ****** ****** ****** ****** ****** ****** ****** ******
  18  ****** ****** ****** ****** ****** ****** ****** ****** ****** ******
      ****** ****** ****** ****** ****** ****** ****** ****** ****** ******
      ****** ****** ****** ****** ****** ****** ****** ****** ****** ******
  19  ****** ****** ****** ****** ****** ****** ****** ****** ****** ******
      ****** ****** ****** ****** ****** ****** ****** ****** ****** ******
      ****** ****** ****** ****** ****** ****** ****** ****** ****** ******
  20  ****** ****** ****** ****** ****** ****** ****** ****** ****** ******
      ****** ****** ****** ****** ****** ****** ****** ****** ****** ******
      ****** ****** ****** ****** ****** ****** ****** ****** ****** ******
  21  ****** ****** ****** ****** ****** ****** ****** ****** ****** ******
      ****** ****** ****** ****** ****** ****** ****** ****** ****** ******
      ****** ****** ****** ****** ****** ****** ****** ****** ****** ******
  22  ****** ****** ****** ****** ****** ****** ****** ****** ****** ******
      ****** ****** ****** ****** ****** ****** ****** ****** ****** ******
      ****** ****** ****** ****** ****** ****** ****** ****** ****** ******
  23  ****** ****** ****** ****** ****** ****** ****** ****** ****** ******
      ****** ****** ****** ****** ****** ****** ****** ****** ****** ******
      ****** ****** ****** ****** ****** ****** ****** ****** ****** ******
  24  ****** ****** ****** ****** ****** ****** ****** ****** ****** ******
      ****** ****** ****** ****** ****** ****** ****** ****** ****** ******
      ****** ****** ****** ****** ****** ****** ****** ****** ****** ******
  25  ****** ****** ****** ****** ****** ****** ****** ****** ****** ******
      ****** ****** ****** ****** ****** ****** ****** ****** ****** ******
      ****** ****** ****** ****** ****** ****** ****** ****** ****** ******

 HEAD WILL BE SAVED ON UNIT   51 AT END OF TIME STEP    1, STRESS PERIOD    3
1
  VOLUMETRIC BUDGET FOR ENTIRE MODEL AT END OF TIME STEP    1, STRESS PERIOD   3
  ------------------------------------------------------------------------------

     CUMULATIVE VOLUMES      L**3       RATES FOR THIS TIME STEP      L**3/T
     ------------------                 ------------------------

           IN:                                      IN:
           ---                                      ---
             STORAGE =    20378249.4049               STORAGE =        3974.5035
       CONSTANT HEAD =   324015277.4307         CONSTANT HEAD =     1212902.9697
               WELLS =           0.0000                 WELLS =           0.0000
            RECHARGE =     6292800.0000              RECHARGE =           0.0000
      STREAM LEAKAGE =           0.0000        STREAM LEAKAGE =           0.0000

            TOTAL IN =   350686326.8355              TOTAL IN =     1216877.4732

          OUT:                                     OUT:
          ----                                     ----
             STORAGE =       44008.6638               STORAGE =         223.5913
       CONSTANT HEAD =           0.0000         CONSTANT HEAD =           0.0000
               WELLS =    21920000.0000                 WELLS =       80000.0000
            RECHARGE =           0.0000              RECHARGE =           0.0000
      STREAM LEAKAGE =   328722326.6365        STREAM LEAKAGE =     1136653.9365

           TOTAL OUT =   350686335.3003             TOTAL OUT =     1216877.5277

            IN - OUT =          -8.4648              IN - OUT =      -5.4558E-02

 PERCENT DISCREPANCY =          -0.00     PERCENT DISCREPANCY =          -0.00






         TIME SUMMARY AT END OF TIME STEP    1 IN STRESS PERIOD    3
                    SECONDS     MINUTES      HOURS       DAYS        YEARS
                    -----------------------------------------------------------
   TIME STEP LENGTH 7.86240E+06 1.31040E+05  2184.0      91.000     0.24914    
 STRESS PERIOD TIME 7.86240E+06 1.31040E+05  2184.0      91.000     0.24914    
         TOTAL TIME 2.36736E+07 3.94560E+05  6576.0      274.00     0.75017    
1
1
                            STRESS PERIOD NO.    4, LENGTH =   91.00000    
                            -----------------------------------------------

                              NUMBER OF TIME STEPS =     1

                               MULTIPLIER FOR DELT =     1.500

                            INITIAL TIME STEP SIZE =   91.00000    

 WELL NO.  LAYER   ROW   COL   STRESS RATE         
 --------------------------------------------------
      1      1      5     18     -0.5000E+05
      2      1      5      2     -0.2641E+05
      3      1     23      5      -3589.    

      3 WELLS

                 RECHARGE =  1.000000E-03

 REUSING STREAM SEGMENT DATA FROM LAST STRESS PERIOD
 
 SOLVING FOR HEAD 


     6 CALLS TO PCG ROUTINE FOR TIME STEP   1 IN STRESS PERIOD    4
    22 TOTAL ITERATIONS

 OUTPUT CONTROL FOR STRESS PERIOD    4   TIME STEP    1
    SAVE BUDGET
    SAVE HEAD FOR ALL LAYERS
    PRINT HEAD FOR ALL LAYERS
 UBDSV2 SAVING "STREAMFLOW OUT  " ON UNIT  50 AT TIME STEP  1, STRESS PERIOD   4



 STREAM LISTING     PERIOD      4   STEP        1

 LAYER ROW COL. STREAM  RCH.  FLOW INTO     FLOW TO   FLOW OUT OF   OVRLND.     DIRECT     STREAM       STREAM     STREAM     STREAM   STREAMBED  STREAMBED
                SEG.NO.  NO.  STRM. RCH.    AQUIFER    STRM. RCH.    RUNOFF     PRECIP       ET          HEAD       DEPTH      WIDTH   CONDCTNC.   GRADIENT

   1   13    1     1     1    1.0000E+05 -2.6366E+04   1.2637E+05  0.000E+00  0.000E+00  0.000E+00  4.84172E+01  1.558E-01  2.000E+01  2.000E+04 -1.318E+00
   1   13    2     1     2    1.2637E+05 -3.5808E+04   1.6217E+05  0.000E+00  0.000E+00  0.000E+00  4.79643E+01  1.802E-01  2.000E+01  2.000E+04 -1.790E+00
   1   14    3     1     3    1.6217E+05 -3.1951E+04   1.9413E+05  0.000E+00  0.000E+00  0.000E+00  4.75114E+01  2.045E-01  2.000E+01  2.000E+04 -1.598E+00
   1   15    4     1     4    1.9413E+05 -3.1562E+04   2.2569E+05  0.000E+00  0.000E+00  0.000E+00  4.70552E+01  2.257E-01  2.000E+01  2.000E+04 -1.578E+00
   1   16    5     1     5    2.2569E+05 -3.3390E+04   2.5908E+05  0.000E+00  0.000E+00  0.000E+00  4.65983E+01  2.461E-01  2.000E+01  2.000E+04 -1.669E+00
   1   16    6     1     6    2.5908E+05 -2.9131E+04   2.8821E+05  0.000E+00  0.000E+00  0.000E+00  4.61396E+01  2.646E-01  2.000E+01  2.000E+04 -1.457E+00
   1   16    7     1     7    2.8821E+05 -2.8961E+04   3.1717E+05  0.000E+00  0.000E+00  0.000E+00  4.56789E+01  2.811E-01  2.000E+01  2.000E+04 -1.448E+00
   1   16    8     1     8    3.1717E+05 -2.9171E+04   3.4634E+05  0.000E+00  0.000E+00  0.000E+00  4.52175E+01  2.970E-01  2.000E+01  2.000E+04 -1.459E+00
   1   16    9     1     9    3.4634E+05 -2.9293E+04   3.7563E+05  0.000E+00  0.000E+00  0.000E+00  4.47557E+01  3.125E-01  2.000E+01  2.000E+04 -1.465E+00
   1   16   10     1    10    3.7563E+05 -2.9376E+04   4.0501E+05  0.000E+00  0.000E+00  0.000E+00  4.42934E+01  3.275E-01  2.000E+01  2.000E+04 -1.469E+00
   1   16   11     1    11    4.0501E+05 -3.0053E+04   4.3506E+05  0.000E+00  0.000E+00  0.000E+00  4.38308E+01  3.422E-01  2.000E+01  2.000E+04 -1.503E+00
   1   16   12     1    12    4.3506E+05 -3.5671E+04   4.7073E+05  0.000E+00  0.000E+00  0.000E+00  4.33694E+01  3.580E-01  2.000E+01  2.000E+04 -1.784E+00
   1   15   13     1    13    4.7073E+05 -3.4182E+04   5.0492E+05  0.000E+00  0.000E+00  0.000E+00  4.29084E+01  3.744E-01  2.000E+01  2.000E+04 -1.709E+00
   1   14   14     1    14    5.0492E+05 -3.4527E+04   5.3944E+05  0.000E+00  0.000E+00  0.000E+00  4.24468E+01  3.900E-01  2.000E+01  2.000E+04 -1.726E+00
   1   13   15     1    15    5.3944E+05 -3.6378E+04   5.7582E+05  0.000E+00  0.000E+00  0.000E+00  4.19852E+01  4.056E-01  2.000E+01  2.000E+04 -1.819E+00
   1   12   16     1    16    5.7582E+05 -4.1683E+04   6.1750E+05  0.000E+00  0.000E+00  0.000E+00  4.15247E+01  4.224E-01  2.000E+01  2.000E+04 -2.084E+00
   1   12   17     1    17    6.1750E+05 -3.2528E+04   6.5003E+05  0.000E+00  0.000E+00  0.000E+00  4.10630E+01  4.380E-01  2.000E+01  2.000E+04 -1.626E+00
   1   12   18     1    18    6.5003E+05 -3.0931E+04   6.8096E+05  0.000E+00  0.000E+00  0.000E+00  4.05988E+01  4.510E-01  2.000E+01  2.000E+04 -1.547E+00
   1   12   19     1    19    6.8096E+05 -3.4809E+04   7.1577E+05  0.000E+00  0.000E+00  0.000E+00  4.01347E+01  4.643E-01  2.000E+01  2.000E+04 -1.740E+00
   1   13   20     1    20    7.1577E+05 -2.6020E+04   7.4179E+05  0.000E+00  0.000E+00  0.000E+00  3.96695E+01  4.763E-01  2.000E+01  2.000E+04 -1.301E+00
   1   14   21     1    21    7.4179E+05 -1.9490E+04   7.6128E+05  0.000E+00  0.000E+00  0.000E+00  3.92011E+01  4.852E-01  2.000E+01  2.000E+04 -9.745E-01
   1   14   22     1    22    7.6128E+05 -1.6697E+03   7.6295E+05  0.000E+00  0.000E+00  0.000E+00  3.87279E+01  4.893E-01  2.000E+01  2.000E+04 -8.349E-02
   1    9   30     2     1    5.0000E+04 -2.6393E+04   7.6393E+04  0.000E+00  0.000E+00  0.000E+00  4.02583E+01  1.333E-01  2.000E+01  2.000E+04 -1.320E+00
   1    9   29     2     2    7.6393E+04 -2.8816E+04   1.0521E+05  0.000E+00  0.000E+00  0.000E+00  4.00407E+01  1.657E-01  2.000E+01  2.000E+04 -1.441E+00
   1    9   28     2     3    1.0521E+05 -3.2986E+04   1.3820E+05  0.000E+00  0.000E+00  0.000E+00  3.98226E+01  1.976E-01  2.000E+01  2.000E+04 -1.649E+00
   1    9   27     2     4    1.3820E+05 -4.6756E+04   1.8495E+05  0.000E+00  0.000E+00  0.000E+00  3.96092E+01  2.342E-01  2.000E+01  2.000E+04 -2.338E+00
   1   10   26     2     5    1.8495E+05 -3.2662E+04   2.1761E+05  0.000E+00  0.000E+00  0.000E+00  3.93922E+01  2.672E-01  2.000E+01  2.000E+04 -1.633E+00
   1   11   25     2     6    2.1761E+05 -2.4294E+04   2.4191E+05  0.000E+00  0.000E+00  0.000E+00  3.91643E+01  2.893E-01  2.000E+01  2.000E+04 -1.215E+00
   1   12   24     2     7    2.4191E+05 -1.7806E+04   2.5971E+05  0.000E+00  0.000E+00  0.000E+00  3.89299E+01  3.049E-01  2.000E+01  2.000E+04 -8.903E-01
   1   13   23     2     8    2.5971E+05 -1.2664E+04   2.7238E+05  0.000E+00  0.000E+00  0.000E+00  3.86909E+01  3.159E-01  2.000E+01  2.000E+04 -6.332E-01
   1   14   22     2     9    2.7238E+05 -7.2687E+03   2.7964E+05  0.000E+00  0.000E+00  0.000E+00  3.84479E+01  3.229E-01  2.000E+01  2.000E+04 -3.634E-01
   1   14   22     3     1    1.0426E+06 -1.5274E+04   1.0579E+06  0.000E+00  0.000E+00  0.000E+00  3.80477E+01  4.921E-01  2.000E+01  2.000E+04 -7.637E-01
   1   15   23     3     2    1.0579E+06 -2.3735E+04   1.0816E+06  0.000E+00  0.000E+00  0.000E+00  3.71643E+01  4.976E-01  2.000E+01  2.000E+04 -1.187E+00
   1   15   24     3     3    1.0816E+06 -1.9759E+04   1.1014E+06  0.000E+00  0.000E+00  0.000E+00  3.62814E+01  5.036E-01  2.000E+01  2.000E+04 -9.880E-01
   1   15   25     3     4    1.1014E+06 -1.9357E+04   1.1207E+06  0.000E+00  0.000E+00  0.000E+00  3.53979E+01  5.090E-01  2.000E+01  2.000E+04 -9.679E-01
   1   15   26     3     5    1.1207E+06 -2.2118E+04   1.1428E+06  0.000E+00  0.000E+00  0.000E+00  3.45147E+01  5.147E-01  2.000E+01  2.000E+04 -1.106E+00
   1   16   27     3     6    1.1428E+06 -2.9335E+04   1.1722E+06  0.000E+00  0.000E+00  0.000E+00  3.36328E+01  5.217E-01  2.000E+01  2.000E+04 -1.467E+00
   1   17   28     3     7    1.1722E+06 -3.6411E+04   1.2086E+06  0.000E+00  0.000E+00  0.000E+00  3.27528E+01  5.305E-01  2.000E+01  2.000E+04 -1.821E+00
   1   18   29     3     8    1.2086E+06 -4.7409E+04   1.2560E+06  0.000E+00  0.000E+00  0.000E+00  3.18750E+01  5.417E-01  2.000E+01  2.000E+04 -2.370E+00
   1   18   30     3     9    1.2560E+06 -4.3813E+04   1.2998E+06  0.000E+00  0.000E+00  0.000E+00  3.09980E+01  5.536E-01  2.000E+01  2.000E+04 -2.191E+00



1
              HEAD IN LAYER   1 AT END OF TIME STEP   1 IN STRESS PERIOD    4
  ---------------------------------------------------------------------------

          1      2      3      4      5      6      7      8      9     10
         11     12     13     14     15     16     17     18     19     20
         21     22     23     24     25     26     27     28     29     30
 .........................................................................
   1  ****** ****** ****** ****** ****** ****** ****** ****** ****** ******
      ****** ****** ****** ****** ****** ****** ****** ****** ****** ******
      ****** ****** ****** ****** ****** ****** ****** ****** ****** ******
   2  ****** ****** ****** ****** ****** ****** ****** ****** ****** ******
      ****** ****** ****** ****** ****** ****** ****** ****** ****** ******
      ****** ****** ****** ****** ****** ****** ****** ****** ****** ******
   3  ****** ****** ****** ****** ****** ****** ****** ****** ****** ******
      ****** ****** ****** ****** ****** ****** ****** ****** ****** ******
      ****** ****** ****** ****** ****** ****** ****** ****** ****** ******
   4  ****** ****** ****** ****** ****** ****** ****** ****** ****** ******
      ****** ****** ****** ****** ****** ****** ****** ****** ****** ******
      ****** ****** ****** ****** ****** ****** ****** ****** ****** ******
   5  ****** ****** ****** ****** ****** ****** ****** ****** ****** ******
      ****** ****** ****** ****** ****** ****** ****** ****** ****** ******
      ****** ****** ****** ****** ****** ****** ****** ****** ****** ******
   6  ****** ****** ****** ****** ****** ****** ****** ****** ****** ******
      ****** ****** ****** ****** ****** ****** ****** ****** ****** ******
      ****** ****** ****** ****** ****** ****** ****** ****** ****** ******
   7  ****** ****** ****** ****** ****** ****** ****** ****** ****** ******
      ****** ****** ****** ****** ****** ****** ****** ****** ****** ******
      ****** ****** ****** ****** ****** ****** ****** ****** ****** ******
   8  ****** ****** ****** ****** ****** ****** ****** ****** ****** ******
      ****** ****** ****** ****** ****** ****** ****** ****** ****** ******
      ****** ****** ****** ****** ****** ****** ****** ****** ****** ******
   9  ****** ****** ****** ****** ****** ****** ****** ****** ****** ******
      ****** ****** ****** ****** ****** ****** ****** ****** ****** ******
      ****** ****** ****** ****** ****** ****** ****** ****** ****** ******
  10  ****** ****** ****** ****** ****** ****** ****** ****** ****** ******
      ****** ****** ****** ****** ****** ****** ****** ****** ****** ******
      ****** ****** ****** ****** ****** ****** ****** ****** ****** ******
  11  ****** ****** ****** ****** ****** ****** ****** ****** ****** ******
      ****** ****** ****** ****** ****** ****** ****** ****** ****** ******
      ****** ****** ****** ****** ****** ****** ****** ****** ****** ******
  12  ****** ****** ****** ****** ****** ****** ****** ****** ****** ******
      ****** ****** ****** ****** ****** ****** ****** ****** ****** ******
      ****** ****** ****** ****** ****** ****** ****** ****** ****** ******
  13  ****** ****** ****** ****** ****** ****** ****** ****** ****** ******
      ****** ****** ****** ****** ****** ****** ****** ****** ****** ******
      ****** ****** ****** ****** ****** ****** ****** ****** ****** ******
  14  ****** ****** ****** ****** ****** ****** ****** ****** ****** ******
      ****** ****** ****** ****** ****** ****** ****** ****** ****** ******
      ****** ****** ****** ****** ****** ****** ****** ****** ****** ******
  15  ****** ****** ****** ****** ****** ****** ****** ****** ****** ******
      ****** ****** ****** ****** ****** ****** ****** ****** ****** ******
      ****** ****** ****** ****** ****** ****** ****** ****** ****** ******
  16  ****** ****** ****** ****** ****** ****** ****** ****** ****** ******
      ****** ****** ****** ****** ****** ****** ****** ****** ****** ******
      ****** ****** ****** ****** ****** ****** ****** ****** ****** ******
  17  ****** ****** ****** ****** ****** ****** ****** ****** ****** ******
      ****** ****** ****** ****** ****** ****** ****** ****** ****** ******
      ****** ****** ****** ****** ****** ****** ****** ****** ****** ******
  18  ****** ****** ****** ****** ****** ****** ****** ****** ****** ******
      ****** ****** ****** ****** ****** ****** ****** ****** ****** ******
      ****** ****** ****** ****** ****** ****** ****** ****** ****** ******
  19  ****** ****** ****** ****** ****** ****** ****** ****** ****** ******
      ****** ****** ****** ****** ****** ****** ****** ****** ****** ******
      ****** ****** ****** ****** ****** ****** ****** ****** ****** ******
  20  ****** ****** ****** ****** ****** ****** ****** ****** ****** ******
      ****** ****** ****** ****** ****** ****** ****** ****** ****** ******
      ****** ****** ****** ****** ****** ****** ****** ****** ****** ******
  21  ****** ****** ****** ****** ****** ****** ****** ****** ****** ******
      ****** ****** ****** ****** ****** ****** ****** ****** ****** ******
      ****** ****** ****** ****** ****** ****** ****** ****** ****** ******
  22  ****** ****** ****** ****** ****** ****** ****** ****** ****** ******
      ****** ****** ****** ****** ****** ****** ****** ****** ****** ******
      ****** ****** ****** ****** ****** ****** ****** ****** ****** ******
  23  ****** ****** ****** ****** ****** ****** ****** ****** ****** ******
      ****** ****** ****** ****** ****** ****** ****** ****** ****** ******
      ****** ****** ****** ****** ****** ****** ****** ****** ****** ******
  24  ****** ****** ****** ****** ****** ****** ****** ****** ****** ******
      ****** ****** ****** ****** ****** ****** ****** ****** ****** ******
      ****** ****** ****** ****** ****** ****** ****** ****** ****** ******
  25  ****** ****** ****** ****** ****** ****** ****** ****** ****** ******
      ****** ****** ****** ****** ****** ****** ****** ****** ****** ******
      ****** ****** ****** ****** ****** ****** ****** ****** ****** ******

 HEAD WILL BE SAVED ON UNIT   51 AT END OF TIME STEP    1, STRESS PERIOD    4
1
  VOLUMETRIC BUDGET FOR ENTIRE MODEL AT END OF TIME STEP    1, STRESS PERIOD   4
  ------------------------------------------------------------------------------

     CUMULATIVE VOLUMES      L**3       RATES FOR THIS TIME STEP      L**3/T
     ------------------                 ------------------------

           IN:                                      IN:
           ---                                      ---
             STORAGE =    20380060.0403               STORAGE =          19.8971
       CONSTANT HEAD =   433527351.6902         CONSTANT HEAD =     1203429.3875
               WELLS =           0.0000                 WELLS =           0.0000
            RECHARGE =     8804400.0000              RECHARGE =       27600.0000
      STREAM LEAKAGE =           0.0000        STREAM LEAKAGE =           0.0000

            TOTAL IN =   462711811.7306              TOTAL IN =     1231049.2846

          OUT:                                     OUT:
          ----                                     ----
             STORAGE =      156795.8355               STORAGE =        1239.4195
       CONSTANT HEAD =           0.0000         CONSTANT HEAD =           0.0000
               WELLS =    29200000.0000                 WELLS =       80000.0000
            RECHARGE =           0.0000              RECHARGE =           0.0000
      STREAM LEAKAGE =   433355022.3741        STREAM LEAKAGE =     1149809.8433

           TOTAL OUT =   462711818.2096             TOTAL OUT =     1231049.2627

            IN - OUT =          -6.4791              IN - OUT =       2.1821E-02

 PERCENT DISCREPANCY =          -0.00     PERCENT DISCREPANCY =           0.00






         TIME SUMMARY AT END OF TIME STEP    1 IN STRESS PERIOD    4
                    SECONDS     MINUTES      HOURS       DAYS        YEARS
                    -----------------------------------------------------------
   TIME STEP LENGTH 7.86240E+06 1.31040E+05  2184.0      91.000     0.24914    
 STRESS PERIOD TIME 7.86240E+06 1.31040E+05  2184.0      91.000     0.24914    
         TOTAL TIME 3.15360E+07 5.25600E+05  8760.0      365.00     0.99932    
1
1
                            STRESS PERIOD NO.    5, LENGTH =   92.00000    
                            -----------------------------------------------

                              NUMBER OF TIME STEPS =     1

                               MULTIPLIER FOR DELT =     1.500

                            INITIAL TIME STEP SIZE =   92.00000    

 WELL NO.  LAYER   ROW   COL   STRESS RATE         
 --------------------------------------------------
      1      1      5     18     -0.5000E+05
      2      1      5      2     -0.3000E+05

      2 WELLS

                 RECHARGE =  5.000000E-04

 REUSING STREAM SEGMENT DATA FROM LAST STRESS PERIOD
 
 SOLVING FOR HEAD 


     5 CALLS TO PCG ROUTINE FOR TIME STEP   1 IN STRESS PERIOD    5
    20 TOTAL ITERATIONS

 OUTPUT CONTROL FOR STRESS PERIOD    5   TIME STEP    1
    SAVE BUDGET
    SAVE HEAD FOR ALL LAYERS
    PRINT HEAD FOR ALL LAYERS
 UBDSV2 SAVING "STREAMFLOW OUT  " ON UNIT  50 AT TIME STEP  1, STRESS PERIOD   5



 STREAM LISTING     PERIOD      5   STEP        1

 LAYER ROW COL. STREAM  RCH.  FLOW INTO     FLOW TO   FLOW OUT OF   OVRLND.     DIRECT     STREAM       STREAM     STREAM     STREAM   STREAMBED  STREAMBED
                SEG.NO.  NO.  STRM. RCH.    AQUIFER    STRM. RCH.    RUNOFF     PRECIP       ET          HEAD       DEPTH      WIDTH   CONDCTNC.   GRADIENT

   1   13    1     1     1    1.0000E+05 -2.6034E+04   1.2603E+05  0.000E+00  0.000E+00  0.000E+00  4.84170E+01  1.557E-01  2.000E+01  2.000E+04 -1.302E+00
   1   13    2     1     2    1.2603E+05 -3.5408E+04   1.6144E+05  0.000E+00  0.000E+00  0.000E+00  4.79639E+01  1.798E-01  2.000E+01  2.000E+04 -1.770E+00
   1   14    3     1     3    1.6144E+05 -3.1653E+04   1.9310E+05  0.000E+00  0.000E+00  0.000E+00  4.75108E+01  2.039E-01  2.000E+01  2.000E+04 -1.583E+00
   1   15    4     1     4    1.9310E+05 -3.1340E+04   2.2444E+05  0.000E+00  0.000E+00  0.000E+00  4.70545E+01  2.250E-01  2.000E+01  2.000E+04 -1.567E+00
   1   16    5     1     5    2.2444E+05 -3.3259E+04   2.5769E+05  0.000E+00  0.000E+00  0.000E+00  4.65975E+01  2.452E-01  2.000E+01  2.000E+04 -1.663E+00
   1   16    6     1     6    2.5769E+05 -2.8996E+04   2.8669E+05  0.000E+00  0.000E+00  0.000E+00  4.61388E+01  2.638E-01  2.000E+01  2.000E+04 -1.450E+00
   1   16    7     1     7    2.8669E+05 -2.8816E+04   3.1551E+05  0.000E+00  0.000E+00  0.000E+00  4.56780E+01  2.803E-01  2.000E+01  2.000E+04 -1.441E+00
   1   16    8     1     8    3.1551E+05 -2.9017E+04   3.4452E+05  0.000E+00  0.000E+00  0.000E+00  4.52166E+01  2.961E-01  2.000E+01  2.000E+04 -1.451E+00
   1   16    9     1     9    3.4452E+05 -2.9132E+04   3.7365E+05  0.000E+00  0.000E+00  0.000E+00  4.47547E+01  3.115E-01  2.000E+01  2.000E+04 -1.457E+00
   1   16   10     1    10    3.7365E+05 -2.9210E+04   4.0286E+05  0.000E+00  0.000E+00  0.000E+00  4.42923E+01  3.264E-01  2.000E+01  2.000E+04 -1.461E+00
   1   16   11     1    11    4.0286E+05 -2.9882E+04   4.3275E+05  0.000E+00  0.000E+00  0.000E+00  4.38298E+01  3.411E-01  2.000E+01  2.000E+04 -1.494E+00
   1   16   12     1    12    4.3275E+05 -3.5472E+04   4.6822E+05  0.000E+00  0.000E+00  0.000E+00  4.33683E+01  3.569E-01  2.000E+01  2.000E+04 -1.774E+00
   1   15   13     1    13    4.6822E+05 -3.3943E+04   5.0216E+05  0.000E+00  0.000E+00  0.000E+00  4.29072E+01  3.731E-01  2.000E+01  2.000E+04 -1.697E+00
   1   14   14     1    14    5.0216E+05 -3.4274E+04   5.3644E+05  0.000E+00  0.000E+00  0.000E+00  4.24455E+01  3.887E-01  2.000E+01  2.000E+04 -1.714E+00
   1   13   15     1    15    5.3644E+05 -3.6124E+04   5.7256E+05  0.000E+00  0.000E+00  0.000E+00  4.19838E+01  4.043E-01  2.000E+01  2.000E+04 -1.806E+00
   1   12   16     1    16    5.7256E+05 -4.1437E+04   6.1400E+05  0.000E+00  0.000E+00  0.000E+00  4.15233E+01  4.210E-01  2.000E+01  2.000E+04 -2.072E+00
   1   12   17     1    17    6.1400E+05 -3.2335E+04   6.4633E+05  0.000E+00  0.000E+00  0.000E+00  4.10615E+01  4.365E-01  2.000E+01  2.000E+04 -1.617E+00
   1   12   18     1    18    6.4633E+05 -3.0750E+04   6.7708E+05  0.000E+00  0.000E+00  0.000E+00  4.05972E+01  4.495E-01  2.000E+01  2.000E+04 -1.537E+00
   1   12   19     1    19    6.7708E+05 -3.4612E+04   7.1169E+05  0.000E+00  0.000E+00  0.000E+00  4.01331E+01  4.627E-01  2.000E+01  2.000E+04 -1.731E+00
   1   13   20     1    20    7.1169E+05 -2.5839E+04   7.3753E+05  0.000E+00  0.000E+00  0.000E+00  3.96678E+01  4.747E-01  2.000E+01  2.000E+04 -1.292E+00
   1   14   21     1    21    7.3753E+05 -1.9336E+04   7.5687E+05  0.000E+00  0.000E+00  0.000E+00  3.91994E+01  4.835E-01  2.000E+01  2.000E+04 -9.668E-01
   1   14   22     1    22    7.5687E+05 -1.6152E+03   7.5848E+05  0.000E+00  0.000E+00  0.000E+00  3.87262E+01  4.875E-01  2.000E+01  2.000E+04 -8.076E-02
   1    9   30     2     1    5.0000E+04 -2.6251E+04   7.6251E+04  0.000E+00  0.000E+00  0.000E+00  4.02583E+01  1.333E-01  2.000E+01  2.000E+04 -1.313E+00
   1    9   29     2     2    7.6251E+04 -2.8675E+04   1.0493E+05  0.000E+00  0.000E+00  0.000E+00  4.00405E+01  1.655E-01  2.000E+01  2.000E+04 -1.434E+00
   1    9   28     2     3    1.0493E+05 -3.2840E+04   1.3777E+05  0.000E+00  0.000E+00  0.000E+00  3.98222E+01  1.972E-01  2.000E+01  2.000E+04 -1.642E+00
   1    9   27     2     4    1.3777E+05 -4.6577E+04   1.8434E+05  0.000E+00  0.000E+00  0.000E+00  3.96088E+01  2.338E-01  2.000E+01  2.000E+04 -2.329E+00
   1   10   26     2     5    1.8434E+05 -3.2476E+04   2.1682E+05  0.000E+00  0.000E+00  0.000E+00  3.93917E+01  2.667E-01  2.000E+01  2.000E+04 -1.624E+00
   1   11   25     2     6    2.1682E+05 -2.4114E+04   2.4093E+05  0.000E+00  0.000E+00  0.000E+00  3.91636E+01  2.886E-01  2.000E+01  2.000E+04 -1.206E+00
   1   12   24     2     7    2.4093E+05 -1.7644E+04   2.5858E+05  0.000E+00  0.000E+00  0.000E+00  3.89291E+01  3.041E-01  2.000E+01  2.000E+04 -8.822E-01
   1   13   23     2     8    2.5858E+05 -1.2533E+04   2.7111E+05  0.000E+00  0.000E+00  0.000E+00  3.86900E+01  3.150E-01  2.000E+01  2.000E+04 -6.266E-01
   1   14   22     2     9    2.7111E+05 -7.1983E+03   2.7831E+05  0.000E+00  0.000E+00  0.000E+00  3.84470E+01  3.220E-01  2.000E+01  2.000E+04 -3.599E-01
   1   14   22     3     1    1.0368E+06 -1.5218E+04   1.0520E+06  0.000E+00  0.000E+00  0.000E+00  3.80460E+01  4.905E-01  2.000E+01  2.000E+04 -7.609E-01
   1   15   23     3     2    1.0520E+06 -2.3591E+04   1.0756E+06  0.000E+00  0.000E+00  0.000E+00  3.71626E+01  4.959E-01  2.000E+01  2.000E+04 -1.180E+00
   1   15   24     3     3    1.0756E+06 -1.9639E+04   1.0952E+06  0.000E+00  0.000E+00  0.000E+00  3.62797E+01  5.019E-01  2.000E+01  2.000E+04 -9.820E-01
   1   15   25     3     4    1.0952E+06 -1.9238E+04   1.1145E+06  0.000E+00  0.000E+00  0.000E+00  3.53962E+01  5.073E-01  2.000E+01  2.000E+04 -9.619E-01
   1   15   26     3     5    1.1145E+06 -2.1978E+04   1.1365E+06  0.000E+00  0.000E+00  0.000E+00  3.45130E+01  5.130E-01  2.000E+01  2.000E+04 -1.099E+00
   1   16   27     3     6    1.1365E+06 -2.9166E+04   1.1656E+06  0.000E+00  0.000E+00  0.000E+00  3.36311E+01  5.199E-01  2.000E+01  2.000E+04 -1.458E+00
   1   17   28     3     7    1.1656E+06 -3.6238E+04   1.2019E+06  0.000E+00  0.000E+00  0.000E+00  3.27510E+01  5.288E-01  2.000E+01  2.000E+04 -1.812E+00
   1   18   29     3     8    1.2019E+06 -4.7247E+04   1.2491E+06  0.000E+00  0.000E+00  0.000E+00  3.18732E+01  5.399E-01  2.000E+01  2.000E+04 -2.362E+00
   1   18   30     3     9    1.2491E+06 -4.3678E+04   1.2928E+06  0.000E+00  0.000E+00  0.000E+00  3.09962E+01  5.518E-01  2.000E+01  2.000E+04 -2.184E+00



1
              HEAD IN LAYER   1 AT END OF TIME STEP   1 IN STRESS PERIOD    5
  ---------------------------------------------------------------------------

          1      2      3      4      5      6      7      8      9     10
         11     12     13     14     15     16     17     18     19     20
         21     22     23     24     25     26     27     28     29     30
 .........................................................................
   1  ****** ****** ****** ****** ****** ****** ****** ****** ****** ******
      ****** ****** ****** ****** ****** ****** ****** ****** ****** ******
      ****** ****** ****** ****** ****** ****** ****** ****** ****** ******
   2  ****** ****** ****** ****** ****** ****** ****** ****** ****** ******
      ****** ****** ****** ****** ****** ****** ****** ****** ****** ******
      ****** ****** ****** ****** ****** ****** ****** ****** ****** ******
   3  ****** ****** ****** ****** ****** ****** ****** ****** ****** ******
      ****** ****** ****** ****** ****** ****** ****** ****** ****** ******
      ****** ****** ****** ****** ****** ****** ****** ****** ****** ******
   4  ****** ****** ****** ****** ****** ****** ****** ****** ****** ******
      ****** ****** ****** ****** ****** ****** ****** ****** ****** ******
      ****** ****** ****** ****** ****** ****** ****** ****** ****** ******
   5  ****** ****** ****** ****** ****** ****** ****** ****** ****** ******
      ****** ****** ****** ****** ****** ****** ****** ****** ****** ******
      ****** ****** ****** ****** ****** ****** ****** ****** ****** ******
   6  ****** ****** ****** ****** ****** ****** ****** ****** ****** ******
      ****** ****** ****** ****** ****** ****** ****** ****** ****** ******
      ****** ****** ****** ****** ****** ****** ****** ****** ****** ******
   7  ****** ****** ****** ****** ****** ****** ****** ****** ****** ******
      ****** ****** ****** ****** ****** ****** ****** ****** ****** ******
      ****** ****** ****** ****** ****** ****** ****** ****** ****** ******
   8  ****** ****** ****** ****** ****** ****** ****** ****** ****** ******
      ****** ****** ****** ****** ****** ****** ****** ****** ****** ******
      ****** ****** ****** ****** ****** ****** ****** ****** ****** ******
   9  ****** ****** ****** ****** ****** ****** ****** ****** ****** ******
      ****** ****** ****** ****** ****** ****** ****** ****** ****** ******
      ****** ****** ****** ****** ****** ****** ****** ****** ****** ******
  10  ****** ****** ****** ****** ****** ****** ****** ****** ****** ******
      ****** ****** ****** ****** ****** ****** ****** ****** ****** ******
      ****** ****** ****** ****** ****** ****** ****** ****** ****** ******
  11  ****** ****** ****** ****** ****** ****** ****** ****** ****** ******
      ****** ****** ****** ****** ****** ****** ****** ****** ****** ******
      ****** ****** ****** ****** ****** ****** ****** ****** ****** ******
  12  ****** ****** ****** ****** ****** ****** ****** ****** ****** ******
      ****** ****** ****** ****** ****** ****** ****** ****** ****** ******
      ****** ****** ****** ****** ****** ****** ****** ****** ****** ******
  13  ****** ****** ****** ****** ****** ****** ****** ****** ****** ******
      ****** ****** ****** ****** ****** ****** ****** ****** ****** ******
      ****** ****** ****** ****** ****** ****** ****** ****** ****** ******
  14  ****** ****** ****** ****** ****** ****** ****** ****** ****** ******
      ****** ****** ****** ****** ****** ****** ****** ****** ****** ******
      ****** ****** ****** ****** ****** ****** ****** ****** ****** ******
  15  ****** ****** ****** ****** ****** ****** ****** ****** ****** ******
      ****** ****** ****** ****** ****** ****** ****** ****** ****** ******
      ****** ****** ****** ****** ****** ****** ****** ****** ****** ******
  16  ****** ****** ****** ****** ****** ****** ****** ****** ****** ******
      ****** ****** ****** ****** ****** ****** ****** ****** ****** ******
      ****** ****** ****** ****** ****** ****** ****** ****** ****** ******
  17  ****** ****** ****** ****** ****** ****** ****** ****** ****** ******
      ****** ****** ****** ****** ****** ****** ****** ****** ****** ******
      ****** ****** ****** ****** ****** ****** ****** ****** ****** ******
  18  ****** ****** ****** ****** ****** ****** ****** ****** ****** ******
      ****** ****** ****** ****** ****** ****** ****** ****** ****** ******
      ****** ****** ****** ****** ****** ****** ****** ****** ****** ******
  19  ****** ****** ****** ****** ****** ****** ****** ****** ****** ******
      ****** ****** ****** ****** ****** ****** ****** ****** ****** ******
      ****** ****** ****** ****** ****** ****** ****** ****** ****** ******
  20  ****** ****** ****** ****** ****** ****** ****** ****** ****** ******
      ****** ****** ****** ****** ****** ****** ****** ****** ****** ******
      ****** ****** ****** ****** ****** ****** ****** ****** ****** ******
  21  ****** ****** ****** ****** ****** ****** ****** ****** ****** ******
      ****** ****** ****** ****** ****** ****** ****** ****** ****** ******
      ****** ****** ****** ****** ****** ****** ****** ****** ****** ******
  22  ****** ****** ****** ****** ****** ****** ****** ****** ****** ******
      ****** ****** ****** ****** ****** ****** ****** ****** ****** ******
      ****** ****** ****** ****** ****** ****** ****** ****** ****** ******
  23  ****** ****** ****** ****** ****** ****** ****** ****** ****** ******
      ****** ****** ****** ****** ****** ****** ****** ****** ****** ******
      ****** ****** ****** ****** ****** ****** ****** ****** ****** ******
  24  ****** ****** ****** ****** ****** ****** ****** ****** ****** ******
      ****** ****** ****** ****** ****** ****** ****** ****** ****** ******
      ****** ****** ****** ****** ****** ****** ****** ****** ****** ******
  25  ****** ****** ****** ****** ****** ****** ****** ****** ****** ******
      ****** ****** ****** ****** ****** ****** ****** ****** ****** ******
      ****** ****** ****** ****** ****** ****** ****** ****** ****** ******

 HEAD WILL BE SAVED ON UNIT   51 AT END OF TIME STEP    1, STRESS PERIOD    5
1
  VOLUMETRIC BUDGET FOR ENTIRE MODEL AT END OF TIME STEP    1, STRESS PERIOD   5
  ------------------------------------------------------------------------------

     CUMULATIVE VOLUMES      L**3       RATES FOR THIS TIME STEP      L**3/T
     ------------------                 ------------------------

           IN:                                      IN:
           ---                                      ---
             STORAGE =    20451424.1134               STORAGE =         775.6964
       CONSTANT HEAD =   544686850.6678         CONSTANT HEAD =     1208255.4237
               WELLS =           0.0000                 WELLS =           0.0000
            RECHARGE =    10074000.0000              RECHARGE =       13800.0000
      STREAM LEAKAGE =           0.0000        STREAM LEAKAGE =           0.0000

            TOTAL IN =   575212274.7812              TOTAL IN =     1222831.1201

          OUT:                                     OUT:
          ----                                     ----
             STORAGE =      160986.1088               STORAGE =          45.5464
       CONSTANT HEAD =           0.0000         CONSTANT HEAD =           0.0000
               WELLS =    36560000.0000                 WELLS =       80000.0000
            RECHARGE =           0.0000              RECHARGE =           0.0000
      STREAM LEAKAGE =   538491297.5158        STREAM LEAKAGE =     1142785.5994

           TOTAL OUT =   575212283.6246             TOTAL OUT =     1222831.1458

            IN - OUT =          -8.8435              IN - OUT =      -2.5700E-02

 PERCENT DISCREPANCY =          -0.00     PERCENT DISCREPANCY =          -0.00






         TIME SUMMARY AT END OF TIME STEP    1 IN STRESS PERIOD    5
                    SECONDS     MINUTES      HOURS       DAYS        YEARS
                    -----------------------------------------------------------
   TIME STEP LENGTH 7.94880E+06 1.32480E+05  2208.0      92.000     0.25188    
 STRESS PERIOD TIME 7.94880E+06 1.32480E+05  2208.0      92.000     0.25188    
         TOTAL TIME 3.94848E+07 6.58080E+05  10968.      457.00      1.2512    
1
1
                            STRESS PERIOD NO.    6, LENGTH =   91.00000    
                            -----------------------------------------------

                              NUMBER OF TIME STEPS =     1

                               MULTIPLIER FOR DELT =     1.500

                            INITIAL TIME STEP SIZE =   91.00000    

 WELL NO.  LAYER   ROW   COL   STRESS RATE         
 --------------------------------------------------
      1      1      5     18     -0.5000E+05
      2      1      5      2     -0.1245E+05
      3      1     23      5     -0.1755E+05

      3 WELLS

                 RECHARGE =  2.000000E-03

 REUSING STREAM SEGMENT DATA FROM LAST STRESS PERIOD
 
 SOLVING FOR HEAD 


     6 CALLS TO PCG ROUTINE FOR TIME STEP   1 IN STRESS PERIOD    6
    22 TOTAL ITERATIONS

 OUTPUT CONTROL FOR STRESS PERIOD    6   TIME STEP    1
    SAVE BUDGET
    SAVE HEAD FOR ALL LAYERS
    PRINT HEAD FOR ALL LAYERS
 UBDSV2 SAVING "STREAMFLOW OUT  " ON UNIT  50 AT TIME STEP  1, STRESS PERIOD   6



 STREAM LISTING     PERIOD      6   STEP        1

 LAYER ROW COL. STREAM  RCH.  FLOW INTO     FLOW TO   FLOW OUT OF   OVRLND.     DIRECT     STREAM       STREAM     STREAM     STREAM   STREAMBED  STREAMBED
                SEG.NO.  NO.  STRM. RCH.    AQUIFER    STRM. RCH.    RUNOFF     PRECIP       ET          HEAD       DEPTH      WIDTH   CONDCTNC.   GRADIENT

   1   13    1     1     1    1.0000E+05 -2.7364E+04   1.2736E+05  0.000E+00  0.000E+00  0.000E+00  4.84176E+01  1.562E-01  2.000E+01  2.000E+04 -1.368E+00
   1   13    2     1     2    1.2736E+05 -3.7023E+04   1.6439E+05  0.000E+00  0.000E+00  0.000E+00  4.79655E+01  1.814E-01  2.000E+01  2.000E+04 -1.851E+00
   1   14    3     1     3    1.6439E+05 -3.2742E+04   1.9713E+05  0.000E+00  0.000E+00  0.000E+00  4.75132E+01  2.063E-01  2.000E+01  2.000E+04 -1.637E+00
   1   15    4     1     4    1.9713E+05 -3.2057E+04   2.2919E+05  0.000E+00  0.000E+00  0.000E+00  4.70573E+01  2.278E-01  2.000E+01  2.000E+04 -1.603E+00
   1   16    5     1     5    2.2919E+05 -3.3549E+04   2.6273E+05  0.000E+00  0.000E+00  0.000E+00  4.66005E+01  2.482E-01  2.000E+01  2.000E+04 -1.677E+00
   1   16    6     1     6    2.6273E+05 -2.9354E+04   2.9209E+05  0.000E+00  0.000E+00  0.000E+00  4.61418E+01  2.668E-01  2.000E+01  2.000E+04 -1.468E+00
   1   16    7     1     7    2.9209E+05 -2.9233E+04   3.2132E+05  0.000E+00  0.000E+00  0.000E+00  4.56811E+01  2.834E-01  2.000E+01  2.000E+04 -1.462E+00
   1   16    8     1     8    3.2132E+05 -2.9479E+04   3.5080E+05  0.000E+00  0.000E+00  0.000E+00  4.52198E+01  2.993E-01  2.000E+01  2.000E+04 -1.474E+00
   1   16    9     1     9    3.5080E+05 -2.9627E+04   3.8043E+05  0.000E+00  0.000E+00  0.000E+00  4.47581E+01  3.149E-01  2.000E+01  2.000E+04 -1.481E+00
   1   16   10     1    10    3.8043E+05 -2.9727E+04   4.1015E+05  0.000E+00  0.000E+00  0.000E+00  4.42959E+01  3.300E-01  2.000E+01  2.000E+04 -1.486E+00
   1   16   11     1    11    4.1015E+05 -3.0419E+04   4.4057E+05  0.000E+00  0.000E+00  0.000E+00  4.38334E+01  3.448E-01  2.000E+01  2.000E+04 -1.521E+00
   1   16   12     1    12    4.4057E+05 -3.6097E+04   4.7667E+05  0.000E+00  0.000E+00  0.000E+00  4.33721E+01  3.607E-01  2.000E+01  2.000E+04 -1.805E+00
   1   15   13     1    13    4.7667E+05 -3.4738E+04   5.1141E+05  0.000E+00  0.000E+00  0.000E+00  4.29113E+01  3.772E-01  2.000E+01  2.000E+04 -1.737E+00
   1   14   14     1    14    5.1141E+05 -3.5131E+04   5.4654E+05  0.000E+00  0.000E+00  0.000E+00  4.24498E+01  3.930E-01  2.000E+01  2.000E+04 -1.757E+00
   1   13   15     1    15    5.4654E+05 -3.6989E+04   5.8353E+05  0.000E+00  0.000E+00  0.000E+00  4.19884E+01  4.089E-01  2.000E+01  2.000E+04 -1.849E+00
   1   12   16     1    16    5.8353E+05 -4.2280E+04   6.2581E+05  0.000E+00  0.000E+00  0.000E+00  4.15281E+01  4.258E-01  2.000E+01  2.000E+04 -2.114E+00
   1   12   17     1    17    6.2581E+05 -3.2981E+04   6.5879E+05  0.000E+00  0.000E+00  0.000E+00  4.10665E+01  4.415E-01  2.000E+01  2.000E+04 -1.649E+00
   1   12   18     1    18    6.5879E+05 -3.1349E+04   6.9014E+05  0.000E+00  0.000E+00  0.000E+00  4.06024E+01  4.547E-01  2.000E+01  2.000E+04 -1.567E+00
   1   12   19     1    19    6.9014E+05 -3.5257E+04   7.2539E+05  0.000E+00  0.000E+00  0.000E+00  4.01385E+01  4.680E-01  2.000E+01  2.000E+04 -1.763E+00
   1   13   20     1    20    7.2539E+05 -2.6423E+04   7.5182E+05  0.000E+00  0.000E+00  0.000E+00  3.96733E+01  4.801E-01  2.000E+01  2.000E+04 -1.321E+00
   1   14   21     1    21    7.5182E+05 -1.9829E+04   7.7165E+05  0.000E+00  0.000E+00  0.000E+00  3.92050E+01  4.891E-01  2.000E+01  2.000E+04 -9.915E-01
   1   14   22     1    22    7.7165E+05 -1.7860E+03   7.7343E+05  0.000E+00  0.000E+00  0.000E+00  3.87319E+01  4.933E-01  2.000E+01  2.000E+04 -8.930E-02
   1    9   30     2     1    5.0000E+04 -2.6698E+04   7.6698E+04  0.000E+00  0.000E+00  0.000E+00  4.02585E+01  1.335E-01  2.000E+01  2.000E+04 -1.335E+00
   1    9   29     2     2    7.6698E+04 -2.9122E+04   1.0582E+05  0.000E+00  0.000E+00  0.000E+00  4.00412E+01  1.662E-01  2.000E+01  2.000E+04 -1.456E+00
   1    9   28     2     3    1.0582E+05 -3.3304E+04   1.3912E+05  0.000E+00  0.000E+00  0.000E+00  3.98233E+01  1.983E-01  2.000E+01  2.000E+04 -1.665E+00
   1    9   27     2     4    1.3912E+05 -4.7148E+04   1.8627E+05  0.000E+00  0.000E+00  0.000E+00  3.96102E+01  2.352E-01  2.000E+01  2.000E+04 -2.357E+00
   1   10   26     2     5    1.8627E+05 -3.3069E+04   2.1934E+05  0.000E+00  0.000E+00  0.000E+00  3.93934E+01  2.684E-01  2.000E+01  2.000E+04 -1.653E+00
   1   11   25     2     6    2.1934E+05 -2.4687E+04   2.4403E+05  0.000E+00  0.000E+00  0.000E+00  3.91657E+01  2.907E-01  2.000E+01  2.000E+04 -1.234E+00
   1   12   24     2     7    2.4403E+05 -1.8158E+04   2.6219E+05  0.000E+00  0.000E+00  0.000E+00  3.89316E+01  3.066E-01  2.000E+01  2.000E+04 -9.079E-01
   1   13   23     2     8    2.6219E+05 -1.2951E+04   2.7514E+05  0.000E+00  0.000E+00  0.000E+00  3.86928E+01  3.178E-01  2.000E+01  2.000E+04 -6.475E-01
   1   14   22     2     9    2.7514E+05 -7.4253E+03   2.8256E+05  0.000E+00  0.000E+00  0.000E+00  3.84499E+01  3.249E-01  2.000E+01  2.000E+04 -3.713E-01
   1   14   22     3     1    1.0560E+06 -1.5395E+04   1.0714E+06  0.000E+00  0.000E+00  0.000E+00  3.80515E+01  4.959E-01  2.000E+01  2.000E+04 -7.697E-01
   1   15   23     3     2    1.0714E+06 -2.4048E+04   1.0954E+06  0.000E+00  0.000E+00  0.000E+00  3.71681E+01  5.014E-01  2.000E+01  2.000E+04 -1.202E+00
   1   15   24     3     3    1.0954E+06 -2.0018E+04   1.1155E+06  0.000E+00  0.000E+00  0.000E+00  3.62853E+01  5.075E-01  2.000E+01  2.000E+04 -1.001E+00
   1   15   25     3     4    1.1155E+06 -1.9615E+04   1.1351E+06  0.000E+00  0.000E+00  0.000E+00  3.54018E+01  5.129E-01  2.000E+01  2.000E+04 -9.807E-01
   1   15   26     3     5    1.1351E+06 -2.2418E+04   1.1575E+06  0.000E+00  0.000E+00  0.000E+00  3.45186E+01  5.186E-01  2.000E+01  2.000E+04 -1.121E+00
   1   16   27     3     6    1.1575E+06 -2.9697E+04   1.1872E+06  0.000E+00  0.000E+00  0.000E+00  3.36368E+01  5.257E-01  2.000E+01  2.000E+04 -1.485E+00
   1   17   28     3     7    1.1872E+06 -3.6782E+04   1.2240E+06  0.000E+00  0.000E+00  0.000E+00  3.27568E+01  5.346E-01  2.000E+01  2.000E+04 -1.839E+00
   1   18   29     3     8    1.2240E+06 -4.7757E+04   1.2717E+06  0.000E+00  0.000E+00  0.000E+00  3.18791E+01  5.458E-01  2.000E+01  2.000E+04 -2.388E+00
   1   18   30     3     9    1.2717E+06 -4.4104E+04   1.3158E+06  0.000E+00  0.000E+00  0.000E+00  3.10022E+01  5.577E-01  2.000E+01  2.000E+04 -2.205E+00



1
              HEAD IN LAYER   1 AT END OF TIME STEP   1 IN STRESS PERIOD    6
  ---------------------------------------------------------------------------

          1      2      3      4      5      6      7      8      9     10
         11     12     13     14     15     16     17     18     19     20
         21     22     23     24     25     26     27     28     29     30
 .........................................................................
   1  ****** ****** ****** ****** ****** ****** ****** ****** ****** ******
      ****** ****** ****** ****** ****** ****** ****** ****** ****** ******
      ****** ****** ****** ****** ****** ****** ****** ****** ****** ******
   2  ****** ****** ****** ****** ****** ****** ****** ****** ****** ******
      ****** ****** ****** ****** ****** ****** ****** ****** ****** ******
      ****** ****** ****** ****** ****** ****** ****** ****** ****** ******
   3  ****** ****** ****** ****** ****** ****** ****** ****** ****** ******
      ****** ****** ****** ****** ****** ****** ****** ****** ****** ******
      ****** ****** ****** ****** ****** ****** ****** ****** ****** ******
   4  ****** ****** ****** ****** ****** ****** ****** ****** ****** ******
      ****** ****** ****** ****** ****** ****** ****** ****** ****** ******
      ****** ****** ****** ****** ****** ****** ****** ****** ****** ******
   5  ****** ****** ****** ****** ****** ****** ****** ****** ****** ******
      ****** ****** ****** ****** ****** ****** ****** ****** ****** ******
      ****** ****** ****** ****** ****** ****** ****** ****** ****** ******
   6  ****** ****** ****** ****** ****** ****** ****** ****** ****** ******
      ****** ****** ****** ****** ****** ****** ****** ****** ****** ******
      ****** ****** ****** ****** ****** ****** ****** ****** ****** ******
   7  ****** ****** ****** ****** ****** ****** ****** ****** ****** ******
      ****** ****** ****** ****** ****** ****** ****** ****** ****** ******
      ****** ****** ****** ****** ****** ****** ****** ****** ****** ******
   8  ****** ****** ****** ****** ****** ****** ****** ****** ****** ******
      ****** ****** ****** ****** ****** ****** ****** ****** ****** ******
      ****** ****** ****** ****** ****** ****** ****** ****** ****** ******
   9  ****** ****** ****** ****** ****** ****** ****** ****** ****** ******
      ****** ****** ****** ****** ****** ****** ****** ****** ****** ******
      ****** ****** ****** ****** ****** ****** ****** ****** ****** ******
  10  ****** ****** ****** ****** ****** ****** ****** ****** ****** ******
      ****** ****** ****** ****** ****** ****** ****** ****** ****** ******
      ****** ****** ****** ****** ****** ****** ****** ****** ****** ******
  11  ****** ****** ****** ****** ****** ****** ****** ****** ****** ******
      ****** ****** ****** ****** ****** ****** ****** ****** ****** ******
      ****** ****** ****** ****** ****** ****** ****** ****** ****** ******
  12  ****** ****** ****** ****** ****** ****** ****** ****** ****** ******
      ****** ****** ****** ****** ****** ****** ****** ****** ****** ******
      ****** ****** ****** ****** ****** ****** ****** ****** ****** ******
  13  ****** ****** ****** ****** ****** ****** ****** ****** ****** ******
      ****** ****** ****** ****** ****** ****** ****** ****** ****** ******
      ****** ****** ****** ****** ****** ****** ****** ****** ****** ******
  14  ****** ****** ****** ****** ****** ****** ****** ****** ****** ******
      ****** ****** ****** ****** ****** ****** ****** ****** ****** ******
      ****** ****** ****** ****** ****** ****** ****** ****** ****** ******
  15  ****** ****** ****** ****** ****** ****** ****** ****** ****** ******
      ****** ****** ****** ****** ****** ****** ****** ****** ****** ******
      ****** ****** ****** ****** ****** ****** ****** ****** ****** ******
  16  ****** ****** ****** ****** ****** ****** ****** ****** ****** ******
      ****** ****** ****** ****** ****** ****** ****** ****** ****** ******
      ****** ****** ****** ****** ****** ****** ****** ****** ****** ******
  17  ****** ****** ****** ****** ****** ****** ****** ****** ****** ******
      ****** ****** ****** ****** ****** ****** ****** ****** ****** ******
      ****** ****** ****** ****** ****** ****** ****** ****** ****** ******
  18  ****** ****** ****** ****** ****** ****** ****** ****** ****** ******
      ****** ****** ****** ****** ****** ****** ****** ****** ****** ******
      ****** ****** ****** ****** ****** ****** ****** ****** ****** ******
  19  ****** ****** ****** ****** ****** ****** ****** ****** ****** ******
      ****** ****** ****** ****** ****** ****** ****** ****** ****** ******
      ****** ****** ****** ****** ****** ****** ****** ****** ****** ******
  20  ****** ****** ****** ****** ****** ****** ****** ****** ****** ******
      ****** ****** ****** ****** ****** ****** ****** ****** ****** ******
      ****** ****** ****** ****** ****** ****** ****** ****** ****** ******
  21  ****** ****** ****** ****** ****** ****** ****** ****** ****** ******
      ****** ****** ****** ****** ****** ****** ****** ****** ****** ******
      ****** ****** ****** ****** ****** ****** ****** ****** ****** ******
  22  ****** ****** ****** ****** ****** ****** ****** ****** ****** ******
      ****** ****** ****** ****** ****** ****** ****** ****** ****** ******
      ****** ****** ****** ****** ****** ****** ****** ****** ****** ******
  23  ****** ****** ****** ****** ****** ****** ****** ****** ****** ******
      ****** ****** ****** ****** ****** ****** ****** ****** ****** ******
      ****** ****** ****** ****** ****** ****** ****** ****** ****** ******
  24  ****** ****** ****** ****** ****** ****** ****** ****** ****** ******
      ****** ****** ****** ****** ****** ****** ****** ****** ****** ******
      ****** ****** ****** ****** ****** ****** ****** ****** ****** ******
  25  ****** ****** ****** ****** ****** ****** ****** ****** ****** ******
      ****** ****** ****** ****** ****** ****** ****** ****** ****** ******
      ****** ****** ****** ****** ****** ****** ****** ****** ****** ******

 HEAD WILL BE SAVED ON UNIT   51 AT END OF TIME STEP    1, STRESS PERIOD    6
1
  VOLUMETRIC BUDGET FOR ENTIRE MODEL AT END OF TIME STEP    1, STRESS PERIOD   6
  ------------------------------------------------------------------------------

     CUMULATIVE VOLUMES      L**3       RATES FOR THIS TIME STEP      L**3/T
     ------------------                 ------------------------

           IN:                                      IN:
           ---                                      ---
             STORAGE =    20479660.7841               STORAGE =         310.2931
       CONSTANT HEAD =   653278093.3157         CONSTANT HEAD =     1193310.3588
               WELLS =           0.0000                 WELLS =           0.0000
            RECHARGE =    15097200.0000              RECHARGE =       55200.0000
      STREAM LEAKAGE =           0.0000        STREAM LEAKAGE =           0.0000

            TOTAL IN =   688854954.0998              TOTAL IN =     1248820.6519

          OUT:                                     OUT:
          ----                                     ----
             STORAGE =      433325.3577               STORAGE =        2992.7390
       CONSTANT HEAD =           0.0000         CONSTANT HEAD =           0.0000
               WELLS =    43840000.0000                 WELLS =       80000.0000
            RECHARGE =           0.0000              RECHARGE =           0.0000
      STREAM LEAKAGE =   644581633.3057        STREAM LEAKAGE =     1165827.8658

           TOTAL OUT =   688854958.6634             TOTAL OUT =     1248820.6048

            IN - OUT =          -4.5636              IN - OUT =       4.7032E-02

 PERCENT DISCREPANCY =          -0.00     PERCENT DISCREPANCY =           0.00






         TIME SUMMARY AT END OF TIME STEP    1 IN STRESS PERIOD    6
                    SECONDS     MINUTES      HOURS       DAYS        YEARS
                    -----------------------------------------------------------
   TIME STEP LENGTH 7.86240E+06 1.31040E+05  2184.0      91.000     0.24914    
 STRESS PERIOD TIME 7.86240E+06 1.31040E+05  2184.0      91.000     0.24914    
         TOTAL TIME 4.73472E+07 7.89120E+05  13152.      548.00      1.5003    
1
1
                            STRESS PERIOD NO.    7, LENGTH =   91.00000    
                            -----------------------------------------------

                              NUMBER OF TIME STEPS =     1

                               MULTIPLIER FOR DELT =     1.500

                            INITIAL TIME STEP SIZE =   91.00000    

 WELL NO.  LAYER   ROW   COL   STRESS RATE         
 --------------------------------------------------
      1      1      5     18     -0.5000E+05
      2      1      5      2     -0.3000E+05

      2 WELLS

                 RECHARGE =   0.00000    

 REUSING STREAM SEGMENT DATA FROM LAST STRESS PERIOD
 
 SOLVING FOR HEAD 


     6 CALLS TO PCG ROUTINE FOR TIME STEP   1 IN STRESS PERIOD    7
    23 TOTAL ITERATIONS

 OUTPUT CONTROL FOR STRESS PERIOD    7   TIME STEP    1
    SAVE BUDGET
    SAVE HEAD FOR ALL LAYERS
    PRINT HEAD FOR ALL LAYERS
 UBDSV2 SAVING "STREAMFLOW OUT  " ON UNIT  50 AT TIME STEP  1, STRESS PERIOD   7



 STREAM LISTING     PERIOD      7   STEP        1

 LAYER ROW COL. STREAM  RCH.  FLOW INTO     FLOW TO   FLOW OUT OF   OVRLND.     DIRECT     STREAM       STREAM     STREAM     STREAM   STREAMBED  STREAMBED
                SEG.NO.  NO.  STRM. RCH.    AQUIFER    STRM. RCH.    RUNOFF     PRECIP       ET          HEAD       DEPTH      WIDTH   CONDCTNC.   GRADIENT

   1   13    1     1     1    1.0000E+05 -2.5890E+04   1.2589E+05  0.000E+00  0.000E+00  0.000E+00  4.84170E+01  1.556E-01  2.000E+01  2.000E+04 -1.294E+00
   1   13    2     1     2    1.2589E+05 -3.5240E+04   1.6113E+05  0.000E+00  0.000E+00  0.000E+00  4.79638E+01  1.797E-01  2.000E+01  2.000E+04 -1.762E+00
   1   14    3     1     3    1.6113E+05 -3.1457E+04   1.9259E+05  0.000E+00  0.000E+00  0.000E+00  4.75105E+01  2.037E-01  2.000E+01  2.000E+04 -1.573E+00
   1   15    4     1     4    1.9259E+05 -3.1130E+04   2.2372E+05  0.000E+00  0.000E+00  0.000E+00  4.70541E+01  2.246E-01  2.000E+01  2.000E+04 -1.556E+00
   1   16    5     1     5    2.2372E+05 -3.3047E+04   2.5676E+05  0.000E+00  0.000E+00  0.000E+00  4.65970E+01  2.447E-01  2.000E+01  2.000E+04 -1.652E+00
   1   16    6     1     6    2.5676E+05 -2.8821E+04   2.8558E+05  0.000E+00  0.000E+00  0.000E+00  4.61382E+01  2.632E-01  2.000E+01  2.000E+04 -1.441E+00
   1   16    7     1     7    2.8558E+05 -2.8645E+04   3.1423E+05  0.000E+00  0.000E+00  0.000E+00  4.56773E+01  2.796E-01  2.000E+01  2.000E+04 -1.432E+00
   1   16    8     1     8    3.1423E+05 -2.8847E+04   3.4308E+05  0.000E+00  0.000E+00  0.000E+00  4.52158E+01  2.954E-01  2.000E+01  2.000E+04 -1.442E+00
   1   16    9     1     9    3.4308E+05 -2.8963E+04   3.7204E+05  0.000E+00  0.000E+00  0.000E+00  4.47539E+01  3.107E-01  2.000E+01  2.000E+04 -1.448E+00
   1   16   10     1    10    3.7204E+05 -2.9042E+04   4.0108E+05  0.000E+00  0.000E+00  0.000E+00  4.42915E+01  3.256E-01  2.000E+01  2.000E+04 -1.452E+00
   1   16   11     1    11    4.0108E+05 -2.9710E+04   4.3079E+05  0.000E+00  0.000E+00  0.000E+00  4.38288E+01  3.402E-01  2.000E+01  2.000E+04 -1.486E+00
   1   16   12     1    12    4.3079E+05 -3.5269E+04   4.6606E+05  0.000E+00  0.000E+00  0.000E+00  4.33673E+01  3.559E-01  2.000E+01  2.000E+04 -1.763E+00
   1   15   13     1    13    4.6606E+05 -3.3728E+04   4.9979E+05  0.000E+00  0.000E+00  0.000E+00  4.29062E+01  3.721E-01  2.000E+01  2.000E+04 -1.686E+00
   1   14   14     1    14    4.9979E+05 -3.4055E+04   5.3384E+05  0.000E+00  0.000E+00  0.000E+00  4.24444E+01  3.875E-01  2.000E+01  2.000E+04 -1.703E+00
   1   13   15     1    15    5.3384E+05 -3.5910E+04   5.6975E+05  0.000E+00  0.000E+00  0.000E+00  4.19826E+01  4.031E-01  2.000E+01  2.000E+04 -1.795E+00
   1   12   16     1    16    5.6975E+05 -4.1232E+04   6.1099E+05  0.000E+00  0.000E+00  0.000E+00  4.15220E+01  4.198E-01  2.000E+01  2.000E+04 -2.062E+00
   1   12   17     1    17    6.1099E+05 -3.2165E+04   6.4315E+05  0.000E+00  0.000E+00  0.000E+00  4.10602E+01  4.352E-01  2.000E+01  2.000E+04 -1.608E+00
   1   12   18     1    18    6.4315E+05 -3.0584E+04   6.7373E+05  0.000E+00  0.000E+00  0.000E+00  4.05959E+01  4.482E-01  2.000E+01  2.000E+04 -1.529E+00
   1   12   19     1    19    6.7373E+05 -3.4429E+04   7.0816E+05  0.000E+00  0.000E+00  0.000E+00  4.01318E+01  4.613E-01  2.000E+01  2.000E+04 -1.721E+00
   1   13   20     1    20    7.0816E+05 -2.5663E+04   7.3383E+05  0.000E+00  0.000E+00  0.000E+00  3.96664E+01  4.732E-01  2.000E+01  2.000E+04 -1.283E+00
   1   14   21     1    21    7.3383E+05 -1.9183E+04   7.5301E+05  0.000E+00  0.000E+00  0.000E+00  3.91979E+01  4.820E-01  2.000E+01  2.000E+04 -9.591E-01
   1   14   22     1    22    7.5301E+05 -1.5601E+03   7.5457E+05  0.000E+00  0.000E+00  0.000E+00  3.87247E+01  4.860E-01  2.000E+01  2.000E+04 -7.800E-02
   1    9   30     2     1    5.0000E+04 -2.6111E+04   7.6111E+04  0.000E+00  0.000E+00  0.000E+00  4.02582E+01  1.332E-01  2.000E+01  2.000E+04 -1.306E+00
   1    9   29     2     2    7.6111E+04 -2.8535E+04   1.0465E+05  0.000E+00  0.000E+00  0.000E+00  4.00403E+01  1.653E-01  2.000E+01  2.000E+04 -1.427E+00
   1    9   28     2     3    1.0465E+05 -3.2696E+04   1.3734E+05  0.000E+00  0.000E+00  0.000E+00  3.98219E+01  1.969E-01  2.000E+01  2.000E+04 -1.635E+00
   1    9   27     2     4    1.3734E+05 -4.6403E+04   1.8375E+05  0.000E+00  0.000E+00  0.000E+00  3.96083E+01  2.333E-01  2.000E+01  2.000E+04 -2.320E+00
   1   10   26     2     5    1.8375E+05 -3.2295E+04   2.1604E+05  0.000E+00  0.000E+00  0.000E+00  3.93911E+01  2.661E-01  2.000E+01  2.000E+04 -1.615E+00
   1   11   25     2     6    2.1604E+05 -2.3940E+04   2.3998E+05  0.000E+00  0.000E+00  0.000E+00  3.91630E+01  2.880E-01  2.000E+01  2.000E+04 -1.197E+00
   1   12   24     2     7    2.3998E+05 -1.7488E+04   2.5747E+05  0.000E+00  0.000E+00  0.000E+00  3.89284E+01  3.034E-01  2.000E+01  2.000E+04 -8.744E-01
   1   13   23     2     8    2.5747E+05 -1.2406E+04   2.6987E+05  0.000E+00  0.000E+00  0.000E+00  3.86892E+01  3.142E-01  2.000E+01  2.000E+04 -6.203E-01
   1   14   22     2     9    2.6987E+05 -7.1309E+03   2.7700E+05  0.000E+00  0.000E+00  0.000E+00  3.84461E+01  3.211E-01  2.000E+01  2.000E+04 -3.565E-01
   1   14   22     3     1    1.0316E+06 -1.5163E+04   1.0467E+06  0.000E+00  0.000E+00  0.000E+00  3.80446E+01  4.890E-01  2.000E+01  2.000E+04 -7.581E-01
   1   15   23     3     2    1.0467E+06 -2.3447E+04   1.0702E+06  0.000E+00  0.000E+00  0.000E+00  3.71611E+01  4.944E-01  2.000E+01  2.000E+04 -1.172E+00
   1   15   24     3     3    1.0702E+06 -1.9520E+04   1.0897E+06  0.000E+00  0.000E+00  0.000E+00  3.62782E+01  5.004E-01  2.000E+01  2.000E+04 -9.760E-01
   1   15   25     3     4    1.0897E+06 -1.9118E+04   1.1088E+06  0.000E+00  0.000E+00  0.000E+00  3.53947E+01  5.058E-01  2.000E+01  2.000E+04 -9.559E-01
   1   15   26     3     5    1.1088E+06 -2.1839E+04   1.1307E+06  0.000E+00  0.000E+00  0.000E+00  3.45114E+01  5.114E-01  2.000E+01  2.000E+04 -1.092E+00
   1   16   27     3     6    1.1307E+06 -2.8999E+04   1.1597E+06  0.000E+00  0.000E+00  0.000E+00  3.36295E+01  5.183E-01  2.000E+01  2.000E+04 -1.450E+00
   1   17   28     3     7    1.1597E+06 -3.6067E+04   1.1957E+06  0.000E+00  0.000E+00  0.000E+00  3.27494E+01  5.271E-01  2.000E+01  2.000E+04 -1.803E+00
   1   18   29     3     8    1.1957E+06 -4.7086E+04   1.2428E+06  0.000E+00  0.000E+00  0.000E+00  3.18716E+01  5.382E-01  2.000E+01  2.000E+04 -2.354E+00
   1   18   30     3     9    1.2428E+06 -4.3543E+04   1.2864E+06  0.000E+00  0.000E+00  0.000E+00  3.09946E+01  5.501E-01  2.000E+01  2.000E+04 -2.177E+00



1
              HEAD IN LAYER   1 AT END OF TIME STEP   1 IN STRESS PERIOD    7
  ---------------------------------------------------------------------------

          1      2      3      4      5      6      7      8      9     10
         11     12     13     14     15     16     17     18     19     20
         21     22     23     24     25     26     27     28     29     30
 .........................................................................
   1  ****** ****** ****** ****** ****** ****** ****** ****** ****** ******
      ****** ****** ****** ****** ****** ****** ****** ****** ****** ******
      ****** ****** ****** ****** ****** ****** ****** ****** ****** ******
   2  ****** ****** ****** ****** ****** ****** ****** ****** ****** ******
      ****** ****** ****** ****** ****** ****** ****** ****** ****** ******
      ****** ****** ****** ****** ****** ****** ****** ****** ****** ******
   3  ****** ****** ****** ****** ****** ****** ****** ****** ****** ******
      ****** ****** ****** ****** ****** ****** ****** ****** ****** ******
      ****** ****** ****** ****** ****** ****** ****** ****** ****** ******
   4  ****** ****** ****** ****** ****** ****** ****** ****** ****** ******
      ****** ****** ****** ****** ****** ****** ****** ****** ****** ******
      ****** ****** ****** ****** ****** ****** ****** ****** ****** ******
   5  ****** ****** ****** ****** ****** ****** ****** ****** ****** ******
      ****** ****** ****** ****** ****** ****** ****** ****** ****** ******
      ****** ****** ****** ****** ****** ****** ****** ****** ****** ******
   6  ****** ****** ****** ****** ****** ****** ****** ****** ****** ******
      ****** ****** ****** ****** ****** ****** ****** ****** ****** ******
      ****** ****** ****** ****** ****** ****** ****** ****** ****** ******
   7  ****** ****** ****** ****** ****** ****** ****** ****** ****** ******
      ****** ****** ****** ****** ****** ****** ****** ****** ****** ******
      ****** ****** ****** ****** ****** ****** ****** ****** ****** ******
   8  ****** ****** ****** ****** ****** ****** ****** ****** ****** ******
      ****** ****** ****** ****** ****** ****** ****** ****** ****** ******
      ****** ****** ****** ****** ****** ****** ****** ****** ****** ******
   9  ****** ****** ****** ****** ****** ****** ****** ****** ****** ******
      ****** ****** ****** ****** ****** ****** ****** ****** ****** ******
      ****** ****** ****** ****** ****** ****** ****** ****** ****** ******
  10  ****** ****** ****** ****** ****** ****** ****** ****** ****** ******
      ****** ****** ****** ****** ****** ****** ****** ****** ****** ******
      ****** ****** ****** ****** ****** ****** ****** ****** ****** ******
  11  ****** ****** ****** ****** ****** ****** ****** ****** ****** ******
      ****** ****** ****** ****** ****** ****** ****** ****** ****** ******
      ****** ****** ****** ****** ****** ****** ****** ****** ****** ******
  12  ****** ****** ****** ****** ****** ****** ****** ****** ****** ******
      ****** ****** ****** ****** ****** ****** ****** ****** ****** ******
      ****** ****** ****** ****** ****** ****** ****** ****** ****** ******
  13  ****** ****** ****** ****** ****** ****** ****** ****** ****** ******
      ****** ****** ****** ****** ****** ****** ****** ****** ****** ******
      ****** ****** ****** ****** ****** ****** ****** ****** ****** ******
  14  ****** ****** ****** ****** ****** ****** ****** ****** ****** ******
      ****** ****** ****** ****** ****** ****** ****** ****** ****** ******
      ****** ****** ****** ****** ****** ****** ****** ****** ****** ******
  15  ****** ****** ****** ****** ****** ****** ****** ****** ****** ******
      ****** ****** ****** ****** ****** ****** ****** ****** ****** ******
      ****** ****** ****** ****** ****** ****** ****** ****** ****** ******
  16  ****** ****** ****** ****** ****** ****** ****** ****** ****** ******
      ****** ****** ****** ****** ****** ****** ****** ****** ****** ******
      ****** ****** ****** ****** ****** ****** ****** ****** ****** ******
  17  ****** ****** ****** ****** ****** ****** ****** ****** ****** ******
      ****** ****** ****** ****** ****** ****** ****** ****** ****** ******
      ****** ****** ****** ****** ****** ****** ****** ****** ****** ******
  18  ****** ****** ****** ****** ****** ****** ****** ****** ****** ******
      ****** ****** ****** ****** ****** ****** ****** ****** ****** ******
      ****** ****** ****** ****** ****** ****** ****** ****** ****** ******
  19  ****** ****** ****** ****** ****** ****** ****** ****** ****** ******
      ****** ****** ****** ****** ****** ****** ****** ****** ****** ******
      ****** ****** ****** ****** ****** ****** ****** ****** ****** ******
  20  ****** ****** ****** ****** ****** ****** ****** ****** ****** ******
      ****** ****** ****** ****** ****** ****** ****** ****** ****** ******
      ****** ****** ****** ****** ****** ****** ****** ****** ****** ******
  21  ****** ****** ****** ****** ****** ****** ****** ****** ****** ******
      ****** ****** ****** ****** ****** ****** ****** ****** ****** ******
      ****** ****** ****** ****** ****** ****** ****** ****** ****** ******
  22  ****** ****** ****** ****** ****** ****** ****** ****** ****** ******
      ****** ****** ****** ****** ****** ****** ****** ****** ****** ******
      ****** ****** ****** ****** ****** ****** ****** ****** ****** ******
  23  ****** ****** ****** ****** ****** ****** ****** ****** ****** ******
      ****** ****** ****** ****** ****** ****** ****** ****** ****** ******
      ****** ****** ****** ****** ****** ****** ****** ****** ****** ******
  24  ****** ****** ****** ****** ****** ****** ****** ****** ****** ******
      ****** ****** ****** ****** ****** ****** ****** ****** ****** ******
      ****** ****** ****** ****** ****** ****** ****** ****** ****** ******
  25  ****** ****** ****** ****** ****** ****** ****** ****** ****** ******
      ****** ****** ****** ****** ****** ****** ****** ****** ****** ******
      ****** ****** ****** ****** ****** ****** ****** ****** ****** ******

 HEAD WILL BE SAVED ON UNIT   51 AT END OF TIME STEP    1, STRESS PERIOD    7
1
  VOLUMETRIC BUDGET FOR ENTIRE MODEL AT END OF TIME STEP    1, STRESS PERIOD   7
  ------------------------------------------------------------------------------

     CUMULATIVE VOLUMES      L**3       RATES FOR THIS TIME STEP      L**3/T
     ------------------                 ------------------------

           IN:                                      IN:
           ---                                      ---
             STORAGE =    20793718.4195               STORAGE =        3451.1828
       CONSTANT HEAD =   763675154.6063         CONSTANT HEAD =     1213154.5197
               WELLS =           0.0000                 WELLS =           0.0000
            RECHARGE =    15097200.0000              RECHARGE =           0.0000
      STREAM LEAKAGE =           0.0000        STREAM LEAKAGE =           0.0000

            TOTAL IN =   799566073.0257              TOTAL IN =     1216605.7025

          OUT:                                     OUT:
          ----                                     ----
             STORAGE =      456148.6969               STORAGE =         250.8059
       CONSTANT HEAD =           0.0000         CONSTANT HEAD =           0.0000
               WELLS =    51120000.0000                 WELLS =       80000.0000
            RECHARGE =           0.0000              RECHARGE =           0.0000
      STREAM LEAKAGE =   747989933.1453        STREAM LEAKAGE =     1136354.9433

           TOTAL OUT =   799566081.8421             TOTAL OUT =     1216605.7492

            IN - OUT =          -8.8164              IN - OUT =      -4.6734E-02

 PERCENT DISCREPANCY =          -0.00     PERCENT DISCREPANCY =          -0.00






         TIME SUMMARY AT END OF TIME STEP    1 IN STRESS PERIOD    7
                    SECONDS     MINUTES      HOURS       DAYS        YEARS
                    -----------------------------------------------------------
   TIME STEP LENGTH 7.86240E+06 1.31040E+05  2184.0      91.000     0.24914    
 STRESS PERIOD TIME 7.86240E+06 1.31040E+05  2184.0      91.000     0.24914    
         TOTAL TIME 5.52096E+07 9.20160E+05  15336.      639.00      1.7495    
1
1
                            STRESS PERIOD NO.    8, LENGTH =   91.00000    
                            -----------------------------------------------

                              NUMBER OF TIME STEPS =     1

                               MULTIPLIER FOR DELT =     1.500

                            INITIAL TIME STEP SIZE =   91.00000    

 WELL NO.  LAYER   ROW   COL   STRESS RATE         
 --------------------------------------------------
      1      1      5     18     -0.5000E+05
      2      1      5      2     -0.2641E+05
      3      1     23      5      -3589.    

      3 WELLS

                 RECHARGE =  1.000000E-03

 REUSING STREAM SEGMENT DATA FROM LAST STRESS PERIOD
 
 SOLVING FOR HEAD 


     6 CALLS TO PCG ROUTINE FOR TIME STEP   1 IN STRESS PERIOD    8
    22 TOTAL ITERATIONS

 OUTPUT CONTROL FOR STRESS PERIOD    8   TIME STEP    1
    SAVE BUDGET
    SAVE HEAD FOR ALL LAYERS
    PRINT HEAD FOR ALL LAYERS
 UBDSV2 SAVING "STREAMFLOW OUT  " ON UNIT  50 AT TIME STEP  1, STRESS PERIOD   8



 STREAM LISTING     PERIOD      8   STEP        1

 LAYER ROW COL. STREAM  RCH.  FLOW INTO     FLOW TO   FLOW OUT OF   OVRLND.     DIRECT     STREAM       STREAM     STREAM     STREAM   STREAMBED  STREAMBED
                SEG.NO.  NO.  STRM. RCH.    AQUIFER    STRM. RCH.    RUNOFF     PRECIP       ET          HEAD       DEPTH      WIDTH   CONDCTNC.   GRADIENT

   1   13    1     1     1    1.0000E+05 -2.6365E+04   1.2637E+05  0.000E+00  0.000E+00  0.000E+00  4.84172E+01  1.558E-01  2.000E+01  2.000E+04 -1.318E+00
   1   13    2     1     2    1.2637E+05 -3.5807E+04   1.6217E+05  0.000E+00  0.000E+00  0.000E+00  4.79643E+01  1.802E-01  2.000E+01  2.000E+04 -1.790E+00
   1   14    3     1     3    1.6217E+05 -3.1950E+04   1.9412E+05  0.000E+00  0.000E+00  0.000E+00  4.75114E+01  2.045E-01  2.000E+01  2.000E+04 -1.597E+00
   1   15    4     1     4    1.9412E+05 -3.1561E+04   2.2568E+05  0.000E+00  0.000E+00  0.000E+00  4.70552E+01  2.257E-01  2.000E+01  2.000E+04 -1.578E+00
   1   16    5     1     5    2.2568E+05 -3.3389E+04   2.5907E+05  0.000E+00  0.000E+00  0.000E+00  4.65983E+01  2.460E-01  2.000E+01  2.000E+04 -1.669E+00
   1   16    6     1     6    2.5907E+05 -2.9130E+04   2.8820E+05  0.000E+00  0.000E+00  0.000E+00  4.61396E+01  2.646E-01  2.000E+01  2.000E+04 -1.457E+00
   1   16    7     1     7    2.8820E+05 -2.8961E+04   3.1716E+05  0.000E+00  0.000E+00  0.000E+00  4.56789E+01  2.811E-01  2.000E+01  2.000E+04 -1.448E+00
   1   16    8     1     8    3.1716E+05 -2.9171E+04   3.4633E+05  0.000E+00  0.000E+00  0.000E+00  4.52175E+01  2.970E-01  2.000E+01  2.000E+04 -1.459E+00
   1   16    9     1     9    3.4633E+05 -2.9292E+04   3.7563E+05  0.000E+00  0.000E+00  0.000E+00  4.47557E+01  3.125E-01  2.000E+01  2.000E+04 -1.465E+00
   1   16   10     1    10    3.7563E+05 -2.9375E+04   4.0500E+05  0.000E+00  0.000E+00  0.000E+00  4.42934E+01  3.275E-01  2.000E+01  2.000E+04 -1.469E+00
   1   16   11     1    11    4.0500E+05 -3.0052E+04   4.3505E+05  0.000E+00  0.000E+00  0.000E+00  4.38308E+01  3.422E-01  2.000E+01  2.000E+04 -1.503E+00
   1   16   12     1    12    4.3505E+05 -3.5670E+04   4.7072E+05  0.000E+00  0.000E+00  0.000E+00  4.33694E+01  3.580E-01  2.000E+01  2.000E+04 -1.784E+00
   1   15   13     1    13    4.7072E+05 -3.4181E+04   5.0491E+05  0.000E+00  0.000E+00  0.000E+00  4.29084E+01  3.743E-01  2.000E+01  2.000E+04 -1.709E+00
   1   14   14     1    14    5.0491E+05 -3.4526E+04   5.3943E+05  0.000E+00  0.000E+00  0.000E+00  4.24468E+01  3.900E-01  2.000E+01  2.000E+04 -1.726E+00
   1   13   15     1    15    5.3943E+05 -3.6377E+04   5.7581E+05  0.000E+00  0.000E+00  0.000E+00  4.19852E+01  4.056E-01  2.000E+01  2.000E+04 -1.819E+00
   1   12   16     1    16    5.7581E+05 -4.1682E+04   6.1749E+05  0.000E+00  0.000E+00  0.000E+00  4.15247E+01  4.224E-01  2.000E+01  2.000E+04 -2.084E+00
   1   12   17     1    17    6.1749E+05 -3.2528E+04   6.5002E+05  0.000E+00  0.000E+00  0.000E+00  4.10630E+01  4.380E-01  2.000E+01  2.000E+04 -1.626E+00
   1   12   18     1    18    6.5002E+05 -3.0931E+04   6.8095E+05  0.000E+00  0.000E+00  0.000E+00  4.05988E+01  4.510E-01  2.000E+01  2.000E+04 -1.547E+00
   1   12   19     1    19    6.8095E+05 -3.4808E+04   7.1576E+05  0.000E+00  0.000E+00  0.000E+00  4.01347E+01  4.643E-01  2.000E+01  2.000E+04 -1.740E+00
   1   13   20     1    20    7.1576E+05 -2.6020E+04   7.4178E+05  0.000E+00  0.000E+00  0.000E+00  3.96695E+01  4.763E-01  2.000E+01  2.000E+04 -1.301E+00
   1   14   21     1    21    7.4178E+05 -1.9490E+04   7.6127E+05  0.000E+00  0.000E+00  0.000E+00  3.92011E+01  4.852E-01  2.000E+01  2.000E+04 -9.745E-01
   1   14   22     1    22    7.6127E+05 -1.6697E+03   7.6294E+05  0.000E+00  0.000E+00  0.000E+00  3.87279E+01  4.893E-01  2.000E+01  2.000E+04 -8.348E-02
   1    9   30     2     1    5.0000E+04 -2.6392E+04   7.6392E+04  0.000E+00  0.000E+00  0.000E+00  4.02583E+01  1.333E-01  2.000E+01  2.000E+04 -1.320E+00
   1    9   29     2     2    7.6392E+04 -2.8816E+04   1.0521E+05  0.000E+00  0.000E+00  0.000E+00  4.00407E+01  1.657E-01  2.000E+01  2.000E+04 -1.441E+00
   1    9   28     2     3    1.0521E+05 -3.2986E+04   1.3819E+05  0.000E+00  0.000E+00  0.000E+00  3.98226E+01  1.976E-01  2.000E+01  2.000E+04 -1.649E+00
   1    9   27     2     4    1.3819E+05 -4.6756E+04   1.8495E+05  0.000E+00  0.000E+00  0.000E+00  3.96092E+01  2.342E-01  2.000E+01  2.000E+04 -2.338E+00
   1   10   26     2     5    1.8495E+05 -3.2661E+04   2.1761E+05  0.000E+00  0.000E+00  0.000E+00  3.93922E+01  2.672E-01  2.000E+01  2.000E+04 -1.633E+00
   1   11   25     2     6    2.1761E+05 -2.4293E+04   2.4191E+05  0.000E+00  0.000E+00  0.000E+00  3.91643E+01  2.893E-01  2.000E+01  2.000E+04 -1.215E+00
   1   12   24     2     7    2.4191E+05 -1.7805E+04   2.5971E+05  0.000E+00  0.000E+00  0.000E+00  3.89299E+01  3.049E-01  2.000E+01  2.000E+04 -8.903E-01
   1   13   23     2     8    2.5971E+05 -1.2664E+04   2.7237E+05  0.000E+00  0.000E+00  0.000E+00  3.86909E+01  3.159E-01  2.000E+01  2.000E+04 -6.332E-01
   1   14   22     2     9    2.7237E+05 -7.2686E+03   2.7964E+05  0.000E+00  0.000E+00  0.000E+00  3.84479E+01  3.229E-01  2.000E+01  2.000E+04 -3.634E-01
   1   14   22     3     1    1.0426E+06 -1.5274E+04   1.0579E+06  0.000E+00  0.000E+00  0.000E+00  3.80477E+01  4.921E-01  2.000E+01  2.000E+04 -7.637E-01
   1   15   23     3     2    1.0579E+06 -2.3735E+04   1.0816E+06  0.000E+00  0.000E+00  0.000E+00  3.71642E+01  4.976E-01  2.000E+01  2.000E+04 -1.187E+00
   1   15   24     3     3    1.0816E+06 -1.9759E+04   1.1013E+06  0.000E+00  0.000E+00  0.000E+00  3.62814E+01  5.036E-01  2.000E+01  2.000E+04 -9.880E-01
   1   15   25     3     4    1.1013E+06 -1.9357E+04   1.1207E+06  0.000E+00  0.000E+00  0.000E+00  3.53979E+01  5.090E-01  2.000E+01  2.000E+04 -9.679E-01
   1   15   26     3     5    1.1207E+06 -2.2118E+04   1.1428E+06  0.000E+00  0.000E+00  0.000E+00  3.45147E+01  5.147E-01  2.000E+01  2.000E+04 -1.106E+00
   1   16   27     3     6    1.1428E+06 -2.9335E+04   1.1722E+06  0.000E+00  0.000E+00  0.000E+00  3.36328E+01  5.217E-01  2.000E+01  2.000E+04 -1.467E+00
   1   17   28     3     7    1.1722E+06 -3.6411E+04   1.2086E+06  0.000E+00  0.000E+00  0.000E+00  3.27527E+01  5.305E-01  2.000E+01  2.000E+04 -1.821E+00
   1   18   29     3     8    1.2086E+06 -4.7409E+04   1.2560E+06  0.000E+00  0.000E+00  0.000E+00  3.18750E+01  5.417E-01  2.000E+01  2.000E+04 -2.370E+00
   1   18   30     3     9    1.2560E+06 -4.3813E+04   1.2998E+06  0.000E+00  0.000E+00  0.000E+00  3.09980E+01  5.536E-01  2.000E+01  2.000E+04 -2.191E+00



1
              HEAD IN LAYER   1 AT END OF TIME STEP   1 IN STRESS PERIOD    8
  ---------------------------------------------------------------------------

          1      2      3      4      5      6      7      8      9     10
         11     12     13     14     15     16     17     18     19     20
         21     22     23     24     25     26     27     28     29     30
 .........................................................................
   1  ****** ****** ****** ****** ****** ****** ****** ****** ****** ******
      ****** ****** ****** ****** ****** ****** ****** ****** ****** ******
      ****** ****** ****** ****** ****** ****** ****** ****** ****** ******
   2  ****** ****** ****** ****** ****** ****** ****** ****** ****** ******
      ****** ****** ****** ****** ****** ****** ****** ****** ****** ******
      ****** ****** ****** ****** ****** ****** ****** ****** ****** ******
   3  ****** ****** ****** ****** ****** ****** ****** ****** ****** ******
      ****** ****** ****** ****** ****** ****** ****** ****** ****** ******
      ****** ****** ****** ****** ****** ****** ****** ****** ****** ******
   4  ****** ****** ****** ****** ****** ****** ****** ****** ****** ******
      ****** ****** ****** ****** ****** ****** ****** ****** ****** ******
      ****** ****** ****** ****** ****** ****** ****** ****** ****** ******
   5  ****** ****** ****** ****** ****** ****** ****** ****** ****** ******
      ****** ****** ****** ****** ****** ****** ****** ****** ****** ******
      ****** ****** ****** ****** ****** ****** ****** ****** ****** ******
   6  ****** ****** ****** ****** ****** ****** ****** ****** ****** ******
      ****** ****** ****** ****** ****** ****** ****** ****** ****** ******
      ****** ****** ****** ****** ****** ****** ****** ****** ****** ******
   7  ****** ****** ****** ****** ****** ****** ****** ****** ****** ******
      ****** ****** ****** ****** ****** ****** ****** ****** ****** ******
      ****** ****** ****** ****** ****** ****** ****** ****** ****** ******
   8  ****** ****** ****** ****** ****** ****** ****** ****** ****** ******
      ****** ****** ****** ****** ****** ****** ****** ****** ****** ******
      ****** ****** ****** ****** ****** ****** ****** ****** ****** ******
   9  ****** ****** ****** ****** ****** ****** ****** ****** ****** ******
      ****** ****** ****** ****** ****** ****** ****** ****** ****** ******
      ****** ****** ****** ****** ****** ****** ****** ****** ****** ******
  10  ****** ****** ****** ****** ****** ****** ****** ****** ****** ******
      ****** ****** ****** ****** ****** ****** ****** ****** ****** ******
      ****** ****** ****** ****** ****** ****** ****** ****** ****** ******
  11  ****** ****** ****** ****** ****** ****** ****** ****** ****** ******
      ****** ****** ****** ****** ****** ****** ****** ****** ****** ******
      ****** ****** ****** ****** ****** ****** ****** ****** ****** ******
  12  ****** ****** ****** ****** ****** ****** ****** ****** ****** ******
      ****** ****** ****** ****** ****** ****** ****** ****** ****** ******
      ****** ****** ****** ****** ****** ****** ****** ****** ****** ******
  13  ****** ****** ****** ****** ****** ****** ****** ****** ****** ******
      ****** ****** ****** ****** ****** ****** ****** ****** ****** ******
      ****** ****** ****** ****** ****** ****** ****** ****** ****** ******
  14  ****** ****** ****** ****** ****** ****** ****** ****** ****** ******
      ****** ****** ****** ****** ****** ****** ****** ****** ****** ******
      ****** ****** ****** ****** ****** ****** ****** ****** ****** ******
  15  ****** ****** ****** ****** ****** ****** ****** ****** ****** ******
      ****** ****** ****** ****** ****** ****** ****** ****** ****** ******
      ****** ****** ****** ****** ****** ****** ****** ****** ****** ******
  16  ****** ****** ****** ****** ****** ****** ****** ****** ****** ******
      ****** ****** ****** ****** ****** ****** ****** ****** ****** ******
      ****** ****** ****** ****** ****** ****** ****** ****** ****** ******
  17  ****** ****** ****** ****** ****** ****** ****** ****** ****** ******
      ****** ****** ****** ****** ****** ****** ****** ****** ****** ******
      ****** ****** ****** ****** ****** ****** ****** ****** ****** ******
  18  ****** ****** ****** ****** ****** ****** ****** ****** ****** ******
      ****** ****** ****** ****** ****** ****** ****** ****** ****** ******
      ****** ****** ****** ****** ****** ****** ****** ****** ****** ******
  19  ****** ****** ****** ****** ****** ****** ****** ****** ****** ******
      ****** ****** ****** ****** ****** ****** ****** ****** ****** ******
      ****** ****** ****** ****** ****** ****** ****** ****** ****** ******
  20  ****** ****** ****** ****** ****** ****** ****** ****** ****** ******
      ****** ****** ****** ****** ****** ****** ****** ****** ****** ******
      ****** ****** ****** ****** ****** ****** ****** ****** ****** ******
  21  ****** ****** ****** ****** ****** ****** ****** ****** ****** ******
      ****** ****** ****** ****** ****** ****** ****** ****** ****** ******
      ****** ****** ****** ****** ****** ****** ****** ****** ****** ******
  22  ****** ****** ****** ****** ****** ****** ****** ****** ****** ******
      ****** ****** ****** ****** ****** ****** ****** ****** ****** ******
      ****** ****** ****** ****** ****** ****** ****** ****** ****** ******
  23  ****** ****** ****** ****** ****** ****** ****** ****** ****** ******
      ****** ****** ****** ****** ****** ****** ****** ****** ****** ******
      ****** ****** ****** ****** ****** ****** ****** ****** ****** ******
  24  ****** ****** ****** ****** ****** ****** ****** ****** ****** ******
      ****** ****** ****** ****** ****** ****** ****** ****** ****** ******
      ****** ****** ****** ****** ****** ****** ****** ****** ****** ******
  25  ****** ****** ****** ****** ****** ****** ****** ****** ****** ******
      ****** ****** ****** ****** ****** ****** ****** ****** ****** ******
      ****** ****** ****** ****** ****** ****** ****** ****** ****** ******

 HEAD WILL BE SAVED ON UNIT   51 AT END OF TIME STEP    1, STRESS PERIOD    8
1
  VOLUMETRIC BUDGET FOR ENTIRE MODEL AT END OF TIME STEP    1, STRESS PERIOD   8
  ------------------------------------------------------------------------------

     CUMULATIVE VOLUMES      L**3       RATES FOR THIS TIME STEP      L**3/T
     ------------------                 ------------------------

           IN:                                      IN:
           ---                                      ---
             STORAGE =    20795496.0723               STORAGE =          19.5346
       CONSTANT HEAD =   873188690.7407         CONSTANT HEAD =     1203445.4520
               WELLS =           0.0000                 WELLS =           0.0000
            RECHARGE =    17608800.0000              RECHARGE =       27600.0000
      STREAM LEAKAGE =           0.0000        STREAM LEAKAGE =           0.0000

            TOTAL IN =   911592986.8130              TOTAL IN =     1231064.9867

          OUT:                                     OUT:
          ----                                     ----
             STORAGE =      572014.8974               STORAGE =        1273.2550
       CONSTANT HEAD =           0.0000         CONSTANT HEAD =           0.0000
               WELLS =    58400000.0000                 WELLS =       80000.0000
            RECHARGE =           0.0000              RECHARGE =           0.0000
      STREAM LEAKAGE =   852620978.6915        STREAM LEAKAGE =     1149791.7093

           TOTAL OUT =   911592993.5889             TOTAL OUT =     1231064.9643

            IN - OUT =          -6.7759              IN - OUT =       2.2423E-02

 PERCENT DISCREPANCY =          -0.00     PERCENT DISCREPANCY =           0.00






         TIME SUMMARY AT END OF TIME STEP    1 IN STRESS PERIOD    8
                    SECONDS     MINUTES      HOURS       DAYS        YEARS
                    -----------------------------------------------------------
   TIME STEP LENGTH 7.86240E+06 1.31040E+05  2184.0      91.000     0.24914    
 STRESS PERIOD TIME 7.86240E+06 1.31040E+05  2184.0      91.000     0.24914    
         TOTAL TIME 6.30720E+07 1.05120E+06  17520.      730.00      1.9986    
1
1
                            STRESS PERIOD NO.    9, LENGTH =   92.00000    
                            -----------------------------------------------

                              NUMBER OF TIME STEPS =     1

                               MULTIPLIER FOR DELT =     1.500

                            INITIAL TIME STEP SIZE =   92.00000    

 WELL NO.  LAYER   ROW   COL   STRESS RATE         
 --------------------------------------------------
      1      1      5     18     -0.5000E+05
      2      1      5      2     -0.3000E+05

      2 WELLS

                 RECHARGE =  5.000000E-04

 REUSING STREAM SEGMENT DATA FROM LAST STRESS PERIOD
 
 SOLVING FOR HEAD 


     5 CALLS TO PCG ROUTINE FOR TIME STEP   1 IN STRESS PERIOD    9
    20 TOTAL ITERATIONS

 OUTPUT CONTROL FOR STRESS PERIOD    9   TIME STEP    1
    SAVE BUDGET
    SAVE HEAD FOR ALL LAYERS
    PRINT HEAD FOR ALL LAYERS
 UBDSV2 SAVING "STREAMFLOW OUT  " ON UNIT  50 AT TIME STEP  1, STRESS PERIOD   9



 STREAM LISTING     PERIOD      9   STEP        1

 LAYER ROW COL. STREAM  RCH.  FLOW INTO     FLOW TO   FLOW OUT OF   OVRLND.     DIRECT     STREAM       STREAM     STREAM     STREAM   STREAMBED  STREAMBED
                SEG.NO.  NO.  STRM. RCH.    AQUIFER    STRM. RCH.    RUNOFF     PRECIP       ET          HEAD       DEPTH      WIDTH   CONDCTNC.   GRADIENT

   1   13    1     1     1    1.0000E+05 -2.6034E+04   1.2603E+05  0.000E+00  0.000E+00  0.000E+00  4.84170E+01  1.557E-01  2.000E+01  2.000E+04 -1.302E+00
   1   13    2     1     2    1.2603E+05 -3.5408E+04   1.6144E+05  0.000E+00  0.000E+00  0.000E+00  4.79639E+01  1.798E-01  2.000E+01  2.000E+04 -1.770E+00
   1   14    3     1     3    1.6144E+05 -3.1653E+04   1.9310E+05  0.000E+00  0.000E+00  0.000E+00  4.75108E+01  2.039E-01  2.000E+01  2.000E+04 -1.583E+00
   1   15    4     1     4    1.9310E+05 -3.1340E+04   2.2443E+05  0.000E+00  0.000E+00  0.000E+00  4.70545E+01  2.250E-01  2.000E+01  2.000E+04 -1.567E+00
   1   16    5     1     5    2.2443E+05 -3.3259E+04   2.5769E+05  0.000E+00  0.000E+00  0.000E+00  4.65975E+01  2.452E-01  2.000E+01  2.000E+04 -1.663E+00
   1   16    6     1     6    2.5769E+05 -2.8996E+04   2.8669E+05  0.000E+00  0.000E+00  0.000E+00  4.61388E+01  2.638E-01  2.000E+01  2.000E+04 -1.450E+00
   1   16    7     1     7    2.8669E+05 -2.8816E+04   3.1551E+05  0.000E+00  0.000E+00  0.000E+00  4.56780E+01  2.803E-01  2.000E+01  2.000E+04 -1.441E+00
   1   16    8     1     8    3.1551E+05 -2.9016E+04   3.4452E+05  0.000E+00  0.000E+00  0.000E+00  4.52166E+01  2.961E-01  2.000E+01  2.000E+04 -1.451E+00
   1   16    9     1     9    3.4452E+05 -2.9132E+04   3.7365E+05  0.000E+00  0.000E+00  0.000E+00  4.47547E+01  3.115E-01  2.000E+01  2.000E+04 -1.457E+00
   1   16   10     1    10    3.7365E+05 -2.9210E+04   4.0286E+05  0.000E+00  0.000E+00  0.000E+00  4.42923E+01  3.264E-01  2.000E+01  2.000E+04 -1.461E+00
   1   16   11     1    11    4.0286E+05 -2.9882E+04   4.3275E+05  0.000E+00  0.000E+00  0.000E+00  4.38298E+01  3.411E-01  2.000E+01  2.000E+04 -1.494E+00
   1   16   12     1    12    4.3275E+05 -3.5472E+04   4.6822E+05  0.000E+00  0.000E+00  0.000E+00  4.33683E+01  3.569E-01  2.000E+01  2.000E+04 -1.774E+00
   1   15   13     1    13    4.6822E+05 -3.3943E+04   5.0216E+05  0.000E+00  0.000E+00  0.000E+00  4.29072E+01  3.731E-01  2.000E+01  2.000E+04 -1.697E+00
   1   14   14     1    14    5.0216E+05 -3.4273E+04   5.3644E+05  0.000E+00  0.000E+00  0.000E+00  4.24455E+01  3.887E-01  2.000E+01  2.000E+04 -1.714E+00
   1   13   15     1    15    5.3644E+05 -3.6124E+04   5.7256E+05  0.000E+00  0.000E+00  0.000E+00  4.19838E+01  4.043E-01  2.000E+01  2.000E+04 -1.806E+00
   1   12   16     1    16    5.7256E+05 -4.1437E+04   6.1400E+05  0.000E+00  0.000E+00  0.000E+00  4.15233E+01  4.210E-01  2.000E+01  2.000E+04 -2.072E+00
   1   12   17     1    17    6.1400E+05 -3.2335E+04   6.4633E+05  0.000E+00  0.000E+00  0.000E+00  4.10615E+01  4.365E-01  2.000E+01  2.000E+04 -1.617E+00
   1   12   18     1    18    6.4633E+05 -3.0750E+04   6.7708E+05  0.000E+00  0.000E+00  0.000E+00  4.05972E+01  4.495E-01  2.000E+01  2.000E+04 -1.537E+00
   1   12   19     1    19    6.7708E+05 -3.4612E+04   7.1169E+05  0.000E+00  0.000E+00  0.000E+00  4.01331E+01  4.627E-01  2.000E+01  2.000E+04 -1.731E+00
   1   13   20     1    20    7.1169E+05 -2.5839E+04   7.3753E+05  0.000E+00  0.000E+00  0.000E+00  3.96678E+01  4.747E-01  2.000E+01  2.000E+04 -1.292E+00
   1   14   21     1    21    7.3753E+05 -1.9336E+04   7.5687E+05  0.000E+00  0.000E+00  0.000E+00  3.91994E+01  4.835E-01  2.000E+01  2.000E+04 -9.668E-01
   1   14   22     1    22    7.5687E+05 -1.6152E+03   7.5848E+05  0.000E+00  0.000E+00  0.000E+00  3.87262E+01  4.875E-01  2.000E+01  2.000E+04 -8.076E-02
   1    9   30     2     1    5.0000E+04 -2.6251E+04   7.6251E+04  0.000E+00  0.000E+00  0.000E+00  4.02583E+01  1.333E-01  2.000E+01  2.000E+04 -1.313E+00
   1    9   29     2     2    7.6251E+04 -2.8675E+04   1.0493E+05  0.000E+00  0.000E+00  0.000E+00  4.00405E+01  1.655E-01  2.000E+01  2.000E+04 -1.434E+00
   1    9   28     2     3    1.0493E+05 -3.2840E+04   1.3777E+05  0.000E+00  0.000E+00  0.000E+00  3.98222E+01  1.972E-01  2.000E+01  2.000E+04 -1.642E+00
   1    9   27     2     4    1.3777E+05 -4.6577E+04   1.8434E+05  0.000E+00  0.000E+00  0.000E+00  3.96088E+01  2.338E-01  2.000E+01  2.000E+04 -2.329E+00
   1   10   26     2     5    1.8434E+05 -3.2476E+04   2.1682E+05  0.000E+00  0.000E+00  0.000E+00  3.93917E+01  2.667E-01  2.000E+01  2.000E+04 -1.624E+00
   1   11   25     2     6    2.1682E+05 -2.4114E+04   2.4093E+05  0.000E+00  0.000E+00  0.000E+00  3.91636E+01  2.886E-01  2.000E+01  2.000E+04 -1.206E+00
   1   12   24     2     7    2.4093E+05 -1.7644E+04   2.5858E+05  0.000E+00  0.000E+00  0.000E+00  3.89291E+01  3.041E-01  2.000E+01  2.000E+04 -8.822E-01
   1   13   23     2     8    2.5858E+05 -1.2533E+04   2.7111E+05  0.000E+00  0.000E+00  0.000E+00  3.86900E+01  3.150E-01  2.000E+01  2.000E+04 -6.266E-01
   1   14   22     2     9    2.7111E+05 -7.1983E+03   2.7831E+05  0.000E+00  0.000E+00  0.000E+00  3.84470E+01  3.220E-01  2.000E+01  2.000E+04 -3.599E-01
   1   14   22     3     1    1.0368E+06 -1.5218E+04   1.0520E+06  0.000E+00  0.000E+00  0.000E+00  3.80460E+01  4.905E-01  2.000E+01  2.000E+04 -7.609E-01
   1   15   23     3     2    1.0520E+06 -2.3591E+04   1.0756E+06  0.000E+00  0.000E+00  0.000E+00  3.71626E+01  4.959E-01  2.000E+01  2.000E+04 -1.180E+00
   1   15   24     3     3    1.0756E+06 -1.9639E+04   1.0952E+06  0.000E+00  0.000E+00  0.000E+00  3.62797E+01  5.019E-01  2.000E+01  2.000E+04 -9.820E-01
   1   15   25     3     4    1.0952E+06 -1.9238E+04   1.1145E+06  0.000E+00  0.000E+00  0.000E+00  3.53962E+01  5.073E-01  2.000E+01  2.000E+04 -9.619E-01
   1   15   26     3     5    1.1145E+06 -2.1978E+04   1.1365E+06  0.000E+00  0.000E+00  0.000E+00  3.45130E+01  5.130E-01  2.000E+01  2.000E+04 -1.099E+00
   1   16   27     3     6    1.1365E+06 -2.9166E+04   1.1656E+06  0.000E+00  0.000E+00  0.000E+00  3.36311E+01  5.199E-01  2.000E+01  2.000E+04 -1.458E+00
   1   17   28     3     7    1.1656E+06 -3.6238E+04   1.2019E+06  0.000E+00  0.000E+00  0.000E+00  3.27510E+01  5.288E-01  2.000E+01  2.000E+04 -1.812E+00
   1   18   29     3     8    1.2019E+06 -4.7247E+04   1.2491E+06  0.000E+00  0.000E+00  0.000E+00  3.18732E+01  5.399E-01  2.000E+01  2.000E+04 -2.362E+00
   1   18   30     3     9    1.2491E+06 -4.3678E+04   1.2928E+06  0.000E+00  0.000E+00  0.000E+00  3.09962E+01  5.518E-01  2.000E+01  2.000E+04 -2.184E+00



1
              HEAD IN LAYER   1 AT END OF TIME STEP   1 IN STRESS PERIOD    9
  ---------------------------------------------------------------------------

          1      2      3      4      5      6      7      8      9     10
         11     12     13     14     15     16     17     18     19     20
         21     22     23     24     25     26     27     28     29     30
 .........................................................................
   1  ****** ****** ****** ****** ****** ****** ****** ****** ****** ******
      ****** ****** ****** ****** ****** ****** ****** ****** ****** ******
      ****** ****** ****** ****** ****** ****** ****** ****** ****** ******
   2  ****** ****** ****** ****** ****** ****** ****** ****** ****** ******
      ****** ****** ****** ****** ****** ****** ****** ****** ****** ******
      ****** ****** ****** ****** ****** ****** ****** ****** ****** ******
   3  ****** ****** ****** ****** ****** ****** ****** ****** ****** ******
      ****** ****** ****** ****** ****** ****** ****** ****** ****** ******
      ****** ****** ****** ****** ****** ****** ****** ****** ****** ******
   4  ****** ****** ****** ****** ****** ****** ****** ****** ****** ******
      ****** ****** ****** ****** ****** ****** ****** ****** ****** ******
      ****** ****** ****** ****** ****** ****** ****** ****** ****** ******
   5  ****** ****** ****** ****** ****** ****** ****** ****** ****** ******
      ****** ****** ****** ****** ****** ****** ****** ****** ****** ******
      ****** ****** ****** ****** ****** ****** ****** ****** ****** ******
   6  ****** ****** ****** ****** ****** ****** ****** ****** ****** ******
      ****** ****** ****** ****** ****** ****** ****** ****** ****** ******
      ****** ****** ****** ****** ****** ****** ****** ****** ****** ******
   7  ****** ****** ****** ****** ****** ****** ****** ****** ****** ******
      ****** ****** ****** ****** ****** ****** ****** ****** ****** ******
      ****** ****** ****** ****** ****** ****** ****** ****** ****** ******
   8  ****** ****** ****** ****** ****** ****** ****** ****** ****** ******
      ****** ****** ****** ****** ****** ****** ****** ****** ****** ******
      ****** ****** ****** ****** ****** ****** ****** ****** ****** ******
   9  ****** ****** ****** ****** ****** ****** ****** ****** ****** ******
      ****** ****** ****** ****** ****** ****** ****** ****** ****** ******
      ****** ****** ****** ****** ****** ****** ****** ****** ****** ******
  10  ****** ****** ****** ****** ****** ****** ****** ****** ****** ******
      ****** ****** ****** ****** ****** ****** ****** ****** ****** ******
      ****** ****** ****** ****** ****** ****** ****** ****** ****** ******
  11  ****** ****** ****** ****** ****** ****** ****** ****** ****** ******
      ****** ****** ****** ****** ****** ****** ****** ****** ****** ******
      ****** ****** ****** ****** ****** ****** ****** ****** ****** ******
  12  ****** ****** ****** ****** ****** ****** ****** ****** ****** ******
      ****** ****** ****** ****** ****** ****** ****** ****** ****** ******
      ****** ****** ****** ****** ****** ****** ****** ****** ****** ******
  13  ****** ****** ****** ****** ****** ****** ****** ****** ****** ******
      ****** ****** ****** ****** ****** ****** ****** ****** ****** ******
      ****** ****** ****** ****** ****** ****** ****** ****** ****** ******
  14  ****** ****** ****** ****** ****** ****** ****** ****** ****** ******
      ****** ****** ****** ****** ****** ****** ****** ****** ****** ******
      ****** ****** ****** ****** ****** ****** ****** ****** ****** ******
  15  ****** ****** ****** ****** ****** ****** ****** ****** ****** ******
      ****** ****** ****** ****** ****** ****** ****** ****** ****** ******
      ****** ****** ****** ****** ****** ****** ****** ****** ****** ******
  16  ****** ****** ****** ****** ****** ****** ****** ****** ****** ******
      ****** ****** ****** ****** ****** ****** ****** ****** ****** ******
      ****** ****** ****** ****** ****** ****** ****** ****** ****** ******
  17  ****** ****** ****** ****** ****** ****** ****** ****** ****** ******
      ****** ****** ****** ****** ****** ****** ****** ****** ****** ******
      ****** ****** ****** ****** ****** ****** ****** ****** ****** ******
  18  ****** ****** ****** ****** ****** ****** ****** ****** ****** ******
      ****** ****** ****** ****** ****** ****** ****** ****** ****** ******
      ****** ****** ****** ****** ****** ****** ****** ****** ****** ******
  19  ****** ****** ****** ****** ****** ****** ****** ****** ****** ******
      ****** ****** ****** ****** ****** ****** ****** ****** ****** ******
      ****** ****** ****** ****** ****** ****** ****** ****** ****** ******
  20  ****** ****** ****** ****** ****** ****** ****** ****** ****** ******
      ****** ****** ****** ****** ****** ****** ****** ****** ****** ******
      ****** ****** ****** ****** ****** ****** ****** ****** ****** ******
  21  ****** ****** ****** ****** ****** ****** ****** ****** ****** ******
      ****** ****** ****** ****** ****** ****** ****** ****** ****** ******
      ****** ****** ****** ****** ****** ****** ****** ****** ****** ******
  22  ****** ****** ****** ****** ****** ****** ****** ****** ****** ******
      ****** ****** ****** ****** ****** ****** ****** ****** ****** ******
      ****** ****** ****** ****** ****** ****** ****** ****** ****** ******
  23  ****** ****** ****** ****** ****** ****** ****** ****** ****** ******
      ****** ****** ****** ****** ****** ****** ****** ****** ****** ******
      ****** ****** ****** ****** ****** ****** ****** ****** ****** ******
  24  ****** ****** ****** ****** ****** ****** ****** ****** ****** ******
      ****** ****** ****** ****** ****** ****** ****** ****** ****** ******
      ****** ****** ****** ****** ****** ****** ****** ****** ****** ******
  25  ****** ****** ****** ****** ****** ****** ****** ****** ****** ******
      ****** ****** ****** ****** ****** ****** ****** ****** ****** ******
      ****** ****** ****** ****** ****** ****** ****** ****** ****** ******

 HEAD WILL BE SAVED ON UNIT   51 AT END OF TIME STEP    1, STRESS PERIOD    9
1
  VOLUMETRIC BUDGET FOR ENTIRE MODEL AT END OF TIME STEP    1, STRESS PERIOD   9
  ------------------------------------------------------------------------------

     CUMULATIVE VOLUMES      L**3       RATES FOR THIS TIME STEP      L**3/T
     ------------------                 ------------------------

           IN:                                      IN:
           ---                                      ---
             STORAGE =    20866663.6967               STORAGE =         773.5611
       CONSTANT HEAD =   984348285.8536         CONSTANT HEAD =     1208256.4686
               WELLS =           0.0000                 WELLS =           0.0000
            RECHARGE =    18878400.0000              RECHARGE =       13800.0000
      STREAM LEAKAGE =           0.0000        STREAM LEAKAGE =           0.0000

            TOTAL IN =  1024093349.5503              TOTAL IN =     1222830.0298

          OUT:                                     OUT:
          ----                                     ----
             STORAGE =      576211.2729               STORAGE =          45.6128
       CONSTANT HEAD =           0.0000         CONSTANT HEAD =           0.0000
               WELLS =    65760000.0000                 WELLS =       80000.0000
            RECHARGE =           0.0000              RECHARGE =           0.0000
      STREAM LEAKAGE =   957757147.4107        STREAM LEAKAGE =     1142784.4426

           TOTAL OUT =  1024093358.6836             TOTAL OUT =     1222830.0554

            IN - OUT =          -9.1333              IN - OUT =      -2.5624E-02

 PERCENT DISCREPANCY =          -0.00     PERCENT DISCREPANCY =          -0.00






         TIME SUMMARY AT END OF TIME STEP    1 IN STRESS PERIOD    9
                    SECONDS     MINUTES      HOURS       DAYS        YEARS
                    -----------------------------------------------------------
   TIME STEP LENGTH 7.94880E+06 1.32480E+05  2208.0      92.000     0.25188    
 STRESS PERIOD TIME 7.94880E+06 1.32480E+05  2208.0      92.000     0.25188    
         TOTAL TIME 7.10208E+07 1.18368E+06  19728.      822.00      2.2505    
1
1
                            STRESS PERIOD NO.   10, LENGTH =   91.00000    
                            -----------------------------------------------

                              NUMBER OF TIME STEPS =     1

                               MULTIPLIER FOR DELT =     1.500

                            INITIAL TIME STEP SIZE =   91.00000    

 WELL NO.  LAYER   ROW   COL   STRESS RATE         
 --------------------------------------------------
      1      1      5     18     -0.5000E+05
      2      1      5      2     -0.1245E+05
      3      1     23      5     -0.1755E+05

      3 WELLS

                 RECHARGE =  2.000000E-03

 REUSING STREAM SEGMENT DATA FROM LAST STRESS PERIOD
 
 SOLVING FOR HEAD 


     6 CALLS TO PCG ROUTINE FOR TIME STEP   1 IN STRESS PERIOD   10
    22 TOTAL ITERATIONS

 OUTPUT CONTROL FOR STRESS PERIOD   10   TIME STEP    1
    SAVE BUDGET
    SAVE HEAD FOR ALL LAYERS
    PRINT HEAD FOR ALL LAYERS
 UBDSV2 SAVING "STREAMFLOW OUT  " ON UNIT  50 AT TIME STEP  1, STRESS PERIOD  10



 STREAM LISTING     PERIOD     10   STEP        1

 LAYER ROW COL. STREAM  RCH.  FLOW INTO     FLOW TO   FLOW OUT OF   OVRLND.     DIRECT     STREAM       STREAM     STREAM     STREAM   STREAMBED  STREAMBED
                SEG.NO.  NO.  STRM. RCH.    AQUIFER    STRM. RCH.    RUNOFF     PRECIP       ET          HEAD       DEPTH      WIDTH   CONDCTNC.   GRADIENT

   1   13    1     1     1    1.0000E+05 -2.7364E+04   1.2736E+05  0.000E+00  0.000E+00  0.000E+00  4.84176E+01  1.562E-01  2.000E+01  2.000E+04 -1.368E+00
   1   13    2     1     2    1.2736E+05 -3.7023E+04   1.6439E+05  0.000E+00  0.000E+00  0.000E+00  4.79655E+01  1.814E-01  2.000E+01  2.000E+04 -1.851E+00
   1   14    3     1     3    1.6439E+05 -3.2742E+04   1.9713E+05  0.000E+00  0.000E+00  0.000E+00  4.75132E+01  2.063E-01  2.000E+01  2.000E+04 -1.637E+00
   1   15    4     1     4    1.9713E+05 -3.2057E+04   2.2919E+05  0.000E+00  0.000E+00  0.000E+00  4.70573E+01  2.278E-01  2.000E+01  2.000E+04 -1.603E+00
   1   16    5     1     5    2.2919E+05 -3.3549E+04   2.6273E+05  0.000E+00  0.000E+00  0.000E+00  4.66005E+01  2.482E-01  2.000E+01  2.000E+04 -1.677E+00
   1   16    6     1     6    2.6273E+05 -2.9354E+04   2.9209E+05  0.000E+00  0.000E+00  0.000E+00  4.61418E+01  2.668E-01  2.000E+01  2.000E+04 -1.468E+00
   1   16    7     1     7    2.9209E+05 -2.9233E+04   3.2132E+05  0.000E+00  0.000E+00  0.000E+00  4.56811E+01  2.834E-01  2.000E+01  2.000E+04 -1.462E+00
   1   16    8     1     8    3.2132E+05 -2.9479E+04   3.5080E+05  0.000E+00  0.000E+00  0.000E+00  4.52198E+01  2.993E-01  2.000E+01  2.000E+04 -1.474E+00
   1   16    9     1     9    3.5080E+05 -2.9627E+04   3.8043E+05  0.000E+00  0.000E+00  0.000E+00  4.47581E+01  3.149E-01  2.000E+01  2.000E+04 -1.481E+00
   1   16   10     1    10    3.8043E+05 -2.9727E+04   4.1015E+05  0.000E+00  0.000E+00  0.000E+00  4.42959E+01  3.300E-01  2.000E+01  2.000E+04 -1.486E+00
   1   16   11     1    11    4.1015E+05 -3.0419E+04   4.4057E+05  0.000E+00  0.000E+00  0.000E+00  4.38334E+01  3.448E-01  2.000E+01  2.000E+04 -1.521E+00
   1   16   12     1    12    4.4057E+05 -3.6097E+04   4.7667E+05  0.000E+00  0.000E+00  0.000E+00  4.33721E+01  3.607E-01  2.000E+01  2.000E+04 -1.805E+00
   1   15   13     1    13    4.7667E+05 -3.4738E+04   5.1141E+05  0.000E+00  0.000E+00  0.000E+00  4.29113E+01  3.772E-01  2.000E+01  2.000E+04 -1.737E+00
   1   14   14     1    14    5.1141E+05 -3.5131E+04   5.4654E+05  0.000E+00  0.000E+00  0.000E+00  4.24498E+01  3.930E-01  2.000E+01  2.000E+04 -1.757E+00
   1   13   15     1    15    5.4654E+05 -3.6989E+04   5.8353E+05  0.000E+00  0.000E+00  0.000E+00  4.19884E+01  4.089E-01  2.000E+01  2.000E+04 -1.849E+00
   1   12   16     1    16    5.8353E+05 -4.2280E+04   6.2581E+05  0.000E+00  0.000E+00  0.000E+00  4.15281E+01  4.258E-01  2.000E+01  2.000E+04 -2.114E+00
   1   12   17     1    17    6.2581E+05 -3.2981E+04   6.5879E+05  0.000E+00  0.000E+00  0.000E+00  4.10665E+01  4.415E-01  2.000E+01  2.000E+04 -1.649E+00
   1   12   18     1    18    6.5879E+05 -3.1349E+04   6.9014E+05  0.000E+00  0.000E+00  0.000E+00  4.06024E+01  4.547E-01  2.000E+01  2.000E+04 -1.567E+00
   1   12   19     1    19    6.9014E+05 -3.5257E+04   7.2539E+05  0.000E+00  0.000E+00  0.000E+00  4.01385E+01  4.680E-01  2.000E+01  2.000E+04 -1.763E+00
   1   13   20     1    20    7.2539E+05 -2.6423E+04   7.5182E+05  0.000E+00  0.000E+00  0.000E+00  3.96733E+01  4.801E-01  2.000E+01  2.000E+04 -1.321E+00
   1   14   21     1    21    7.5182E+05 -1.9829E+04   7.7165E+05  0.000E+00  0.000E+00  0.000E+00  3.92050E+01  4.891E-01  2.000E+01  2.000E+04 -9.915E-01
   1   14   22     1    22    7.7165E+05 -1.7860E+03   7.7343E+05  0.000E+00  0.000E+00  0.000E+00  3.87319E+01  4.933E-01  2.000E+01  2.000E+04 -8.930E-02
   1    9   30     2     1    5.0000E+04 -2.6698E+04   7.6698E+04  0.000E+00  0.000E+00  0.000E+00  4.02585E+01  1.335E-01  2.000E+01  2.000E+04 -1.335E+00
   1    9   29     2     2    7.6698E+04 -2.9122E+04   1.0582E+05  0.000E+00  0.000E+00  0.000E+00  4.00412E+01  1.662E-01  2.000E+01  2.000E+04 -1.456E+00
   1    9   28     2     3    1.0582E+05 -3.3304E+04   1.3912E+05  0.000E+00  0.000E+00  0.000E+00  3.98233E+01  1.983E-01  2.000E+01  2.000E+04 -1.665E+00
   1    9   27     2     4    1.3912E+05 -4.7148E+04   1.8627E+05  0.000E+00  0.000E+00  0.000E+00  3.96102E+01  2.352E-01  2.000E+01  2.000E+04 -2.357E+00
   1   10   26     2     5    1.8627E+05 -3.3069E+04   2.1934E+05  0.000E+00  0.000E+00  0.000E+00  3.93934E+01  2.684E-01  2.000E+01  2.000E+04 -1.653E+00
   1   11   25     2     6    2.1934E+05 -2.4687E+04   2.4403E+05  0.000E+00  0.000E+00  0.000E+00  3.91657E+01  2.907E-01  2.000E+01  2.000E+04 -1.234E+00
   1   12   24     2     7    2.4403E+05 -1.8158E+04   2.6219E+05  0.000E+00  0.000E+00  0.000E+00  3.89316E+01  3.066E-01  2.000E+01  2.000E+04 -9.079E-01
   1   13   23     2     8    2.6219E+05 -1.2951E+04   2.7514E+05  0.000E+00  0.000E+00  0.000E+00  3.86928E+01  3.178E-01  2.000E+01  2.000E+04 -6.475E-01
   1   14   22     2     9    2.7514E+05 -7.4253E+03   2.8256E+05  0.000E+00  0.000E+00  0.000E+00  3.84499E+01  3.249E-01  2.000E+01  2.000E+04 -3.713E-01
   1   14   22     3     1    1.0560E+06 -1.5395E+04   1.0714E+06  0.000E+00  0.000E+00  0.000E+00  3.80515E+01  4.959E-01  2.000E+01  2.000E+04 -7.697E-01
   1   15   23     3     2    1.0714E+06 -2.4048E+04   1.0954E+06  0.000E+00  0.000E+00  0.000E+00  3.71681E+01  5.014E-01  2.000E+01  2.000E+04 -1.202E+00
   1   15   24     3     3    1.0954E+06 -2.0018E+04   1.1155E+06  0.000E+00  0.000E+00  0.000E+00  3.62853E+01  5.075E-01  2.000E+01  2.000E+04 -1.001E+00
   1   15   25     3     4    1.1155E+06 -1.9615E+04   1.1351E+06  0.000E+00  0.000E+00  0.000E+00  3.54018E+01  5.129E-01  2.000E+01  2.000E+04 -9.807E-01
   1   15   26     3     5    1.1351E+06 -2.2418E+04   1.1575E+06  0.000E+00  0.000E+00  0.000E+00  3.45186E+01  5.186E-01  2.000E+01  2.000E+04 -1.121E+00
   1   16   27     3     6    1.1575E+06 -2.9697E+04   1.1872E+06  0.000E+00  0.000E+00  0.000E+00  3.36368E+01  5.257E-01  2.000E+01  2.000E+04 -1.485E+00
   1   17   28     3     7    1.1872E+06 -3.6782E+04   1.2240E+06  0.000E+00  0.000E+00  0.000E+00  3.27568E+01  5.346E-01  2.000E+01  2.000E+04 -1.839E+00
   1   18   29     3     8    1.2240E+06 -4.7757E+04   1.2717E+06  0.000E+00  0.000E+00  0.000E+00  3.18791E+01  5.458E-01  2.000E+01  2.000E+04 -2.388E+00
   1   18   30     3     9    1.2717E+06 -4.4104E+04   1.3158E+06  0.000E+00  0.000E+00  0.000E+00  3.10022E+01  5.577E-01  2.000E+01  2.000E+04 -2.205E+00



1
              HEAD IN LAYER   1 AT END OF TIME STEP   1 IN STRESS PERIOD   10
  ---------------------------------------------------------------------------

          1      2      3      4      5      6      7      8      9     10
         11     12     13     14     15     16     17     18     19     20
         21     22     23     24     25     26     27     28     29     30
 .........................................................................
   1  ****** ****** ****** ****** ****** ****** ****** ****** ****** ******
      ****** ****** ****** ****** ****** ****** ****** ****** ****** ******
      ****** ****** ****** ****** ****** ****** ****** ****** ****** ******
   2  ****** ****** ****** ****** ****** ****** ****** ****** ****** ******
      ****** ****** ****** ****** ****** ****** ****** ****** ****** ******
      ****** ****** ****** ****** ****** ****** ****** ****** ****** ******
   3  ****** ****** ****** ****** ****** ****** ****** ****** ****** ******
      ****** ****** ****** ****** ****** ****** ****** ****** ****** ******
      ****** ****** ****** ****** ****** ****** ****** ****** ****** ******
   4  ****** ****** ****** ****** ****** ****** ****** ****** ****** ******
      ****** ****** ****** ****** ****** ****** ****** ****** ****** ******
      ****** ****** ****** ****** ****** ****** ****** ****** ****** ******
   5  ****** ****** ****** ****** ****** ****** ****** ****** ****** ******
      ****** ****** ****** ****** ****** ****** ****** ****** ****** ******
      ****** ****** ****** ****** ****** ****** ****** ****** ****** ******
   6  ****** ****** ****** ****** ****** ****** ****** ****** ****** ******
      ****** ****** ****** ****** ****** ****** ****** ****** ****** ******
      ****** ****** ****** ****** ****** ****** ****** ****** ****** ******
   7  ****** ****** ****** ****** ****** ****** ****** ****** ****** ******
      ****** ****** ****** ****** ****** ****** ****** ****** ****** ******
      ****** ****** ****** ****** ****** ****** ****** ****** ****** ******
   8  ****** ****** ****** ****** ****** ****** ****** ****** ****** ******
      ****** ****** ****** ****** ****** ****** ****** ****** ****** ******
      ****** ****** ****** ****** ****** ****** ****** ****** ****** ******
   9  ****** ****** ****** ****** ****** ****** ****** ****** ****** ******
      ****** ****** ****** ****** ****** ****** ****** ****** ****** ******
      ****** ****** ****** ****** ****** ****** ****** ****** ****** ******
  10  ****** ****** ****** ****** ****** ****** ****** ****** ****** ******
      ****** ****** ****** ****** ****** ****** ****** ****** ****** ******
      ****** ****** ****** ****** ****** ****** ****** ****** ****** ******
  11  ****** ****** ****** ****** ****** ****** ****** ****** ****** ******
      ****** ****** ****** ****** ****** ****** ****** ****** ****** ******
      ****** ****** ****** ****** ****** ****** ****** ****** ****** ******
  12  ****** ****** ****** ****** ****** ****** ****** ****** ****** ******
      ****** ****** ****** ****** ****** ****** ****** ****** ****** ******
      ****** ****** ****** ****** ****** ****** ****** ****** ****** ******
  13  ****** ****** ****** ****** ****** ****** ****** ****** ****** ******
      ****** ****** ****** ****** ****** ****** ****** ****** ****** ******
      ****** ****** ****** ****** ****** ****** ****** ****** ****** ******
  14  ****** ****** ****** ****** ****** ****** ****** ****** ****** ******
      ****** ****** ****** ****** ****** ****** ****** ****** ****** ******
      ****** ****** ****** ****** ****** ****** ****** ****** ****** ******
  15  ****** ****** ****** ****** ****** ****** ****** ****** ****** ******
      ****** ****** ****** ****** ****** ****** ****** ****** ****** ******
      ****** ****** ****** ****** ****** ****** ****** ****** ****** ******
  16  ****** ****** ****** ****** ****** ****** ****** ****** ****** ******
      ****** ****** ****** ****** ****** ****** ****** ****** ****** ******
      ****** ****** ****** ****** ****** ****** ****** ****** ****** ******
  17  ****** ****** ****** ****** ****** ****** ****** ****** ****** ******
      ****** ****** ****** ****** ****** ****** ****** ****** ****** ******
      ****** ****** ****** ****** ****** ****** ****** ****** ****** ******
  18  ****** ****** ****** ****** ****** ****** ****** ****** ****** ******
      ****** ****** ****** ****** ****** ****** ****** ****** ****** ******
      ****** ****** ****** ****** ****** ****** ****** ****** ****** ******
  19  ****** ****** ****** ****** ****** ****** ****** ****** ****** ******
      ****** ****** ****** ****** ****** ****** ****** ****** ****** ******
      ****** ****** ****** ****** ****** ****** ****** ****** ****** ******
  20  ****** ****** ****** ****** ****** ****** ****** ****** ****** ******
      ****** ****** ****** ****** ****** ****** ****** ****** ****** ******
      ****** ****** ****** ****** ****** ****** ****** ****** ****** ******
  21  ****** ****** ****** ****** ****** ****** ****** ****** ****** ******
      ****** ****** ****** ****** ****** ****** ****** ****** ****** ******
      ****** ****** ****** ****** ****** ****** ****** ****** ****** ******
  22  ****** ****** ****** ****** ****** ****** ****** ****** ****** ******
      ****** ****** ****** ****** ****** ****** ****** ****** ****** ******
      ****** ****** ****** ****** ****** ****** ****** ****** ****** ******
  23  ****** ****** ****** ****** ****** ****** ****** ****** ****** ******
      ****** ****** ****** ****** ****** ****** ****** ****** ****** ******
      ****** ****** ****** ****** ****** ****** ****** ****** ****** ******
  24  ****** ****** ****** ****** ****** ****** ****** ****** ****** ******
      ****** ****** ****** ****** ****** ****** ****** ****** ****** ******
      ****** ****** ****** ****** ****** ****** ****** ****** ****** ******
  25  ****** ****** ****** ****** ****** ****** ****** ****** ****** ******
      ****** ****** ****** ****** ****** ****** ****** ****** ****** ******
      ****** ****** ****** ****** ****** ****** ****** ****** ****** ******

 HEAD WILL BE SAVED ON UNIT   51 AT END OF TIME STEP    1, STRESS PERIOD   10
1
  VOLUMETRIC BUDGET FOR ENTIRE MODEL AT END OF TIME STEP    1, STRESS PERIOD  10
  ------------------------------------------------------------------------------

     CUMULATIVE VOLUMES      L**3       RATES FOR THIS TIME STEP      L**3/T
     ------------------                 ------------------------

           IN:                                      IN:
           ---                                      ---
             STORAGE =    20894899.8404               STORAGE =         310.2873
       CONSTANT HEAD =  1092939534.9041         CONSTANT HEAD =     1193310.4291
               WELLS =           0.0000                 WELLS =           0.0000
            RECHARGE =    23901600.0000              RECHARGE =       55200.0000
      STREAM LEAKAGE =           0.0000        STREAM LEAKAGE =           0.0000

            TOTAL IN =  1137736034.7446              TOTAL IN =     1248820.7164

          OUT:                                     OUT:
          ----                                     ----
             STORAGE =      848563.4267               STORAGE =        2992.8808
       CONSTANT HEAD =           0.0000         CONSTANT HEAD =           0.0000
               WELLS =    73040000.0000                 WELLS =       80000.0000
            RECHARGE =           0.0000              RECHARGE =           0.0000
      STREAM LEAKAGE =  1063847476.1710        STREAM LEAKAGE =     1165827.7886

           TOTAL OUT =  1137736039.5977             TOTAL OUT =     1248820.6694

            IN - OUT =          -4.8532              IN - OUT =       4.7034E-02

 PERCENT DISCREPANCY =          -0.00     PERCENT DISCREPANCY =           0.00






         TIME SUMMARY AT END OF TIME STEP    1 IN STRESS PERIOD   10
                    SECONDS     MINUTES      HOURS       DAYS        YEARS
                    -----------------------------------------------------------
   TIME STEP LENGTH 7.86240E+06 1.31040E+05  2184.0      91.000     0.24914    
 STRESS PERIOD TIME 7.86240E+06 1.31040E+05  2184.0      91.000     0.24914    
         TOTAL TIME 7.88832E+07 1.31472E+06  21912.      913.00      2.4997    
1
1
                            STRESS PERIOD NO.   11, LENGTH =   91.00000    
                            -----------------------------------------------

                              NUMBER OF TIME STEPS =     1

                               MULTIPLIER FOR DELT =     1.500

                            INITIAL TIME STEP SIZE =   91.00000    

 WELL NO.  LAYER   ROW   COL   STRESS RATE         
 --------------------------------------------------
      1      1      5     18     -0.5000E+05
      2      1      5      2     -0.3000E+05

      2 WELLS

                 RECHARGE =   0.00000    

 REUSING STREAM SEGMENT DATA FROM LAST STRESS PERIOD
 
 SOLVING FOR HEAD 


     6 CALLS TO PCG ROUTINE FOR TIME STEP   1 IN STRESS PERIOD   11
    23 TOTAL ITERATIONS

 OUTPUT CONTROL FOR STRESS PERIOD   11   TIME STEP    1
    SAVE BUDGET
    SAVE HEAD FOR ALL LAYERS
    PRINT HEAD FOR ALL LAYERS
 UBDSV2 SAVING "STREAMFLOW OUT  " ON UNIT  50 AT TIME STEP  1, STRESS PERIOD  11



 STREAM LISTING     PERIOD     11   STEP        1

 LAYER ROW COL. STREAM  RCH.  FLOW INTO     FLOW TO   FLOW OUT OF   OVRLND.     DIRECT     STREAM       STREAM     STREAM     STREAM   STREAMBED  STREAMBED
                SEG.NO.  NO.  STRM. RCH.    AQUIFER    STRM. RCH.    RUNOFF     PRECIP       ET          HEAD       DEPTH      WIDTH   CONDCTNC.   GRADIENT

   1   13    1     1     1    1.0000E+05 -2.5890E+04   1.2589E+05  0.000E+00  0.000E+00  0.000E+00  4.84170E+01  1.556E-01  2.000E+01  2.000E+04 -1.294E+00
   1   13    2     1     2    1.2589E+05 -3.5240E+04   1.6113E+05  0.000E+00  0.000E+00  0.000E+00  4.79638E+01  1.797E-01  2.000E+01  2.000E+04 -1.762E+00
   1   14    3     1     3    1.6113E+05 -3.1457E+04   1.9259E+05  0.000E+00  0.000E+00  0.000E+00  4.75105E+01  2.037E-01  2.000E+01  2.000E+04 -1.573E+00
   1   15    4     1     4    1.9259E+05 -3.1130E+04   2.2372E+05  0.000E+00  0.000E+00  0.000E+00  4.70541E+01  2.246E-01  2.000E+01  2.000E+04 -1.556E+00
   1   16    5     1     5    2.2372E+05 -3.3047E+04   2.5676E+05  0.000E+00  0.000E+00  0.000E+00  4.65970E+01  2.447E-01  2.000E+01  2.000E+04 -1.652E+00
   1   16    6     1     6    2.5676E+05 -2.8821E+04   2.8558E+05  0.000E+00  0.000E+00  0.000E+00  4.61382E+01  2.632E-01  2.000E+01  2.000E+04 -1.441E+00
   1   16    7     1     7    2.8558E+05 -2.8645E+04   3.1423E+05  0.000E+00  0.000E+00  0.000E+00  4.56773E+01  2.796E-01  2.000E+01  2.000E+04 -1.432E+00
   1   16    8     1     8    3.1423E+05 -2.8847E+04   3.4308E+05  0.000E+00  0.000E+00  0.000E+00  4.52158E+01  2.954E-01  2.000E+01  2.000E+04 -1.442E+00
   1   16    9     1     9    3.4308E+05 -2.8963E+04   3.7204E+05  0.000E+00  0.000E+00  0.000E+00  4.47539E+01  3.107E-01  2.000E+01  2.000E+04 -1.448E+00
   1   16   10     1    10    3.7204E+05 -2.9042E+04   4.0108E+05  0.000E+00  0.000E+00  0.000E+00  4.42915E+01  3.256E-01  2.000E+01  2.000E+04 -1.452E+00
   1   16   11     1    11    4.0108E+05 -2.9710E+04   4.3079E+05  0.000E+00  0.000E+00  0.000E+00  4.38288E+01  3.402E-01  2.000E+01  2.000E+04 -1.486E+00
   1   16   12     1    12    4.3079E+05 -3.5269E+04   4.6606E+05  0.000E+00  0.000E+00  0.000E+00  4.33673E+01  3.559E-01  2.000E+01  2.000E+04 -1.763E+00
   1   15   13     1    13    4.6606E+05 -3.3728E+04   4.9979E+05  0.000E+00  0.000E+00  0.000E+00  4.29062E+01  3.721E-01  2.000E+01  2.000E+04 -1.686E+00
   1   14   14     1    14    4.9979E+05 -3.4055E+04   5.3384E+05  0.000E+00  0.000E+00  0.000E+00  4.24444E+01  3.875E-01  2.000E+01  2.000E+04 -1.703E+00
   1   13   15     1    15    5.3384E+05 -3.5910E+04   5.6975E+05  0.000E+00  0.000E+00  0.000E+00  4.19826E+01  4.031E-01  2.000E+01  2.000E+04 -1.795E+00
   1   12   16     1    16    5.6975E+05 -4.1232E+04   6.1099E+05  0.000E+00  0.000E+00  0.000E+00  4.15220E+01  4.198E-01  2.000E+01  2.000E+04 -2.062E+00
   1   12   17     1    17    6.1099E+05 -3.2165E+04   6.4315E+05  0.000E+00  0.000E+00  0.000E+00  4.10602E+01  4.352E-01  2.000E+01  2.000E+04 -1.608E+00
   1   12   18     1    18    6.4315E+05 -3.0584E+04   6.7373E+05  0.000E+00  0.000E+00  0.000E+00  4.05959E+01  4.482E-01  2.000E+01  2.000E+04 -1.529E+00
   1   12   19     1    19    6.7373E+05 -3.4429E+04   7.0816E+05  0.000E+00  0.000E+00  0.000E+00  4.01318E+01  4.613E-01  2.000E+01  2.000E+04 -1.721E+00
   1   13   20     1    20    7.0816E+05 -2.5663E+04   7.3383E+05  0.000E+00  0.000E+00  0.000E+00  3.96664E+01  4.732E-01  2.000E+01  2.000E+04 -1.283E+00
   1   14   21     1    21    7.3383E+05 -1.9183E+04   7.5301E+05  0.000E+00  0.000E+00  0.000E+00  3.91979E+01  4.820E-01  2.000E+01  2.000E+04 -9.591E-01
   1   14   22     1    22    7.5301E+05 -1.5601E+03   7.5457E+05  0.000E+00  0.000E+00  0.000E+00  3.87247E+01  4.860E-01  2.000E+01  2.000E+04 -7.800E-02
   1    9   30     2     1    5.0000E+04 -2.6111E+04   7.6111E+04  0.000E+00  0.000E+00  0.000E+00  4.02582E+01  1.332E-01  2.000E+01  2.000E+04 -1.306E+00
   1    9   29     2     2    7.6111E+04 -2.8535E+04   1.0465E+05  0.000E+00  0.000E+00  0.000E+00  4.00403E+01  1.653E-01  2.000E+01  2.000E+04 -1.427E+00
   1    9   28     2     3    1.0465E+05 -3.2696E+04   1.3734E+05  0.000E+00  0.000E+00  0.000E+00  3.98219E+01  1.969E-01  2.000E+01  2.000E+04 -1.635E+00
   1    9   27     2     4    1.3734E+05 -4.6403E+04   1.8375E+05  0.000E+00  0.000E+00  0.000E+00  3.96083E+01  2.333E-01  2.000E+01  2.000E+04 -2.320E+00
   1   10   26     2     5    1.8375E+05 -3.2295E+04   2.1604E+05  0.000E+00  0.000E+00  0.000E+00  3.93911E+01  2.661E-01  2.000E+01  2.000E+04 -1.615E+00
   1   11   25     2     6    2.1604E+05 -2.3940E+04   2.3998E+05  0.000E+00  0.000E+00  0.000E+00  3.91630E+01  2.880E-01  2.000E+01  2.000E+04 -1.197E+00
   1   12   24     2     7    2.3998E+05 -1.7488E+04   2.5747E+05  0.000E+00  0.000E+00  0.000E+00  3.89284E+01  3.034E-01  2.000E+01  2.000E+04 -8.744E-01
   1   13   23     2     8    2.5747E+05 -1.2406E+04   2.6987E+05  0.000E+00  0.000E+00  0.000E+00  3.86892E+01  3.142E-01  2.000E+01  2.000E+04 -6.203E-01
   1   14   22     2     9    2.6987E+05 -7.1309E+03   2.7700E+05  0.000E+00  0.000E+00  0.000E+00  3.84461E+01  3.211E-01  2.000E+01  2.000E+04 -3.565E-01
   1   14   22     3     1    1.0316E+06 -1.5163E+04   1.0467E+06  0.000E+00  0.000E+00  0.000E+00  3.80446E+01  4.890E-01  2.000E+01  2.000E+04 -7.581E-01
   1   15   23     3     2    1.0467E+06 -2.3447E+04   1.0702E+06  0.000E+00  0.000E+00  0.000E+00  3.71611E+01  4.944E-01  2.000E+01  2.000E+04 -1.172E+00
   1   15   24     3     3    1.0702E+06 -1.9520E+04   1.0897E+06  0.000E+00  0.000E+00  0.000E+00  3.62782E+01  5.004E-01  2.000E+01  2.000E+04 -9.760E-01
   1   15   25     3     4    1.0897E+06 -1.9118E+04   1.1088E+06  0.000E+00  0.000E+00  0.000E+00  3.53947E+01  5.058E-01  2.000E+01  2.000E+04 -9.559E-01
   1   15   26     3     5    1.1088E+06 -2.1839E+04   1.1307E+06  0.000E+00  0.000E+00  0.000E+00  3.45114E+01  5.114E-01  2.000E+01  2.000E+04 -1.092E+00
   1   16   27     3     6    1.1307E+06 -2.8999E+04   1.1597E+06  0.000E+00  0.000E+00  0.000E+00  3.36295E+01  5.183E-01  2.000E+01  2.000E+04 -1.450E+00
   1   17   28     3     7    1.1597E+06 -3.6067E+04   1.1957E+06  0.000E+00  0.000E+00  0.000E+00  3.27494E+01  5.271E-01  2.000E+01  2.000E+04 -1.803E+00
   1   18   29     3     8    1.1957E+06 -4.7086E+04   1.2428E+06  0.000E+00  0.000E+00  0.000E+00  3.18716E+01  5.382E-01  2.000E+01  2.000E+04 -2.354E+00
   1   18   30     3     9    1.2428E+06 -4.3543E+04   1.2864E+06  0.000E+00  0.000E+00  0.000E+00  3.09946E+01  5.501E-01  2.000E+01  2.000E+04 -2.177E+00



1
              HEAD IN LAYER   1 AT END OF TIME STEP   1 IN STRESS PERIOD   11
  ---------------------------------------------------------------------------

          1      2      3      4      5      6      7      8      9     10
         11     12     13     14     15     16     17     18     19     20
         21     22     23     24     25     26     27     28     29     30
 .........................................................................
   1  ****** ****** ****** ****** ****** ****** ****** ****** ****** ******
      ****** ****** ****** ****** ****** ****** ****** ****** ****** ******
      ****** ****** ****** ****** ****** ****** ****** ****** ****** ******
   2  ****** ****** ****** ****** ****** ****** ****** ****** ****** ******
      ****** ****** ****** ****** ****** ****** ****** ****** ****** ******
      ****** ****** ****** ****** ****** ****** ****** ****** ****** ******
   3  ****** ****** ****** ****** ****** ****** ****** ****** ****** ******
      ****** ****** ****** ****** ****** ****** ****** ****** ****** ******
      ****** ****** ****** ****** ****** ****** ****** ****** ****** ******
   4  ****** ****** ****** ****** ****** ****** ****** ****** ****** ******
      ****** ****** ****** ****** ****** ****** ****** ****** ****** ******
      ****** ****** ****** ****** ****** ****** ****** ****** ****** ******
   5  ****** ****** ****** ****** ****** ****** ****** ****** ****** ******
      ****** ****** ****** ****** ****** ****** ****** ****** ****** ******
      ****** ****** ****** ****** ****** ****** ****** ****** ****** ******
   6  ****** ****** ****** ****** ****** ****** ****** ****** ****** ******
      ****** ****** ****** ****** ****** ****** ****** ****** ****** ******
      ****** ****** ****** ****** ****** ****** ****** ****** ****** ******
   7  ****** ****** ****** ****** ****** ****** ****** ****** ****** ******
      ****** ****** ****** ****** ****** ****** ****** ****** ****** ******
      ****** ****** ****** ****** ****** ****** ****** ****** ****** ******
   8  ****** ****** ****** ****** ****** ****** ****** ****** ****** ******
      ****** ****** ****** ****** ****** ****** ****** ****** ****** ******
      ****** ****** ****** ****** ****** ****** ****** ****** ****** ******
   9  ****** ****** ****** ****** ****** ****** ****** ****** ****** ******
      ****** ****** ****** ****** ****** ****** ****** ****** ****** ******
      ****** ****** ****** ****** ****** ****** ****** ****** ****** ******
  10  ****** ****** ****** ****** ****** ****** ****** ****** ****** ******
      ****** ****** ****** ****** ****** ****** ****** ****** ****** ******
      ****** ****** ****** ****** ****** ****** ****** ****** ****** ******
  11  ****** ****** ****** ****** ****** ****** ****** ****** ****** ******
      ****** ****** ****** ****** ****** ****** ****** ****** ****** ******
      ****** ****** ****** ****** ****** ****** ****** ****** ****** ******
  12  ****** ****** ****** ****** ****** ****** ****** ****** ****** ******
      ****** ****** ****** ****** ****** ****** ****** ****** ****** ******
      ****** ****** ****** ****** ****** ****** ****** ****** ****** ******
  13  ****** ****** ****** ****** ****** ****** ****** ****** ****** ******
      ****** ****** ****** ****** ****** ****** ****** ****** ****** ******
      ****** ****** ****** ****** ****** ****** ****** ****** ****** ******
  14  ****** ****** ****** ****** ****** ****** ****** ****** ****** ******
      ****** ****** ****** ****** ****** ****** ****** ****** ****** ******
      ****** ****** ****** ****** ****** ****** ****** ****** ****** ******
  15  ****** ****** ****** ****** ****** ****** ****** ****** ****** ******
      ****** ****** ****** ****** ****** ****** ****** ****** ****** ******
      ****** ****** ****** ****** ****** ****** ****** ****** ****** ******
  16  ****** ****** ****** ****** ****** ****** ****** ****** ****** ******
      ****** ****** ****** ****** ****** ****** ****** ****** ****** ******
      ****** ****** ****** ****** ****** ****** ****** ****** ****** ******
  17  ****** ****** ****** ****** ****** ****** ****** ****** ****** ******
      ****** ****** ****** ****** ****** ****** ****** ****** ****** ******
      ****** ****** ****** ****** ****** ****** ****** ****** ****** ******
  18  ****** ****** ****** ****** ****** ****** ****** ****** ****** ******
      ****** ****** ****** ****** ****** ****** ****** ****** ****** ******
      ****** ****** ****** ****** ****** ****** ****** ****** ****** ******
  19  ****** ****** ****** ****** ****** ****** ****** ****** ****** ******
      ****** ****** ****** ****** ****** ****** ****** ****** ****** ******
      ****** ****** ****** ****** ****** ****** ****** ****** ****** ******
  20  ****** ****** ****** ****** ****** ****** ****** ****** ****** ******
      ****** ****** ****** ****** ****** ****** ****** ****** ****** ******
      ****** ****** ****** ****** ****** ****** ****** ****** ****** ******
  21  ****** ****** ****** ****** ****** ****** ****** ****** ****** ******
      ****** ****** ****** ****** ****** ****** ****** ****** ****** ******
      ****** ****** ****** ****** ****** ****** ****** ****** ****** ******
  22  ****** ****** ****** ****** ****** ****** ****** ****** ****** ******
      ****** ****** ****** ****** ****** ****** ****** ****** ****** ******
      ****** ****** ****** ****** ****** ****** ****** ****** ****** ******
  23  ****** ****** ****** ****** ****** ****** ****** ****** ****** ******
      ****** ****** ****** ****** ****** ****** ****** ****** ****** ******
      ****** ****** ****** ****** ****** ****** ****** ****** ****** ******
  24  ****** ****** ****** ****** ****** ****** ****** ****** ****** ******
      ****** ****** ****** ****** ****** ****** ****** ****** ****** ******
      ****** ****** ****** ****** ****** ****** ****** ****** ****** ******
  25  ****** ****** ****** ****** ****** ****** ****** ****** ****** ******
      ****** ****** ****** ****** ****** ****** ****** ****** ****** ******
      ****** ****** ****** ****** ****** ****** ****** ****** ****** ******

 HEAD WILL BE SAVED ON UNIT   51 AT END OF TIME STEP    1, STRESS PERIOD   11
1
  VOLUMETRIC BUDGET FOR ENTIRE MODEL AT END OF TIME STEP    1, STRESS PERIOD  11
  ------------------------------------------------------------------------------

     CUMULATIVE VOLUMES      L**3       RATES FOR THIS TIME STEP      L**3/T
     ------------------                 ------------------------

           IN:                                      IN:
           ---                                      ---
             STORAGE =    21208956.5809               STORAGE =        3451.1730
       CONSTANT HEAD =  1203336596.6337         CONSTANT HEAD =     1213154.5245
               WELLS =           0.0000                 WELLS =           0.0000
            RECHARGE =    23901600.0000              RECHARGE =           0.0000
      STREAM LEAKAGE =           0.0000        STREAM LEAKAGE =           0.0000

            TOTAL IN =  1248447153.2146              TOTAL IN =     1216605.6975

          OUT:                                     OUT:
          ----                                     ----
             STORAGE =      871386.7898               STORAGE =         250.8062
       CONSTANT HEAD =           0.0000         CONSTANT HEAD =           0.0000
               WELLS =    80320000.0000                 WELLS =       80000.0000
            RECHARGE =           0.0000              RECHARGE =           0.0000
      STREAM LEAKAGE =  1167255775.5307        STREAM LEAKAGE =     1136354.9380

           TOTAL OUT =  1248447162.3205             TOTAL OUT =     1216605.7442

            IN - OUT =          -9.1060              IN - OUT =      -4.6734E-02

 PERCENT DISCREPANCY =          -0.00     PERCENT DISCREPANCY =          -0.00






         TIME SUMMARY AT END OF TIME STEP    1 IN STRESS PERIOD   11
                    SECONDS     MINUTES      HOURS       DAYS        YEARS
                    -----------------------------------------------------------
   TIME STEP LENGTH 7.86240E+06 1.31040E+05  2184.0      91.000     0.24914    
 STRESS PERIOD TIME 7.86240E+06 1.31040E+05  2184.0      91.000     0.24914    
         TOTAL TIME 8.67456E+07 1.44576E+06  24096.      1004.0      2.7488    
1
1
                            STRESS PERIOD NO.   12, LENGTH =   91.00000    
                            -----------------------------------------------

                              NUMBER OF TIME STEPS =     1

                               MULTIPLIER FOR DELT =     1.500

                            INITIAL TIME STEP SIZE =   91.00000    

 WELL NO.  LAYER   ROW   COL   STRESS RATE         
 --------------------------------------------------
      1      1      5     18     -0.5000E+05
      2      1      5      2     -0.2641E+05
      3      1     23      5      -3589.    

      3 WELLS

                 RECHARGE =  1.000000E-03

 REUSING STREAM SEGMENT DATA FROM LAST STRESS PERIOD
 
 SOLVING FOR HEAD 


     6 CALLS TO PCG ROUTINE FOR TIME STEP   1 IN STRESS PERIOD   12
    22 TOTAL ITERATIONS

 OUTPUT CONTROL FOR STRESS PERIOD   12   TIME STEP    1
    SAVE BUDGET
    SAVE HEAD FOR ALL LAYERS
    PRINT HEAD FOR ALL LAYERS
 UBDSV2 SAVING "STREAMFLOW OUT  " ON UNIT  50 AT TIME STEP  1, STRESS PERIOD  12



 STREAM LISTING     PERIOD     12   STEP        1

 LAYER ROW COL. STREAM  RCH.  FLOW INTO     FLOW TO   FLOW OUT OF   OVRLND.     DIRECT     STREAM       STREAM     STREAM     STREAM   STREAMBED  STREAMBED
                SEG.NO.  NO.  STRM. RCH.    AQUIFER    STRM. RCH.    RUNOFF     PRECIP       ET          HEAD       DEPTH      WIDTH   CONDCTNC.   GRADIENT

   1   13    1     1     1    1.0000E+05 -2.6365E+04   1.2637E+05  0.000E+00  0.000E+00  0.000E+00  4.84172E+01  1.558E-01  2.000E+01  2.000E+04 -1.318E+00
   1   13    2     1     2    1.2637E+05 -3.5807E+04   1.6217E+05  0.000E+00  0.000E+00  0.000E+00  4.79643E+01  1.802E-01  2.000E+01  2.000E+04 -1.790E+00
   1   14    3     1     3    1.6217E+05 -3.1950E+04   1.9412E+05  0.000E+00  0.000E+00  0.000E+00  4.75114E+01  2.045E-01  2.000E+01  2.000E+04 -1.597E+00
   1   15    4     1     4    1.9412E+05 -3.1561E+04   2.2568E+05  0.000E+00  0.000E+00  0.000E+00  4.70552E+01  2.257E-01  2.000E+01  2.000E+04 -1.578E+00
   1   16    5     1     5    2.2568E+05 -3.3389E+04   2.5907E+05  0.000E+00  0.000E+00  0.000E+00  4.65983E+01  2.460E-01  2.000E+01  2.000E+04 -1.669E+00
   1   16    6     1     6    2.5907E+05 -2.9130E+04   2.8820E+05  0.000E+00  0.000E+00  0.000E+00  4.61396E+01  2.646E-01  2.000E+01  2.000E+04 -1.457E+00
   1   16    7     1     7    2.8820E+05 -2.8961E+04   3.1716E+05  0.000E+00  0.000E+00  0.000E+00  4.56789E+01  2.811E-01  2.000E+01  2.000E+04 -1.448E+00
   1   16    8     1     8    3.1716E+05 -2.9171E+04   3.4633E+05  0.000E+00  0.000E+00  0.000E+00  4.52175E+01  2.970E-01  2.000E+01  2.000E+04 -1.459E+00
   1   16    9     1     9    3.4633E+05 -2.9292E+04   3.7563E+05  0.000E+00  0.000E+00  0.000E+00  4.47557E+01  3.125E-01  2.000E+01  2.000E+04 -1.465E+00
   1   16   10     1    10    3.7563E+05 -2.9375E+04   4.0500E+05  0.000E+00  0.000E+00  0.000E+00  4.42934E+01  3.275E-01  2.000E+01  2.000E+04 -1.469E+00
   1   16   11     1    11    4.0500E+05 -3.0052E+04   4.3505E+05  0.000E+00  0.000E+00  0.000E+00  4.38308E+01  3.422E-01  2.000E+01  2.000E+04 -1.503E+00
   1   16   12     1    12    4.3505E+05 -3.5670E+04   4.7072E+05  0.000E+00  0.000E+00  0.000E+00  4.33694E+01  3.580E-01  2.000E+01  2.000E+04 -1.784E+00
   1   15   13     1    13    4.7072E+05 -3.4181E+04   5.0491E+05  0.000E+00  0.000E+00  0.000E+00  4.29084E+01  3.743E-01  2.000E+01  2.000E+04 -1.709E+00
   1   14   14     1    14    5.0491E+05 -3.4526E+04   5.3943E+05  0.000E+00  0.000E+00  0.000E+00  4.24468E+01  3.900E-01  2.000E+01  2.000E+04 -1.726E+00
   1   13   15     1    15    5.3943E+05 -3.6377E+04   5.7581E+05  0.000E+00  0.000E+00  0.000E+00  4.19852E+01  4.056E-01  2.000E+01  2.000E+04 -1.819E+00
   1   12   16     1    16    5.7581E+05 -4.1682E+04   6.1749E+05  0.000E+00  0.000E+00  0.000E+00  4.15247E+01  4.224E-01  2.000E+01  2.000E+04 -2.084E+00
   1   12   17     1    17    6.1749E+05 -3.2528E+04   6.5002E+05  0.000E+00  0.000E+00  0.000E+00  4.10630E+01  4.380E-01  2.000E+01  2.000E+04 -1.626E+00
   1   12   18     1    18    6.5002E+05 -3.0931E+04   6.8095E+05  0.000E+00  0.000E+00  0.000E+00  4.05988E+01  4.510E-01  2.000E+01  2.000E+04 -1.547E+00
   1   12   19     1    19    6.8095E+05 -3.4808E+04   7.1576E+05  0.000E+00  0.000E+00  0.000E+00  4.01347E+01  4.643E-01  2.000E+01  2.000E+04 -1.740E+00
   1   13   20     1    20    7.1576E+05 -2.6020E+04   7.4178E+05  0.000E+00  0.000E+00  0.000E+00  3.96695E+01  4.763E-01  2.000E+01  2.000E+04 -1.301E+00
   1   14   21     1    21    7.4178E+05 -1.9490E+04   7.6127E+05  0.000E+00  0.000E+00  0.000E+00  3.92011E+01  4.852E-01  2.000E+01  2.000E+04 -9.745E-01
   1   14   22     1    22    7.6127E+05 -1.6697E+03   7.6294E+05  0.000E+00  0.000E+00  0.000E+00  3.87279E+01  4.893E-01  2.000E+01  2.000E+04 -8.348E-02
   1    9   30     2     1    5.0000E+04 -2.6392E+04   7.6392E+04  0.000E+00  0.000E+00  0.000E+00  4.02583E+01  1.333E-01  2.000E+01  2.000E+04 -1.320E+00
   1    9   29     2     2    7.6392E+04 -2.8816E+04   1.0521E+05  0.000E+00  0.000E+00  0.000E+00  4.00407E+01  1.657E-01  2.000E+01  2.000E+04 -1.441E+00
   1    9   28     2     3    1.0521E+05 -3.2986E+04   1.3819E+05  0.000E+00  0.000E+00  0.000E+00  3.98226E+01  1.976E-01  2.000E+01  2.000E+04 -1.649E+00
   1    9   27     2     4    1.3819E+05 -4.6756E+04   1.8495E+05  0.000E+00  0.000E+00  0.000E+00  3.96092E+01  2.342E-01  2.000E+01  2.000E+04 -2.338E+00
   1   10   26     2     5    1.8495E+05 -3.2661E+04   2.1761E+05  0.000E+00  0.000E+00  0.000E+00  3.93922E+01  2.672E-01  2.000E+01  2.000E+04 -1.633E+00
   1   11   25     2     6    2.1761E+05 -2.4293E+04   2.4191E+05  0.000E+00  0.000E+00  0.000E+00  3.91643E+01  2.893E-01  2.000E+01  2.000E+04 -1.215E+00
   1   12   24     2     7    2.4191E+05 -1.7805E+04   2.5971E+05  0.000E+00  0.000E+00  0.000E+00  3.89299E+01  3.049E-01  2.000E+01  2.000E+04 -8.903E-01
   1   13   23     2     8    2.5971E+05 -1.2664E+04   2.7237E+05  0.000E+00  0.000E+00  0.000E+00  3.86909E+01  3.159E-01  2.000E+01  2.000E+04 -6.332E-01
   1   14   22     2     9    2.7237E+05 -7.2686E+03   2.7964E+05  0.000E+00  0.000E+00  0.000E+00  3.84479E+01  3.229E-01  2.000E+01  2.000E+04 -3.634E-01
   1   14   22     3     1    1.0426E+06 -1.5274E+04   1.0579E+06  0.000E+00  0.000E+00  0.000E+00  3.80477E+01  4.921E-01  2.000E+01  2.000E+04 -7.637E-01
   1   15   23     3     2    1.0579E+06 -2.3735E+04   1.0816E+06  0.000E+00  0.000E+00  0.000E+00  3.71642E+01  4.976E-01  2.000E+01  2.000E+04 -1.187E+00
   1   15   24     3     3    1.0816E+06 -1.9759E+04   1.1013E+06  0.000E+00  0.000E+00  0.000E+00  3.62814E+01  5.036E-01  2.000E+01  2.000E+04 -9.880E-01
   1   15   25     3     4    1.1013E+06 -1.9357E+04   1.1207E+06  0.000E+00  0.000E+00  0.000E+00  3.53979E+01  5.090E-01  2.000E+01  2.000E+04 -9.679E-01
   1   15   26     3     5    1.1207E+06 -2.2118E+04   1.1428E+06  0.000E+00  0.000E+00  0.000E+00  3.45147E+01  5.147E-01  2.000E+01  2.000E+04 -1.106E+00
   1   16   27     3     6    1.1428E+06 -2.9335E+04   1.1722E+06  0.000E+00  0.000E+00  0.000E+00  3.36328E+01  5.217E-01  2.000E+01  2.000E+04 -1.467E+00
   1   17   28     3     7    1.1722E+06 -3.6411E+04   1.2086E+06  0.000E+00  0.000E+00  0.000E+00  3.27527E+01  5.305E-01  2.000E+01  2.000E+04 -1.821E+00
   1   18   29     3     8    1.2086E+06 -4.7409E+04   1.2560E+06  0.000E+00  0.000E+00  0.000E+00  3.18750E+01  5.417E-01  2.000E+01  2.000E+04 -2.370E+00
   1   18   30     3     9    1.2560E+06 -4.3813E+04   1.2998E+06  0.000E+00  0.000E+00  0.000E+00  3.09980E+01  5.536E-01  2.000E+01  2.000E+04 -2.191E+00



1
              HEAD IN LAYER   1 AT END OF TIME STEP   1 IN STRESS PERIOD   12
  ---------------------------------------------------------------------------

          1      2      3      4      5      6      7      8      9     10
         11     12     13     14     15     16     17     18     19     20
         21     22     23     24     25     26     27     28     29     30
 .........................................................................
   1  ****** ****** ****** ****** ****** ****** ****** ****** ****** ******
      ****** ****** ****** ****** ****** ****** ****** ****** ****** ******
      ****** ****** ****** ****** ****** ****** ****** ****** ****** ******
   2  ****** ****** ****** ****** ****** ****** ****** ****** ****** ******
      ****** ****** ****** ****** ****** ****** ****** ****** ****** ******
      ****** ****** ****** ****** ****** ****** ****** ****** ****** ******
   3  ****** ****** ****** ****** ****** ****** ****** ****** ****** ******
      ****** ****** ****** ****** ****** ****** ****** ****** ****** ******
      ****** ****** ****** ****** ****** ****** ****** ****** ****** ******
   4  ****** ****** ****** ****** ****** ****** ****** ****** ****** ******
      ****** ****** ****** ****** ****** ****** ****** ****** ****** ******
      ****** ****** ****** ****** ****** ****** ****** ****** ****** ******
   5  ****** ****** ****** ****** ****** ****** ****** ****** ****** ******
      ****** ****** ****** ****** ****** ****** ****** ****** ****** ******
      ****** ****** ****** ****** ****** ****** ****** ****** ****** ******
   6  ****** ****** ****** ****** ****** ****** ****** ****** ****** ******
      ****** ****** ****** ****** ****** ****** ****** ****** ****** ******
      ****** ****** ****** ****** ****** ****** ****** ****** ****** ******
   7  ****** ****** ****** ****** ****** ****** ****** ****** ****** ******
      ****** ****** ****** ****** ****** ****** ****** ****** ****** ******
      ****** ****** ****** ****** ****** ****** ****** ****** ****** ******
   8  ****** ****** ****** ****** ****** ****** ****** ****** ****** ******
      ****** ****** ****** ****** ****** ****** ****** ****** ****** ******
      ****** ****** ****** ****** ****** ****** ****** ****** ****** ******
   9  ****** ****** ****** ****** ****** ****** ****** ****** ****** ******
      ****** ****** ****** ****** ****** ****** ****** ****** ****** ******
      ****** ****** ****** ****** ****** ****** ****** ****** ****** ******
  10  ****** ****** ****** ****** ****** ****** ****** ****** ****** ******
      ****** ****** ****** ****** ****** ****** ****** ****** ****** ******
      ****** ****** ****** ****** ****** ****** ****** ****** ****** ******
  11  ****** ****** ****** ****** ****** ****** ****** ****** ****** ******
      ****** ****** ****** ****** ****** ****** ****** ****** ****** ******
      ****** ****** ****** ****** ****** ****** ****** ****** ****** ******
  12  ****** ****** ****** ****** ****** ****** ****** ****** ****** ******
      ****** ****** ****** ****** ****** ****** ****** ****** ****** ******
      ****** ****** ****** ****** ****** ****** ****** ****** ****** ******
  13  ****** ****** ****** ****** ****** ****** ****** ****** ****** ******
      ****** ****** ****** ****** ****** ****** ****** ****** ****** ******
      ****** ****** ****** ****** ****** ****** ****** ****** ****** ******
  14  ****** ****** ****** ****** ****** ****** ****** ****** ****** ******
      ****** ****** ****** ****** ****** ****** ****** ****** ****** ******
      ****** ****** ****** ****** ****** ****** ****** ****** ****** ******
  15  ****** ****** ****** ****** ****** ****** ****** ****** ****** ******
      ****** ****** ****** ****** ****** ****** ****** ****** ****** ******
      ****** ****** ****** ****** ****** ****** ****** ****** ****** ******
  16  ****** ****** ****** ****** ****** ****** ****** ****** ****** ******
      ****** ****** ****** ****** ****** ****** ****** ****** ****** ******
      ****** ****** ****** ****** ****** ****** ****** ****** ****** ******
  17  ****** ****** ****** ****** ****** ****** ****** ****** ****** ******
      ****** ****** ****** ****** ****** ****** ****** ****** ****** ******
      ****** ****** ****** ****** ****** ****** ****** ****** ****** ******
  18  ****** ****** ****** ****** ****** ****** ****** ****** ****** ******
      ****** ****** ****** ****** ****** ****** ****** ****** ****** ******
      ****** ****** ****** ****** ****** ****** ****** ****** ****** ******
  19  ****** ****** ****** ****** ****** ****** ****** ****** ****** ******
      ****** ****** ****** ****** ****** ****** ****** ****** ****** ******
      ****** ****** ****** ****** ****** ****** ****** ****** ****** ******
  20  ****** ****** ****** ****** ****** ****** ****** ****** ****** ******
      ****** ****** ****** ****** ****** ****** ****** ****** ****** ******
      ****** ****** ****** ****** ****** ****** ****** ****** ****** ******
  21  ****** ****** ****** ****** ****** ****** ****** ****** ****** ******
      ****** ****** ****** ****** ****** ****** ****** ****** ****** ******
      ****** ****** ****** ****** ****** ****** ****** ****** ****** ******
  22  ****** ****** ****** ****** ****** ****** ****** ****** ****** ******
      ****** ****** ****** ****** ****** ****** ****** ****** ****** ******
      ****** ****** ****** ****** ****** ****** ****** ****** ****** ******
  23  ****** ****** ****** ****** ****** ****** ****** ****** ****** ******
      ****** ****** ****** ****** ****** ****** ****** ****** ****** ******
      ****** ****** ****** ****** ****** ****** ****** ****** ****** ******
  24  ****** ****** ****** ****** ****** ****** ****** ****** ****** ******
      ****** ****** ****** ****** ****** ****** ****** ****** ****** ******
      ****** ****** ****** ****** ****** ****** ****** ****** ****** ******
  25  ****** ****** ****** ****** ****** ****** ****** ****** ****** ******
      ****** ****** ****** ****** ****** ****** ****** ****** ****** ******
      ****** ****** ****** ****** ****** ****** ****** ****** ****** ******

 HEAD WILL BE SAVED ON UNIT   51 AT END OF TIME STEP    1, STRESS PERIOD   12
1
  VOLUMETRIC BUDGET FOR ENTIRE MODEL AT END OF TIME STEP    1, STRESS PERIOD  12
  ------------------------------------------------------------------------------

     CUMULATIVE VOLUMES      L**3       RATES FOR THIS TIME STEP      L**3/T
     ------------------                 ------------------------

           IN:                                      IN:
           ---                                      ---
             STORAGE =    21210734.2335               STORAGE =          19.5346
       CONSTANT HEAD =  1312850132.7986         CONSTANT HEAD =     1203445.4524
               WELLS =           0.0000                 WELLS =           0.0000
            RECHARGE =    26413200.0000              RECHARGE =       27600.0000
      STREAM LEAKAGE =           0.0000        STREAM LEAKAGE =           0.0000

            TOTAL IN =  1360474067.0320              TOTAL IN =     1231064.9870

          OUT:                                     OUT:
          ----                                     ----
             STORAGE =      987253.0538               STORAGE =        1273.2556
       CONSTANT HEAD =           0.0000         CONSTANT HEAD =           0.0000
               WELLS =    87600000.0000                 WELLS =       80000.0000
            RECHARGE =           0.0000              RECHARGE =           0.0000
      STREAM LEAKAGE =  1271886821.0437        STREAM LEAKAGE =     1149791.7089

           TOTAL OUT =  1360474074.0975             TOTAL OUT =     1231064.9646

            IN - OUT =          -7.0654              IN - OUT =       2.2423E-02

 PERCENT DISCREPANCY =          -0.00     PERCENT DISCREPANCY =           0.00






         TIME SUMMARY AT END OF TIME STEP    1 IN STRESS PERIOD   12
                    SECONDS     MINUTES      HOURS       DAYS        YEARS
                    -----------------------------------------------------------
   TIME STEP LENGTH 7.86240E+06 1.31040E+05  2184.0      91.000     0.24914    
 STRESS PERIOD TIME 7.86240E+06 1.31040E+05  2184.0      91.000     0.24914    
         TOTAL TIME 9.46080E+07 1.57680E+06  26280.      1095.0      2.9979    
1

 Run end date and time (yyyy/mm/dd hh:mm:ss): 2018/09/26 14:59:07
 Elapsed run time:  0.051 Seconds

