                                  MODFLOW-2005     
      U.S. GEOLOGICAL SURVEY MODULAR FINITE-DIFFERENCE GROUND-WATER FLOW MODEL
                            VERSION 1.11.00 8/8/2013

 LIST FILE: supply2.lst
                         UNIT   10

 OPENING ..\data\supply.dis
 FILE TYPE:DIS   UNIT   11   STATUS:OLD    
 FORMAT:FORMATTED              ACCESS:SEQUENTIAL          

 OPENING ..\data\supply.ba6
 FILE TYPE:BAS6   UNIT   12   STATUS:OLD    
 FORMAT:FORMATTED              ACCESS:SEQUENTIAL          

 OPENING ..\data\supply_het.bc6
 FILE TYPE:BCF6   UNIT   13   STATUS:OLD    
 FORMAT:FORMATTED              ACCESS:SEQUENTIAL          

 OPENING ..\data\supply.rch
 FILE TYPE:RCH   UNIT   15   STATUS:OLD    
 FORMAT:FORMATTED              ACCESS:SEQUENTIAL          

 OPENING ..\data\supply2.sfr
 FILE TYPE:SFR   UNIT   16   STATUS:OLD    
 FORMAT:FORMATTED              ACCESS:SEQUENTIAL          

 OPENING ..\data\supply.oc
 FILE TYPE:OC   UNIT   17   STATUS:OLD    
 FORMAT:FORMATTED              ACCESS:SEQUENTIAL          

 OPENING ..\data\supply.pcg
 FILE TYPE:PCG   UNIT   18   STATUS:OLD    
 FORMAT:FORMATTED              ACCESS:SEQUENTIAL          

 OPENING supply2.wel
 FILE TYPE:WEL   UNIT   19   STATUS:OLD    
 FORMAT:FORMATTED              ACCESS:SEQUENTIAL          

 OPENING supply2sf.cbc
 FILE TYPE:DATA(BINARY)   UNIT   50   STATUS:UNKNOWN
 FORMAT:BINARY                 ACCESS:SEQUENTIAL          

 OPENING supply2hd.bhd
 FILE TYPE:DATA(BINARY)   UNIT   51   STATUS:UNKNOWN
 FORMAT:BINARY                 ACCESS:SEQUENTIAL          

 BAS -- BASIC PACKAGE, VERSION 7, 5/2/2005 INPUT READ FROM UNIT   12
 
 MODFLOW was compiled using uniform precision
 Precision of REAL and DOUBLE PRECISION variables:          15

 DISCRETIZATION INPUT DATA READ FROM UNIT   11
    1 LAYERS        25 ROWS        30 COLUMNS
   12 STRESS PERIOD(S) IN SIMULATION
 MODEL TIME UNIT IS DAYS
 MODEL LENGTH UNIT IS UNDEFINED
  Confining bed flag for each layer:
   0

                     DELR =   200.000    

                     DELC =   200.000    

 TOP ELEVATION OF LAYER 1 =  100.0000    

   MODEL LAYER BOTTOM EL. =   0.00000     FOR LAYER   1


 STRESS PERIOD     LENGTH       TIME STEPS     MULTIPLIER FOR DELT    SS FLAG
 ----------------------------------------------------------------------------
        1         92.00000          1                    1.500         TR
        2         91.00000          1                    1.500         TR
        3         91.00000          1                    1.500         TR
        4         91.00000          1                    1.500         TR
        5         92.00000          1                    1.500         TR
        6         91.00000          1                    1.500         TR
        7         91.00000          1                    1.500         TR
        8         91.00000          1                    1.500         TR
        9         92.00000          1                    1.500         TR
       10         91.00000          1                    1.500         TR
       11         91.00000          1                    1.500         TR
       12         91.00000          1                    1.500         TR

 TRANSIENT SIMULATION



 
 #MODOFC transient water supply sample problem                                   
 #                                                                               
 THE FREE FORMAT OPTION HAS BEEN SELECTED



                     BOUNDARY ARRAY FOR LAYER   1
 READING ON UNIT   12 WITH FORMAT: (20I4)              

 AQUIFER HEAD WILL BE SET TO   0.0000     AT ALL NO-FLOW NODES (IBOUND=0).



                       INITIAL HEAD FOR LAYER   1
 READING ON UNIT   12 WITH FORMAT: (10F13.0)           

 OUTPUT CONTROL IS SPECIFIED ONLY AT TIME STEPS FOR WHICH OUTPUT IS DESIRED
 COMPACT CELL-BY-CELL BUDGET FILES WILL BE WRITTEN
 HEAD PRINT FORMAT CODE IS  18    DRAWDOWN PRINT FORMAT CODE IS   0
 HEADS WILL BE SAVED ON UNIT   51    DRAWDOWNS WILL BE SAVED ON UNIT    0

 BCF -- BLOCK-CENTERED FLOW PACKAGE, VERSION 7, 5/2/2005
         INPUT READ FROM UNIT 13
 TRANSIENT SIMULATION
 HEAD AT CELLS THAT CONVERT TO DRY=   0.0000    
 WETTING CAPABILITY IS NOT ACTIVE
      LAYER  LAYER-TYPE CODE     INTERBLOCK T
      --------------------------------------------
         1            0          0 -- HARMONIC    

 COLUMN TO ROW ANISOTROPY =  1.000000    

     PRIMARY STORAGE COEF =  5.000000E-02 FOR LAYER   1



               TRANSMIS. ALONG ROWS FOR LAYER   1
 READING ON UNIT   13 WITH FORMAT: (FREE)              

 WEL -- WELL PACKAGE, VERSION 7, 5/2/2005 INPUT READ FROM UNIT   19
 # Well package input file written by MMProc
 No named parameters
 MAXIMUM OF      8 ACTIVE WELLS AT ONE TIME


     0 Well parameters

 RCH -- RECHARGE PACKAGE, VERSION 7, 5/2/2005 INPUT READ FROM UNIT   15
 No named parameters
 OPTION 1 -- RECHARGE TO TOP LAYER


     0 Recharge parameters

 SFR7 -- STREAMFLOW ROUTING PACKAGE, VERSION 1.0.7, 2013-01-15
         INPUT READ FROM UNIT  16
 #  Supply2 test problem for GWM-VI
 #  The eighth entry in the first data line is ISTCB2 -
 #    Setting this to a negative number indicates that
 #    streamflows out of the reach will be saved to a
 #    binary file.  The absolute value of ISTCB2 is the
 #    unit to which unformatted flows will be written.
 #
 No named parameters
 Segment information will not be 
 read by reach
 No named parameters
 No specifed inflow files


 NUMBER OF STREAM REACHES IS   40

 NUMBER OF STREAM SEGMENTS IS    3

 NUMBER OF STREAM PARAMETERS IS    0

 NUMBER OF STREAM SEGMENTS DEFINED USING PARAMETERS IS              0

 MAXIMUM ERROR FOR STREAM LEAKAGE RATES IS  1.00E-04

 CONSTANT FOR MANNINGS EQUATION IS  1.2839E+05





   STREAM NETWORK DESCRIPTION: 

   LAYER    ROW    COL   SEGMENT   REACH     LENGTH
                          NUMBER   NUMBER    IN CELL        
   --------------------------------------------------
      1     13      1       1        1    2.0000E+02
      1     13      2       1        2    2.0000E+02
      1     14      3       1        3    2.0000E+02
      1     15      4       1        4    2.0000E+02
      1     16      5       1        5    2.0000E+02
      1     16      6       1        6    2.0000E+02
      1     16      7       1        7    2.0000E+02
      1     16      8       1        8    2.0000E+02
      1     16      9       1        9    2.0000E+02
      1     16     10       1       10    2.0000E+02
      1     16     11       1       11    2.0000E+02
      1     16     12       1       12    2.0000E+02
      1     15     13       1       13    2.0000E+02
      1     14     14       1       14    2.0000E+02
      1     13     15       1       15    2.0000E+02
      1     12     16       1       16    2.0000E+02
      1     12     17       1       17    2.0000E+02
      1     12     18       1       18    2.0000E+02
      1     12     19       1       19    2.0000E+02
      1     13     20       1       20    2.0000E+02
      1     14     21       1       21    2.0000E+02
      1     14     22       1       22    2.0000E+02
      1      9     30       2        1    2.0000E+02
      1      9     29       2        2    2.0000E+02
      1      9     28       2        3    2.0000E+02
      1      9     27       2        4    2.0000E+02
      1     10     26       2        5    2.0000E+02
      1     11     25       2        6    2.0000E+02
      1     12     24       2        7    2.0000E+02
      1     13     23       2        8    2.0000E+02
      1     14     22       2        9    2.0000E+02
      1     14     22       3        1    2.0000E+02
      1     15     23       3        2    2.0000E+02
      1     15     24       3        3    2.0000E+02
      1     15     25       3        4    2.0000E+02
      1     15     26       3        5    2.0000E+02
      1     16     27       3        6    2.0000E+02
      1     17     28       3        7    2.0000E+02
      1     18     29       3        8    2.0000E+02
      1     18     30       3        9    2.0000E+02




 PCG -- CONJUGATE-GRADIENT SOLUTION PACKAGE, VERSION 7, 5/2/2005
 MAXIMUM OF    500 CALLS OF SOLUTION ROUTINE
 MAXIMUM OF      5 INTERNAL ITERATIONS PER CALL TO SOLUTION ROUTINE
 MATRIX PRECONDITIONING TYPE :    1



                                    SOLUTION BY THE CONJUGATE-GRADIENT METHOD
                                   -------------------------------------------
                    MAXIMUM NUMBER OF CALLS TO PCG ROUTINE =      500
                        MAXIMUM ITERATIONS PER CALL TO PCG =        5
                               MATRIX PRECONDITIONING TYPE =        1
        RELAXATION FACTOR (ONLY USED WITH PRECOND. TYPE 1) =    0.10000E+01
 PARAMETER OF POLYNOMIAL PRECOND. = 2 (2) OR IS CALCULATED :        0
                         HEAD CHANGE CRITERION FOR CLOSURE =    0.10000E-05
                     RESIDUAL CHANGE CRITERION FOR CLOSURE =    0.10000E+01
            PCG HEAD AND RESIDUAL CHANGE PRINTOUT INTERVAL =        1
     PRINTING FROM SOLVER IS LIMITED(1) OR SUPPRESSED (>1) =        1
                            STEADY-STATE DAMPING PARAMETER =    0.10000E+01
                               TRANSIENT DAMPING PARAMETER =    0.10000E+01
1
                            STRESS PERIOD NO.    1, LENGTH =   92.00000    
                            -----------------------------------------------

                              NUMBER OF TIME STEPS =     1

                               MULTIPLIER FOR DELT =     1.500

                            INITIAL TIME STEP SIZE =   92.00000    

 WELL NO.  LAYER   ROW   COL   STRESS RATE         
 --------------------------------------------------
      1      1     14      6       0.000    
      2      1      3      9       0.000    
      3      1     20     10       0.000    
      4      1     14     20       0.000    
      5      1     15      4     -0.1117E+05
      6      1     11     22     -0.1086E+05
      7      1     18     29     -0.4636E+05
      8      1      5     18      -8080.    

      8 WELLS

                 RECHARGE =  5.000000E-04



 CLASSIFICATION & COUNT OF STREAM SEGMENTS BASED ON SOURCE OF INFLOW:

                HEADWATER     DIVERSION     RECEIVES TRIBUTARY FLOW
                ---------     ---------     -----------------------
                     2              0               1



                    INPUT DATA FOR EACH STREAM SEGMENT
 ---------------------------------------------------------------------------------------------

 SEGMENT    SEG.     INFLOW   OVERLAND   STREAM    STREAM   ICALC  OUTFLOW  DIVERSION PRIORITY
    NO.    LENGTH     RATE     RUNOFF      ET       PPT.    METH.  TO SEG.  FROM SEG.    NO.

      1  4.400E+03 1.000E+05 0.000E+00 0.000E+00 0.000E+00    1        3        0        0
      2  1.800E+03 5.000E+04 0.000E+00 0.000E+00 0.000E+00    1        3        0        0
      3  1.800E+03 0.000E+00 0.000E+00 0.000E+00 0.000E+00    1        0        0        0


         STREAMBED PROPERTIES AND STREAM DIMENSIONS

 SEGMENT     BED HYD. COND.      BED THICKNESS     ELEV.-TOP OF BED     WIDTH OF STREAM     DEPTH OF STREAM    STREAM ROUGHNESS
    No.     UPPER     LOWER     UPPER     LOWER     UPPER     LOWER     UPPER     LOWER     UPPER     LOWER   CHANNEL      BANK

     1  5.000E+00 5.000E+00 1.000E+00 1.000E+00 4.850E+01 3.800E+01 2.000E+01 2.000E+01                     5.000E-02
     2  5.000E+00 5.000E+00 1.000E+00 1.000E+00 4.025E+01 3.800E+01 2.000E+01 2.000E+01                     5.000E-02
     3  5.000E+00 5.000E+00 1.000E+00 1.000E+00 3.800E+01 3.000E+01 2.000E+01 2.000E+01                     5.000E-02



 
 SOLVING FOR HEAD 


     9 CALLS TO PCG ROUTINE FOR TIME STEP   1 IN STRESS PERIOD    1
    39 TOTAL ITERATIONS

 OUTPUT CONTROL FOR STRESS PERIOD    1   TIME STEP    1
    SAVE BUDGET
    SAVE HEAD FOR ALL LAYERS
    PRINT HEAD FOR ALL LAYERS
 UBDSV2 SAVING "STREAMFLOW OUT  " ON UNIT  50 AT TIME STEP  1, STRESS PERIOD   1



 STREAM LISTING     PERIOD      1   STEP        1

 LAYER ROW COL. STREAM  RCH.  FLOW INTO     FLOW TO   FLOW OUT OF   OVRLND.     DIRECT     STREAM       STREAM     STREAM     STREAM   STREAMBED  STREAMBED
                SEG.NO.  NO.  STRM. RCH.    AQUIFER    STRM. RCH.    RUNOFF     PRECIP       ET          HEAD       DEPTH      WIDTH   CONDCTNC.   GRADIENT

   1   13    1     1     1    1.0000E+05 -6.1129E+03   1.0611E+05  0.000E+00  0.000E+00  0.000E+00  4.84087E+01  1.473E-01  2.000E+01  2.000E+04 -3.056E-01
   1   13    2     1     2    1.0611E+05 -7.5809E+03   1.1369E+05  0.000E+00  0.000E+00  0.000E+00  4.79372E+01  1.531E-01  2.000E+01  2.000E+04 -3.790E-01
   1   14    3     1     3    1.1369E+05 -2.1842E+03   1.1588E+05  0.000E+00  0.000E+00  0.000E+00  4.74639E+01  1.571E-01  2.000E+01  2.000E+04 -1.092E-01
   1   15    4     1     4    1.1588E+05  8.7754E+03   1.0710E+05  0.000E+00  0.000E+00  0.000E+00  4.69840E+01  1.544E-01  2.000E+01  2.000E+04  4.388E-01
   1   16    5     1     5    1.0710E+05 -7.1507E+03   1.1425E+05  0.000E+00  0.000E+00  0.000E+00  4.65060E+01  1.537E-01  2.000E+01  2.000E+04 -3.575E-01
   1   16    6     1     6    1.1425E+05 -4.3006E+03   1.1855E+05  0.000E+00  0.000E+00  0.000E+00  4.60335E+01  1.585E-01  2.000E+01  2.000E+04 -2.150E-01
   1   16    7     1     7    1.1855E+05 -4.1395E+03   1.2269E+05  0.000E+00  0.000E+00  0.000E+00  4.55596E+01  1.619E-01  2.000E+01  2.000E+04 -2.070E-01
   1   16    8     1     8    1.2269E+05 -4.1002E+03   1.2679E+05  0.000E+00  0.000E+00  0.000E+00  4.50856E+01  1.652E-01  2.000E+01  2.000E+04 -2.050E-01
   1   16    9     1     9    1.2679E+05 -4.0906E+03   1.3088E+05  0.000E+00  0.000E+00  0.000E+00  4.46116E+01  1.684E-01  2.000E+01  2.000E+04 -2.045E-01
   1   16   10     1    10    1.3088E+05 -4.0890E+03   1.3497E+05  0.000E+00  0.000E+00  0.000E+00  4.41375E+01  1.716E-01  2.000E+01  2.000E+04 -2.045E-01
   1   16   11     1    11    1.3497E+05 -4.1259E+03   1.3910E+05  0.000E+00  0.000E+00  0.000E+00  4.36634E+01  1.748E-01  2.000E+01  2.000E+04 -2.063E-01
   1   16   12     1    12    1.3910E+05 -7.0086E+03   1.4611E+05  0.000E+00  0.000E+00  0.000E+00  4.31903E+01  1.790E-01  2.000E+01  2.000E+04 -3.504E-01
   1   15   13     1    13    1.4611E+05 -7.3057E+03   1.5341E+05  0.000E+00  0.000E+00  0.000E+00  4.27184E+01  1.843E-01  2.000E+01  2.000E+04 -3.653E-01
   1   14   14     1    14    1.5341E+05 -7.7718E+03   1.6119E+05  0.000E+00  0.000E+00  0.000E+00  4.22466E+01  1.898E-01  2.000E+01  2.000E+04 -3.886E-01
   1   13   15     1    15    1.6119E+05 -8.0562E+03   1.6924E+05  0.000E+00  0.000E+00  0.000E+00  4.17750E+01  1.955E-01  2.000E+01  2.000E+04 -4.028E-01
   1   12   16     1    16    1.6924E+05 -8.5191E+03   1.7776E+05  0.000E+00  0.000E+00  0.000E+00  4.13036E+01  2.013E-01  2.000E+01  2.000E+04 -4.260E-01
   1   12   17     1    17    1.7776E+05 -5.9895E+03   1.8375E+05  0.000E+00  0.000E+00  0.000E+00  4.08313E+01  2.063E-01  2.000E+01  2.000E+04 -2.995E-01
   1   12   18     1    18    1.8375E+05 -5.7148E+03   1.8946E+05  0.000E+00  0.000E+00  0.000E+00  4.03580E+01  2.103E-01  2.000E+01  2.000E+04 -2.857E-01
   1   12   19     1    19    1.8946E+05 -6.4968E+03   1.9596E+05  0.000E+00  0.000E+00  0.000E+00  3.98849E+01  2.144E-01  2.000E+01  2.000E+04 -3.248E-01
   1   13   20     1    20    1.9596E+05 -5.6972E+03   2.0166E+05  0.000E+00  0.000E+00  0.000E+00  3.94116E+01  2.185E-01  2.000E+01  2.000E+04 -2.849E-01
   1   14   21     1    21    2.0166E+05 -5.8929E+03   2.0755E+05  0.000E+00  0.000E+00  0.000E+00  3.89382E+01  2.223E-01  2.000E+01  2.000E+04 -2.946E-01
   1   14   22     1    22    2.0755E+05  3.8875E+03   2.0366E+05  0.000E+00  0.000E+00  0.000E+00  3.84616E+01  2.229E-01  2.000E+01  2.000E+04  1.944E-01
   1    9   30     2     1    5.0000E+04 -4.7476E+03   5.4748E+04  0.000E+00  0.000E+00  0.000E+00  4.02441E+01  1.191E-01  2.000E+01  2.000E+04 -2.374E-01
   1    9   29     2     2    5.4748E+04 -5.0352E+03   5.9783E+04  0.000E+00  0.000E+00  0.000E+00  4.00007E+01  1.257E-01  2.000E+01  2.000E+04 -2.518E-01
   1    9   28     2     3    5.9783E+04 -5.2951E+03   6.5078E+04  0.000E+00  0.000E+00  0.000E+00  3.97574E+01  1.324E-01  2.000E+01  2.000E+04 -2.648E-01
   1    9   27     2     4    6.5078E+04 -7.9236E+03   7.3002E+04  0.000E+00  0.000E+00  0.000E+00  3.95156E+01  1.406E-01  2.000E+01  2.000E+04 -3.962E-01
   1   10   26     2     5    7.3002E+04 -6.7521E+03   7.9754E+04  0.000E+00  0.000E+00  0.000E+00  3.92744E+01  1.494E-01  2.000E+01  2.000E+04 -3.376E-01
   1   11   25     2     6    7.9754E+04 -5.6661E+03   8.5420E+04  0.000E+00  0.000E+00  0.000E+00  3.90316E+01  1.566E-01  2.000E+01  2.000E+04 -2.833E-01
   1   12   24     2     7    8.5420E+04 -4.2774E+03   8.9697E+04  0.000E+00  0.000E+00  0.000E+00  3.87872E+01  1.622E-01  2.000E+01  2.000E+04 -2.139E-01
   1   13   23     2     8    8.9697E+04 -1.2587E+03   9.0956E+04  0.000E+00  0.000E+00  0.000E+00  3.85402E+01  1.652E-01  2.000E+01  2.000E+04 -6.294E-02
   1   14   22     2     9    9.0956E+04  4.6946E+02   9.0486E+04  0.000E+00  0.000E+00  0.000E+00  3.82907E+01  1.657E-01  2.000E+01  2.000E+04  2.347E-02
   1   14   22     3     1    2.9415E+05 -9.6013E+03   3.0375E+05  0.000E+00  0.000E+00  0.000E+00  3.77871E+01  2.316E-01  2.000E+01  2.000E+04 -4.801E-01
   1   15   23     3     2    3.0375E+05 -1.9826E+03   3.0573E+05  0.000E+00  0.000E+00  0.000E+00  3.69009E+01  2.342E-01  2.000E+01  2.000E+04 -9.913E-02
   1   15   24     3     3    3.0573E+05 -1.5250E+03   3.0726E+05  0.000E+00  0.000E+00  0.000E+00  3.60128E+01  2.350E-01  2.000E+01  2.000E+04 -7.625E-02
   1   15   25     3     4    3.0726E+05 -1.5717E+03   3.0883E+05  0.000E+00  0.000E+00  0.000E+00  3.51246E+01  2.358E-01  2.000E+01  2.000E+04 -7.858E-02
   1   15   26     3     5    3.0883E+05 -1.8536E+03   3.1068E+05  0.000E+00  0.000E+00  0.000E+00  3.42365E+01  2.365E-01  2.000E+01  2.000E+04 -9.268E-02
   1   16   27     3     6    3.1068E+05 -2.0378E+03   3.1272E+05  0.000E+00  0.000E+00  0.000E+00  3.33485E+01  2.374E-01  2.000E+01  2.000E+04 -1.019E-01
   1   17   28     3     7    3.1272E+05 -2.5256E+03   3.1525E+05  0.000E+00  0.000E+00  0.000E+00  3.24607E+01  2.385E-01  2.000E+01  2.000E+04 -1.263E-01
   1   18   29     3     8    3.1525E+05  2.4668E+04   2.9058E+05  0.000E+00  0.000E+00  0.000E+00  3.15667E+01  2.334E-01  2.000E+01  2.000E+04  1.233E+00
   1   18   30     3     9    2.9058E+05 -5.8582E+02   2.9117E+05  0.000E+00  0.000E+00  0.000E+00  3.06722E+01  2.278E-01  2.000E+01  2.000E+04 -2.929E-02



1
              HEAD IN LAYER   1 AT END OF TIME STEP   1 IN STRESS PERIOD    1
  ---------------------------------------------------------------------------

          1      2      3      4      5      6      7      8      9     10
         11     12     13     14     15     16     17     18     19     20
         21     22     23     24     25     26     27     28     29     30
 .........................................................................
   1  ****** ****** ****** ****** ****** ****** ****** ****** ****** ******
      ****** ****** ****** ****** ****** ****** ****** ****** ****** ******
      ****** ****** ****** ****** ****** ****** ****** ****** ****** ******
   2  ****** ****** ****** ****** ****** ****** ****** ****** ****** ******
      ****** ****** ****** ****** ****** ****** ****** ****** ****** ******
      ****** ****** ****** ****** ****** ****** ****** ****** ****** ******
   3  ****** ****** ****** ****** ****** ****** ****** ****** ****** ******
      ****** ****** ****** ****** ****** ****** ****** ****** ****** ******
      ****** ****** ****** ****** ****** ****** ****** ****** ****** ******
   4  ****** ****** ****** ****** ****** ****** ****** ****** ****** ******
      ****** ****** ****** ****** ****** ****** ****** ****** ****** ******
      ****** ****** ****** ****** ****** ****** ****** ****** ****** ******
   5  ****** ****** ****** ****** ****** ****** ****** ****** ****** ******
      ****** ****** ****** ****** ****** ****** ****** ****** ****** ******
      ****** ****** ****** ****** ****** ****** ****** ****** ****** ******
   6  ****** ****** ****** ****** ****** ****** ****** ****** ****** ******
      ****** ****** ****** ****** ****** ****** ****** ****** ****** ******
      ****** ****** ****** ****** ****** ****** ****** ****** ****** ******
   7  ****** ****** ****** ****** ****** ****** ****** ****** ****** ******
      ****** ****** ****** ****** ****** ****** ****** ****** ****** ******
      ****** ****** ****** ****** ****** ****** ****** ****** ****** ******
   8  ****** ****** ****** ****** ****** ****** ****** ****** ****** ******
      ****** ****** ****** ****** ****** ****** ****** ****** ****** ******
      ****** ****** ****** ****** ****** ****** ****** ****** ****** ******
   9  ****** ****** ****** ****** ****** ****** ****** ****** ****** ******
      ****** ****** ****** ****** ****** ****** ****** ****** ****** ******
      ****** ****** ****** ****** ****** ****** ****** ****** ****** ******
  10  ****** ****** ****** ****** ****** ****** ****** ****** ****** ******
      ****** ****** ****** ****** ****** ****** ****** ****** ****** ******
      ****** ****** ****** ****** ****** ****** ****** ****** ****** ******
  11  ****** ****** ****** ****** ****** ****** ****** ****** ****** ******
      ****** ****** ****** ****** ****** ****** ****** ****** ****** ******
      ****** ****** ****** ****** ****** ****** ****** ****** ****** ******
  12  ****** ****** ****** ****** ****** ****** ****** ****** ****** ******
      ****** ****** ****** ****** ****** ****** ****** ****** ****** ******
      ****** ****** ****** ****** ****** ****** ****** ****** ****** ******
  13  ****** ****** ****** ****** ****** ****** ****** ****** ****** ******
      ****** ****** ****** ****** ****** ****** ****** ****** ****** ******
      ****** ****** ****** ****** ****** ****** ****** ****** ****** ******
  14  ****** ****** ****** ****** ****** ****** ****** ****** ****** ******
      ****** ****** ****** ****** ****** ****** ****** ****** ****** ******
      ****** ****** ****** ****** ****** ****** ****** ****** ****** ******
  15  ****** ****** ****** ****** ****** ****** ****** ****** ****** ******
      ****** ****** ****** ****** ****** ****** ****** ****** ****** ******
      ****** ****** ****** ****** ****** ****** ****** ****** ****** ******
  16  ****** ****** ****** ****** ****** ****** ****** ****** ****** ******
      ****** ****** ****** ****** ****** ****** ****** ****** ****** ******
      ****** ****** ****** ****** ****** ****** ****** ****** ****** ******
  17  ****** ****** ****** ****** ****** ****** ****** ****** ****** ******
      ****** ****** ****** ****** ****** ****** ****** ****** ****** ******
      ****** ****** ****** ****** ****** ****** ****** ****** ****** ******
  18  ****** ****** ****** ****** ****** ****** ****** ****** ****** ******
      ****** ****** ****** ****** ****** ****** ****** ****** ****** ******
      ****** ****** ****** ****** ****** ****** ****** ****** ****** ******
  19  ****** ****** ****** ****** ****** ****** ****** ****** ****** ******
      ****** ****** ****** ****** ****** ****** ****** ****** ****** ******
      ****** ****** ****** ****** ****** ****** ****** ****** ****** ******
  20  ****** ****** ****** ****** ****** ****** ****** ****** ****** ******
      ****** ****** ****** ****** ****** ****** ****** ****** ****** ******
      ****** ****** ****** ****** ****** ****** ****** ****** ****** ******
  21  ****** ****** ****** ****** ****** ****** ****** ****** ****** ******
      ****** ****** ****** ****** ****** ****** ****** ****** ****** ******
      ****** ****** ****** ****** ****** ****** ****** ****** ****** ******
  22  ****** ****** ****** ****** ****** ****** ****** ****** ****** ******
      ****** ****** ****** ****** ****** ****** ****** ****** ****** ******
      ****** ****** ****** ****** ****** ****** ****** ****** ****** ******
  23  ****** ****** ****** ****** ****** ****** ****** ****** ****** ******
      ****** ****** ****** ****** ****** ****** ****** ****** ****** ******
      ****** ****** ****** ****** ****** ****** ****** ****** ****** ******
  24  ****** ****** ****** ****** ****** ****** ****** ****** ****** ******
      ****** ****** ****** ****** ****** ****** ****** ****** ****** ******
      ****** ****** ****** ****** ****** ****** ****** ****** ****** ******
  25  ****** ****** ****** ****** ****** ****** ****** ****** ****** ******
      ****** ****** ****** ****** ****** ****** ****** ****** ****** ******
      ****** ****** ****** ****** ****** ****** ****** ****** ****** ******

 HEAD WILL BE SAVED ON UNIT   51 AT END OF TIME STEP    1, STRESS PERIOD    1
1
  VOLUMETRIC BUDGET FOR ENTIRE MODEL AT END OF TIME STEP    1, STRESS PERIOD   1
  ------------------------------------------------------------------------------

     CUMULATIVE VOLUMES      L**3       RATES FOR THIS TIME STEP      L**3/T
     ------------------                 ------------------------

           IN:                                      IN:
           ---                                      ---
             STORAGE =    17592578.2739               STORAGE =      191223.6769
       CONSTANT HEAD =     1160063.4051         CONSTANT HEAD =       12609.3848
               WELLS =           0.0000                 WELLS =           0.0000
            RECHARGE =     1269600.0000              RECHARGE =       13800.0000
      STREAM LEAKAGE =     3477625.8133        STREAM LEAKAGE =       37800.2806

            TOTAL IN =    23499867.4923              TOTAL IN =      255433.3423

          OUT:                                     OUT:
          ----                                     ----
             STORAGE =           0.0000               STORAGE =           0.0000
       CONSTANT HEAD =           0.0000         CONSTANT HEAD =           0.0000
               WELLS =     7034957.5536                 WELLS =       76466.9299
            RECHARGE =           0.0000              RECHARGE =           0.0000
      STREAM LEAKAGE =    16464910.4598        STREAM LEAKAGE =      178966.4180

           TOTAL OUT =    23499868.0134             TOTAL OUT =      255433.3480

            IN - OUT =          -0.5211              IN - OUT =      -5.6645E-03

 PERCENT DISCREPANCY =          -0.00     PERCENT DISCREPANCY =          -0.00






         TIME SUMMARY AT END OF TIME STEP    1 IN STRESS PERIOD    1
                    SECONDS     MINUTES      HOURS       DAYS        YEARS
                    -----------------------------------------------------------
   TIME STEP LENGTH 7.94880E+06 1.32480E+05  2208.0      92.000     0.25188    
 STRESS PERIOD TIME 7.94880E+06 1.32480E+05  2208.0      92.000     0.25188    
         TOTAL TIME 7.94880E+06 1.32480E+05  2208.0      92.000     0.25188    
1
1
                            STRESS PERIOD NO.    2, LENGTH =   91.00000    
                            -----------------------------------------------

                              NUMBER OF TIME STEPS =     1

                               MULTIPLIER FOR DELT =     1.500

                            INITIAL TIME STEP SIZE =   91.00000    

 WELL NO.  LAYER   ROW   COL   STRESS RATE         
 --------------------------------------------------
      1      1     14      6       0.000    
      2      1      3      9       0.000    
      3      1     20     10       0.000    
      4      1     14     20       0.000    
      5      1     15      4     -0.1117E+05
      6      1     11     22     -0.1086E+05
      7      1     18     29     -0.4636E+05
      8      1      5     18      -8080.    

      8 WELLS

                 RECHARGE =  2.000000E-03

 REUSING STREAM SEGMENT DATA FROM LAST STRESS PERIOD
 
 SOLVING FOR HEAD 


     8 CALLS TO PCG ROUTINE FOR TIME STEP   1 IN STRESS PERIOD    2
    32 TOTAL ITERATIONS

 OUTPUT CONTROL FOR STRESS PERIOD    2   TIME STEP    1
    SAVE BUDGET
    SAVE HEAD FOR ALL LAYERS
    PRINT HEAD FOR ALL LAYERS
 UBDSV2 SAVING "STREAMFLOW OUT  " ON UNIT  50 AT TIME STEP  1, STRESS PERIOD   2



 STREAM LISTING     PERIOD      2   STEP        1

 LAYER ROW COL. STREAM  RCH.  FLOW INTO     FLOW TO   FLOW OUT OF   OVRLND.     DIRECT     STREAM       STREAM     STREAM     STREAM   STREAMBED  STREAMBED
                SEG.NO.  NO.  STRM. RCH.    AQUIFER    STRM. RCH.    RUNOFF     PRECIP       ET          HEAD       DEPTH      WIDTH   CONDCTNC.   GRADIENT

   1   13    1     1     1    1.0000E+05 -3.9886E+03   1.0399E+05  0.000E+00  0.000E+00  0.000E+00  4.84077E+01  1.464E-01  2.000E+01  2.000E+04 -1.994E-01
   1   13    2     1     2    1.0399E+05 -5.2479E+03   1.0924E+05  0.000E+00  0.000E+00  0.000E+00  4.79344E+01  1.503E-01  2.000E+01  2.000E+04 -2.624E-01
   1   14    3     1     3    1.0924E+05 -1.0988E+03   1.1034E+05  0.000E+00  0.000E+00  0.000E+00  4.74598E+01  1.530E-01  2.000E+01  2.000E+04 -5.494E-02
   1   15    4     1     4    1.1034E+05  9.9167E+03   1.0042E+05  0.000E+00  0.000E+00  0.000E+00  4.69788E+01  1.493E-01  2.000E+01  2.000E+04  4.958E-01
   1   16    5     1     5    1.0042E+05 -4.2175E+03   1.0464E+05  0.000E+00  0.000E+00  0.000E+00  4.64991E+01  1.468E-01  2.000E+01  2.000E+04 -2.109E-01
   1   16    6     1     6    1.0464E+05 -2.5047E+03   1.0714E+05  0.000E+00  0.000E+00  0.000E+00  4.60247E+01  1.497E-01  2.000E+01  2.000E+04 -1.252E-01
   1   16    7     1     7    1.0714E+05 -2.4155E+03   1.0956E+05  0.000E+00  0.000E+00  0.000E+00  4.55495E+01  1.518E-01  2.000E+01  2.000E+04 -1.208E-01
   1   16    8     1     8    1.0956E+05 -2.3888E+03   1.1195E+05  0.000E+00  0.000E+00  0.000E+00  4.50742E+01  1.538E-01  2.000E+01  2.000E+04 -1.194E-01
   1   16    9     1     9    1.1195E+05 -2.3699E+03   1.1431E+05  0.000E+00  0.000E+00  0.000E+00  4.45989E+01  1.558E-01  2.000E+01  2.000E+04 -1.185E-01
   1   16   10     1    10    1.1431E+05 -2.3474E+03   1.1666E+05  0.000E+00  0.000E+00  0.000E+00  4.41236E+01  1.577E-01  2.000E+01  2.000E+04 -1.174E-01
   1   16   11     1    11    1.1666E+05 -2.3556E+03   1.1902E+05  0.000E+00  0.000E+00  0.000E+00  4.36483E+01  1.596E-01  2.000E+01  2.000E+04 -1.178E-01
   1   16   12     1    12    1.1902E+05 -4.1357E+03   1.2315E+05  0.000E+00  0.000E+00  0.000E+00  4.31736E+01  1.622E-01  2.000E+01  2.000E+04 -2.068E-01
   1   15   13     1    13    1.2315E+05 -4.0709E+03   1.2722E+05  0.000E+00  0.000E+00  0.000E+00  4.26996E+01  1.655E-01  2.000E+01  2.000E+04 -2.035E-01
   1   14   14     1    14    1.2722E+05 -4.3996E+03   1.3162E+05  0.000E+00  0.000E+00  0.000E+00  4.22257E+01  1.689E-01  2.000E+01  2.000E+04 -2.200E-01
   1   13   15     1    15    1.3162E+05 -4.6553E+03   1.3628E+05  0.000E+00  0.000E+00  0.000E+00  4.17519E+01  1.724E-01  2.000E+01  2.000E+04 -2.328E-01
   1   12   16     1    16    1.3628E+05 -5.2157E+03   1.4150E+05  0.000E+00  0.000E+00  0.000E+00  4.12784E+01  1.762E-01  2.000E+01  2.000E+04 -2.608E-01
   1   12   17     1    17    1.4150E+05 -3.3719E+03   1.4487E+05  0.000E+00  0.000E+00  0.000E+00  4.08044E+01  1.794E-01  2.000E+01  2.000E+04 -1.686E-01
   1   12   18     1    18    1.4487E+05 -3.0720E+03   1.4794E+05  0.000E+00  0.000E+00  0.000E+00  4.03296E+01  1.818E-01  2.000E+01  2.000E+04 -1.536E-01
   1   12   19     1    19    1.4794E+05 -3.0970E+03   1.5104E+05  0.000E+00  0.000E+00  0.000E+00  3.98546E+01  1.841E-01  2.000E+01  2.000E+04 -1.549E-01
   1   13   20     1    20    1.5104E+05 -2.4147E+03   1.5345E+05  0.000E+00  0.000E+00  0.000E+00  3.93793E+01  1.861E-01  2.000E+01  2.000E+04 -1.207E-01
   1   14   21     1    21    1.5345E+05 -3.1071E+03   1.5656E+05  0.000E+00  0.000E+00  0.000E+00  3.89041E+01  1.882E-01  2.000E+01  2.000E+04 -1.554E-01
   1   14   22     1    22    1.5656E+05  4.6807E+03   1.5188E+05  0.000E+00  0.000E+00  0.000E+00  3.84262E+01  1.876E-01  2.000E+01  2.000E+04  2.340E-01
   1    9   30     2     1    5.0000E+04 -1.9523E+03   5.1952E+04  0.000E+00  0.000E+00  0.000E+00  4.02422E+01  1.172E-01  2.000E+01  2.000E+04 -9.762E-02
   1    9   29     2     2    5.1952E+04 -2.2507E+03   5.4203E+04  0.000E+00  0.000E+00  0.000E+00  3.99951E+01  1.201E-01  2.000E+01  2.000E+04 -1.125E-01
   1    9   28     2     3    5.4203E+04 -2.5183E+03   5.6721E+04  0.000E+00  0.000E+00  0.000E+00  3.97483E+01  1.233E-01  2.000E+01  2.000E+04 -1.259E-01
   1    9   27     2     4    5.6721E+04 -4.2829E+03   6.1004E+04  0.000E+00  0.000E+00  0.000E+00  3.95028E+01  1.278E-01  2.000E+01  2.000E+04 -2.141E-01
   1   10   26     2     5    6.1004E+04 -2.9497E+03   6.3954E+04  0.000E+00  0.000E+00  0.000E+00  3.92574E+01  1.324E-01  2.000E+01  2.000E+04 -1.475E-01
   1   11   25     2     6    6.3954E+04 -1.9838E+03   6.5938E+04  0.000E+00  0.000E+00  0.000E+00  3.90106E+01  1.356E-01  2.000E+01  2.000E+04 -9.919E-02
   1   12   24     2     7    6.5938E+04 -8.9814E+02   6.6836E+04  0.000E+00  0.000E+00  0.000E+00  3.87623E+01  1.373E-01  2.000E+01  2.000E+04 -4.491E-02
   1   13   23     2     8    6.6836E+04 -1.6573E+02   6.7002E+04  0.000E+00  0.000E+00  0.000E+00  3.85130E+01  1.380E-01  2.000E+01  2.000E+04 -8.287E-03
   1   14   22     2     9    6.7002E+04  1.4010E+03   6.5600E+04  0.000E+00  0.000E+00  0.000E+00  3.82622E+01  1.372E-01  2.000E+01  2.000E+04  7.005E-02
   1   14   22     3     1    2.1748E+05 -8.8598E+03   2.2634E+05  0.000E+00  0.000E+00  0.000E+00  3.77492E+01  1.936E-01  2.000E+01  2.000E+04 -4.430E-01
   1   15   23     3     2    2.2634E+05 -1.0401E+03   2.2738E+05  0.000E+00  0.000E+00  0.000E+00  3.68629E+01  1.962E-01  2.000E+01  2.000E+04 -5.200E-02
   1   15   24     3     3    2.2738E+05 -6.5337E+02   2.2803E+05  0.000E+00  0.000E+00  0.000E+00  3.59744E+01  1.967E-01  2.000E+01  2.000E+04 -3.267E-02
   1   15   25     3     4    2.2803E+05 -6.5373E+02   2.2868E+05  0.000E+00  0.000E+00  0.000E+00  3.50859E+01  1.970E-01  2.000E+01  2.000E+04 -3.269E-02
   1   15   26     3     5    2.2868E+05 -7.2013E+02   2.2940E+05  0.000E+00  0.000E+00  0.000E+00  3.41974E+01  1.974E-01  2.000E+01  2.000E+04 -3.601E-02
   1   16   27     3     6    2.2940E+05 -6.9901E+02   2.3010E+05  0.000E+00  0.000E+00  0.000E+00  3.33088E+01  1.977E-01  2.000E+01  2.000E+04 -3.495E-02
   1   17   28     3     7    2.3010E+05  2.3429E+03   2.2776E+05  0.000E+00  0.000E+00  0.000E+00  3.24195E+01  1.973E-01  2.000E+01  2.000E+04  1.171E-01
   1   18   29     3     8    2.2776E+05  2.3809E+04   2.0395E+05  0.000E+00  0.000E+00  0.000E+00  3.15238E+01  1.905E-01  2.000E+01  2.000E+04  1.190E+00
   1   18   30     3     9    2.0395E+05  4.2670E+03   1.9968E+05  0.000E+00  0.000E+00  0.000E+00  3.06274E+01  1.829E-01  2.000E+01  2.000E+04  2.134E-01



1
              HEAD IN LAYER   1 AT END OF TIME STEP   1 IN STRESS PERIOD    2
  ---------------------------------------------------------------------------

          1      2      3      4      5      6      7      8      9     10
         11     12     13     14     15     16     17     18     19     20
         21     22     23     24     25     26     27     28     29     30
 .........................................................................
   1  ****** ****** ****** ****** ****** ****** ****** ****** ****** ******
      ****** ****** ****** ****** ****** ****** ****** ****** ****** ******
      ****** ****** ****** ****** ****** ****** ****** ****** ****** ******
   2  ****** ****** ****** ****** ****** ****** ****** ****** ****** ******
      ****** ****** ****** ****** ****** ****** ****** ****** ****** ******
      ****** ****** ****** ****** ****** ****** ****** ****** ****** ******
   3  ****** ****** ****** ****** ****** ****** ****** ****** ****** ******
      ****** ****** ****** ****** ****** ****** ****** ****** ****** ******
      ****** ****** ****** ****** ****** ****** ****** ****** ****** ******
   4  ****** ****** ****** ****** ****** ****** ****** ****** ****** ******
      ****** ****** ****** ****** ****** ****** ****** ****** ****** ******
      ****** ****** ****** ****** ****** ****** ****** ****** ****** ******
   5  ****** ****** ****** ****** ****** ****** ****** ****** ****** ******
      ****** ****** ****** ****** ****** ****** ****** ****** ****** ******
      ****** ****** ****** ****** ****** ****** ****** ****** ****** ******
   6  ****** ****** ****** ****** ****** ****** ****** ****** ****** ******
      ****** ****** ****** ****** ****** ****** ****** ****** ****** ******
      ****** ****** ****** ****** ****** ****** ****** ****** ****** ******
   7  ****** ****** ****** ****** ****** ****** ****** ****** ****** ******
      ****** ****** ****** ****** ****** ****** ****** ****** ****** ******
      ****** ****** ****** ****** ****** ****** ****** ****** ****** ******
   8  ****** ****** ****** ****** ****** ****** ****** ****** ****** ******
      ****** ****** ****** ****** ****** ****** ****** ****** ****** ******
      ****** ****** ****** ****** ****** ****** ****** ****** ****** ******
   9  ****** ****** ****** ****** ****** ****** ****** ****** ****** ******
      ****** ****** ****** ****** ****** ****** ****** ****** ****** ******
      ****** ****** ****** ****** ****** ****** ****** ****** ****** ******
  10  ****** ****** ****** ****** ****** ****** ****** ****** ****** ******
      ****** ****** ****** ****** ****** ****** ****** ****** ****** ******
      ****** ****** ****** ****** ****** ****** ****** ****** ****** ******
  11  ****** ****** ****** ****** ****** ****** ****** ****** ****** ******
      ****** ****** ****** ****** ****** ****** ****** ****** ****** ******
      ****** ****** ****** ****** ****** ****** ****** ****** ****** ******
  12  ****** ****** ****** ****** ****** ****** ****** ****** ****** ******
      ****** ****** ****** ****** ****** ****** ****** ****** ****** ******
      ****** ****** ****** ****** ****** ****** ****** ****** ****** ******
  13  ****** ****** ****** ****** ****** ****** ****** ****** ****** ******
      ****** ****** ****** ****** ****** ****** ****** ****** ****** ******
      ****** ****** ****** ****** ****** ****** ****** ****** ****** ******
  14  ****** ****** ****** ****** ****** ****** ****** ****** ****** ******
      ****** ****** ****** ****** ****** ****** ****** ****** ****** ******
      ****** ****** ****** ****** ****** ****** ****** ****** ****** ******
  15  ****** ****** ****** ****** ****** ****** ****** ****** ****** ******
      ****** ****** ****** ****** ****** ****** ****** ****** ****** ******
      ****** ****** ****** ****** ****** ****** ****** ****** ****** ******
  16  ****** ****** ****** ****** ****** ****** ****** ****** ****** ******
      ****** ****** ****** ****** ****** ****** ****** ****** ****** ******
      ****** ****** ****** ****** ****** ****** ****** ****** ****** ******
  17  ****** ****** ****** ****** ****** ****** ****** ****** ****** ******
      ****** ****** ****** ****** ****** ****** ****** ****** ****** ******
      ****** ****** ****** ****** ****** ****** ****** ****** ****** ******
  18  ****** ****** ****** ****** ****** ****** ****** ****** ****** ******
      ****** ****** ****** ****** ****** ****** ****** ****** ****** ******
      ****** ****** ****** ****** ****** ****** ****** ****** ****** ******
  19  ****** ****** ****** ****** ****** ****** ****** ****** ****** ******
      ****** ****** ****** ****** ****** ****** ****** ****** ****** ******
      ****** ****** ****** ****** ****** ****** ****** ****** ****** ******
  20  ****** ****** ****** ****** ****** ****** ****** ****** ****** ******
      ****** ****** ****** ****** ****** ****** ****** ****** ****** ******
      ****** ****** ****** ****** ****** ****** ****** ****** ****** ******
  21  ****** ****** ****** ****** ****** ****** ****** ****** ****** ******
      ****** ****** ****** ****** ****** ****** ****** ****** ****** ******
      ****** ****** ****** ****** ****** ****** ****** ****** ****** ******
  22  ****** ****** ****** ****** ****** ****** ****** ****** ****** ******
      ****** ****** ****** ****** ****** ****** ****** ****** ****** ******
      ****** ****** ****** ****** ****** ****** ****** ****** ****** ******
  23  ****** ****** ****** ****** ****** ****** ****** ****** ****** ******
      ****** ****** ****** ****** ****** ****** ****** ****** ****** ******
      ****** ****** ****** ****** ****** ****** ****** ****** ****** ******
  24  ****** ****** ****** ****** ****** ****** ****** ****** ****** ******
      ****** ****** ****** ****** ****** ****** ****** ****** ****** ******
      ****** ****** ****** ****** ****** ****** ****** ****** ****** ******
  25  ****** ****** ****** ****** ****** ****** ****** ****** ****** ******
      ****** ****** ****** ****** ****** ****** ****** ****** ****** ******
      ****** ****** ****** ****** ****** ****** ****** ****** ****** ******

 HEAD WILL BE SAVED ON UNIT   51 AT END OF TIME STEP    1, STRESS PERIOD    2
1
  VOLUMETRIC BUDGET FOR ENTIRE MODEL AT END OF TIME STEP    1, STRESS PERIOD   2
  ------------------------------------------------------------------------------

     CUMULATIVE VOLUMES      L**3       RATES FOR THIS TIME STEP      L**3/T
     ------------------                 ------------------------

           IN:                                      IN:
           ---                                      ---
             STORAGE =    22485405.5471               STORAGE =       53767.3327
       CONSTANT HEAD =     2723827.1495         CONSTANT HEAD =       17184.2170
               WELLS =           0.0000                 WELLS =           0.0000
            RECHARGE =     6292800.0000              RECHARGE =       55200.0000
      STREAM LEAKAGE =     7701616.5945        STREAM LEAKAGE =       46417.4811

            TOTAL IN =    39203649.2911              TOTAL IN =      172569.0308

          OUT:                                     OUT:
          ----                                     ----
             STORAGE =           0.0000               STORAGE =           0.0000
       CONSTANT HEAD =           0.0000         CONSTANT HEAD =           0.0000
               WELLS =    13993448.1773                 WELLS =       76466.9299
            RECHARGE =           0.0000              RECHARGE =           0.0000
      STREAM LEAKAGE =    25210202.1968        STREAM LEAKAGE =       96102.1070

           TOTAL OUT =    39203650.3741             TOTAL OUT =      172569.0369

            IN - OUT =          -1.0830              IN - OUT =      -6.1741E-03

 PERCENT DISCREPANCY =          -0.00     PERCENT DISCREPANCY =          -0.00






         TIME SUMMARY AT END OF TIME STEP    1 IN STRESS PERIOD    2
                    SECONDS     MINUTES      HOURS       DAYS        YEARS
                    -----------------------------------------------------------
   TIME STEP LENGTH 7.86240E+06 1.31040E+05  2184.0      91.000     0.24914    
 STRESS PERIOD TIME 7.86240E+06 1.31040E+05  2184.0      91.000     0.24914    
         TOTAL TIME 1.58112E+07 2.63520E+05  4392.0      183.00     0.50103    
1
1
                            STRESS PERIOD NO.    3, LENGTH =   91.00000    
                            -----------------------------------------------

                              NUMBER OF TIME STEPS =     1

                               MULTIPLIER FOR DELT =     1.500

                            INITIAL TIME STEP SIZE =   91.00000    

 WELL NO.  LAYER   ROW   COL   STRESS RATE         
 --------------------------------------------------
      1      1     14      6       0.000    
      2      1      3      9       0.000    
      3      1     20     10       0.000    
      4      1     14     20       0.000    
      5      1     15      4     -0.1117E+05
      6      1     11     22     -0.1086E+05
      7      1     18     29     -0.4636E+05
      8      1      5     18      -8080.    

      8 WELLS

                 RECHARGE =   0.00000    

 REUSING STREAM SEGMENT DATA FROM LAST STRESS PERIOD
 
 SOLVING FOR HEAD 


     8 CALLS TO PCG ROUTINE FOR TIME STEP   1 IN STRESS PERIOD    3
    32 TOTAL ITERATIONS

 OUTPUT CONTROL FOR STRESS PERIOD    3   TIME STEP    1
    SAVE BUDGET
    SAVE HEAD FOR ALL LAYERS
    PRINT HEAD FOR ALL LAYERS
 UBDSV2 SAVING "STREAMFLOW OUT  " ON UNIT  50 AT TIME STEP  1, STRESS PERIOD   3



 STREAM LISTING     PERIOD      3   STEP        1

 LAYER ROW COL. STREAM  RCH.  FLOW INTO     FLOW TO   FLOW OUT OF   OVRLND.     DIRECT     STREAM       STREAM     STREAM     STREAM   STREAMBED  STREAMBED
                SEG.NO.  NO.  STRM. RCH.    AQUIFER    STRM. RCH.    RUNOFF     PRECIP       ET          HEAD       DEPTH      WIDTH   CONDCTNC.   GRADIENT

   1   13    1     1     1    1.0000E+05 -2.7323E+03   1.0273E+05  0.000E+00  0.000E+00  0.000E+00  4.84072E+01  1.458E-01  2.000E+01  2.000E+04 -1.366E-01
   1   13    2     1     2    1.0273E+05 -3.8373E+03   1.0657E+05  0.000E+00  0.000E+00  0.000E+00  4.79327E+01  1.487E-01  2.000E+01  2.000E+04 -1.919E-01
   1   14    3     1     3    1.0657E+05 -6.3728E+02   1.0721E+05  0.000E+00  0.000E+00  0.000E+00  4.74574E+01  1.506E-01  2.000E+01  2.000E+04 -3.186E-02
   1   15    4     1     4    1.0721E+05  1.0422E+04   9.6785E+04  0.000E+00  0.000E+00  0.000E+00  4.69759E+01  1.464E-01  2.000E+01  2.000E+04  5.211E-01
   1   16    5     1     5    9.6785E+04 -2.4263E+03   9.9211E+04  0.000E+00  0.000E+00  0.000E+00  4.64952E+01  1.429E-01  2.000E+01  2.000E+04 -1.213E-01
   1   16    6     1     6    9.9211E+04 -1.5039E+03   1.0071E+05  0.000E+00  0.000E+00  0.000E+00  4.60196E+01  1.446E-01  2.000E+01  2.000E+04 -7.520E-02
   1   16    7     1     7    1.0071E+05 -1.4730E+03   1.0219E+05  0.000E+00  0.000E+00  0.000E+00  4.55436E+01  1.459E-01  2.000E+01  2.000E+04 -7.365E-02
   1   16    8     1     8    1.0219E+05 -1.4645E+03   1.0365E+05  0.000E+00  0.000E+00  0.000E+00  4.50676E+01  1.472E-01  2.000E+01  2.000E+04 -7.322E-02
   1   16    9     1     9    1.0365E+05 -1.4503E+03   1.0510E+05  0.000E+00  0.000E+00  0.000E+00  4.45916E+01  1.484E-01  2.000E+01  2.000E+04 -7.252E-02
   1   16   10     1    10    1.0510E+05 -1.4284E+03   1.0653E+05  0.000E+00  0.000E+00  0.000E+00  4.41156E+01  1.496E-01  2.000E+01  2.000E+04 -7.142E-02
   1   16   11     1    11    1.0653E+05 -1.4312E+03   1.0796E+05  0.000E+00  0.000E+00  0.000E+00  4.36395E+01  1.509E-01  2.000E+01  2.000E+04 -7.156E-02
   1   16   12     1    12    1.0796E+05 -2.5266E+03   1.1049E+05  0.000E+00  0.000E+00  0.000E+00  4.31639E+01  1.525E-01  2.000E+01  2.000E+04 -1.263E-01
   1   15   13     1    13    1.1049E+05 -2.4097E+03   1.1290E+05  0.000E+00  0.000E+00  0.000E+00  4.26887E+01  1.546E-01  2.000E+01  2.000E+04 -1.205E-01
   1   14   14     1    14    1.1290E+05 -2.6782E+03   1.1558E+05  0.000E+00  0.000E+00  0.000E+00  4.22135E+01  1.567E-01  2.000E+01  2.000E+04 -1.339E-01
   1   13   15     1    15    1.1558E+05 -2.9111E+03   1.1849E+05  0.000E+00  0.000E+00  0.000E+00  4.17385E+01  1.590E-01  2.000E+01  2.000E+04 -1.456E-01
   1   12   16     1    16    1.1849E+05 -3.3678E+03   1.2186E+05  0.000E+00  0.000E+00  0.000E+00  4.12638E+01  1.615E-01  2.000E+01  2.000E+04 -1.684E-01
   1   12   17     1    17    1.2186E+05 -2.0393E+03   1.2389E+05  0.000E+00  0.000E+00  0.000E+00  4.07887E+01  1.637E-01  2.000E+01  2.000E+04 -1.020E-01
   1   12   18     1    18    1.2389E+05 -1.7558E+03   1.2565E+05  0.000E+00  0.000E+00  0.000E+00  4.03129E+01  1.652E-01  2.000E+01  2.000E+04 -8.779E-02
   1   12   19     1    19    1.2565E+05 -1.4239E+03   1.2707E+05  0.000E+00  0.000E+00  0.000E+00  3.98369E+01  1.665E-01  2.000E+01  2.000E+04 -7.120E-02
   1   13   20     1    20    1.2707E+05 -9.2064E+02   1.2800E+05  0.000E+00  0.000E+00  0.000E+00  3.93606E+01  1.674E-01  2.000E+01  2.000E+04 -4.603E-02
   1   14   21     1    21    1.2800E+05 -1.6192E+03   1.2961E+05  0.000E+00  0.000E+00  0.000E+00  3.88843E+01  1.684E-01  2.000E+01  2.000E+04 -8.096E-02
   1   14   22     1    22    1.2961E+05  5.0437E+03   1.2457E+05  0.000E+00  0.000E+00  0.000E+00  3.84057E+01  1.670E-01  2.000E+01  2.000E+04  2.522E-01
   1    9   30     2     1    5.0000E+04 -7.0818E+02   5.0708E+04  0.000E+00  0.000E+00  0.000E+00  4.02414E+01  1.164E-01  2.000E+01  2.000E+04 -3.541E-02
   1    9   29     2     2    5.0708E+04 -1.0073E+03   5.1715E+04  0.000E+00  0.000E+00  0.000E+00  3.99925E+01  1.175E-01  2.000E+01  2.000E+04 -5.037E-02
   1    9   28     2     3    5.1715E+04 -1.2584E+03   5.2974E+04  0.000E+00  0.000E+00  0.000E+00  3.97441E+01  1.191E-01  2.000E+01  2.000E+04 -6.292E-02
   1    9   27     2     4    5.2974E+04 -2.4534E+03   5.5427E+04  0.000E+00  0.000E+00  0.000E+00  3.94966E+01  1.216E-01  2.000E+01  2.000E+04 -1.227E-01
   1   10   26     2     5    5.5427E+04 -1.2382E+03   5.6666E+04  0.000E+00  0.000E+00  0.000E+00  3.92491E+01  1.241E-01  2.000E+01  2.000E+04 -6.191E-02
   1   11   25     2     6    5.6666E+04 -3.8784E+02   5.7053E+04  0.000E+00  0.000E+00  0.000E+00  3.90002E+01  1.252E-01  2.000E+01  2.000E+04 -1.939E-02
   1   12   24     2     7    5.7053E+04  5.3185E+02   5.6522E+04  0.000E+00  0.000E+00  0.000E+00  3.87501E+01  1.251E-01  2.000E+01  2.000E+04  2.659E-02
   1   13   23     2     8    5.6522E+04  1.8147E+02   5.6340E+04  0.000E+00  0.000E+00  0.000E+00  3.84996E+01  1.246E-01  2.000E+01  2.000E+04  9.073E-03
   1   14   22     2     9    5.6340E+04  1.8946E+03   5.4445E+04  0.000E+00  0.000E+00  0.000E+00  3.82482E+01  1.232E-01  2.000E+01  2.000E+04  9.473E-02
   1   14   22     3     1    1.7902E+05 -8.5056E+03   1.8752E+05  0.000E+00  0.000E+00  0.000E+00  3.77282E+01  1.726E-01  2.000E+01  2.000E+04 -4.253E-01
   1   15   23     3     2    1.8752E+05 -6.4617E+02   1.8817E+05  0.000E+00  0.000E+00  0.000E+00  3.68419E+01  1.752E-01  2.000E+01  2.000E+04 -3.231E-02
   1   15   24     3     3    1.8817E+05 -3.2698E+02   1.8850E+05  0.000E+00  0.000E+00  0.000E+00  3.59533E+01  1.755E-01  2.000E+01  2.000E+04 -1.635E-02
   1   15   25     3     4    1.8850E+05 -3.0841E+02   1.8880E+05  0.000E+00  0.000E+00  0.000E+00  3.50646E+01  1.757E-01  2.000E+01  2.000E+04 -1.542E-02
   1   15   26     3     5    1.8880E+05 -3.0241E+02   1.8911E+05  0.000E+00  0.000E+00  0.000E+00  3.41758E+01  1.758E-01  2.000E+01  2.000E+04 -1.512E-02
   1   16   27     3     6    1.8911E+05 -1.9349E+02   1.8930E+05  0.000E+00  0.000E+00  0.000E+00  3.32871E+01  1.760E-01  2.000E+01  2.000E+04 -9.674E-03
   1   17   28     3     7    1.8930E+05  4.5482E+03   1.8475E+05  0.000E+00  0.000E+00  0.000E+00  3.23970E+01  1.748E-01  2.000E+01  2.000E+04  2.274E-01
   1   18   29     3     8    1.8475E+05  2.3336E+04   1.6141E+05  0.000E+00  0.000E+00  0.000E+00  3.15002E+01  1.668E-01  2.000E+01  2.000E+04  1.167E+00
   1   18   30     3     9    1.6141E+05  6.6242E+03   1.5479E+05  0.000E+00  0.000E+00  0.000E+00  3.06024E+01  1.580E-01  2.000E+01  2.000E+04  3.312E-01



1
              HEAD IN LAYER   1 AT END OF TIME STEP   1 IN STRESS PERIOD    3
  ---------------------------------------------------------------------------

          1      2      3      4      5      6      7      8      9     10
         11     12     13     14     15     16     17     18     19     20
         21     22     23     24     25     26     27     28     29     30
 .........................................................................
   1  ****** ****** ****** ****** ****** ****** ****** ****** ****** ******
      ****** ****** ****** ****** ****** ****** ****** ****** ****** ******
      ****** ****** ****** ****** ****** ****** ****** ****** ****** ******
   2  ****** ****** ****** ****** ****** ****** ****** ****** ****** ******
      ****** ****** ****** ****** ****** ****** ****** ****** ****** ******
      ****** ****** ****** ****** ****** ****** ****** ****** ****** ******
   3  ****** ****** ****** ****** ****** ****** ****** ****** ****** ******
      ****** ****** ****** ****** ****** ****** ****** ****** ****** ******
      ****** ****** ****** ****** ****** ****** ****** ****** ****** ******
   4  ****** ****** ****** ****** ****** ****** ****** ****** ****** ******
      ****** ****** ****** ****** ****** ****** ****** ****** ****** ******
      ****** ****** ****** ****** ****** ****** ****** ****** ****** ******
   5  ****** ****** ****** ****** ****** ****** ****** ****** ****** ******
      ****** ****** ****** ****** ****** ****** ****** ****** ****** ******
      ****** ****** ****** ****** ****** ****** ****** ****** ****** ******
   6  ****** ****** ****** ****** ****** ****** ****** ****** ****** ******
      ****** ****** ****** ****** ****** ****** ****** ****** ****** ******
      ****** ****** ****** ****** ****** ****** ****** ****** ****** ******
   7  ****** ****** ****** ****** ****** ****** ****** ****** ****** ******
      ****** ****** ****** ****** ****** ****** ****** ****** ****** ******
      ****** ****** ****** ****** ****** ****** ****** ****** ****** ******
   8  ****** ****** ****** ****** ****** ****** ****** ****** ****** ******
      ****** ****** ****** ****** ****** ****** ****** ****** ****** ******
      ****** ****** ****** ****** ****** ****** ****** ****** ****** ******
   9  ****** ****** ****** ****** ****** ****** ****** ****** ****** ******
      ****** ****** ****** ****** ****** ****** ****** ****** ****** ******
      ****** ****** ****** ****** ****** ****** ****** ****** ****** ******
  10  ****** ****** ****** ****** ****** ****** ****** ****** ****** ******
      ****** ****** ****** ****** ****** ****** ****** ****** ****** ******
      ****** ****** ****** ****** ****** ****** ****** ****** ****** ******
  11  ****** ****** ****** ****** ****** ****** ****** ****** ****** ******
      ****** ****** ****** ****** ****** ****** ****** ****** ****** ******
      ****** ****** ****** ****** ****** ****** ****** ****** ****** ******
  12  ****** ****** ****** ****** ****** ****** ****** ****** ****** ******
      ****** ****** ****** ****** ****** ****** ****** ****** ****** ******
      ****** ****** ****** ****** ****** ****** ****** ****** ****** ******
  13  ****** ****** ****** ****** ****** ****** ****** ****** ****** ******
      ****** ****** ****** ****** ****** ****** ****** ****** ****** ******
      ****** ****** ****** ****** ****** ****** ****** ****** ****** ******
  14  ****** ****** ****** ****** ****** ****** ****** ****** ****** ******
      ****** ****** ****** ****** ****** ****** ****** ****** ****** ******
      ****** ****** ****** ****** ****** ****** ****** ****** ****** ******
  15  ****** ****** ****** ****** ****** ****** ****** ****** ****** ******
      ****** ****** ****** ****** ****** ****** ****** ****** ****** ******
      ****** ****** ****** ****** ****** ****** ****** ****** ****** ******
  16  ****** ****** ****** ****** ****** ****** ****** ****** ****** ******
      ****** ****** ****** ****** ****** ****** ****** ****** ****** ******
      ****** ****** ****** ****** ****** ****** ****** ****** ****** ******
  17  ****** ****** ****** ****** ****** ****** ****** ****** ****** ******
      ****** ****** ****** ****** ****** ****** ****** ****** ****** ******
      ****** ****** ****** ****** ****** ****** ****** ****** ****** ******
  18  ****** ****** ****** ****** ****** ****** ****** ****** ****** ******
      ****** ****** ****** ****** ****** ****** ****** ****** ****** ******
      ****** ****** ****** ****** ****** ****** ****** ****** ****** ******
  19  ****** ****** ****** ****** ****** ****** ****** ****** ****** ******
      ****** ****** ****** ****** ****** ****** ****** ****** ****** ******
      ****** ****** ****** ****** ****** ****** ****** ****** ****** ******
  20  ****** ****** ****** ****** ****** ****** ****** ****** ****** ******
      ****** ****** ****** ****** ****** ****** ****** ****** ****** ******
      ****** ****** ****** ****** ****** ****** ****** ****** ****** ******
  21  ****** ****** ****** ****** ****** ****** ****** ****** ****** ******
      ****** ****** ****** ****** ****** ****** ****** ****** ****** ******
      ****** ****** ****** ****** ****** ****** ****** ****** ****** ******
  22  ****** ****** ****** ****** ****** ****** ****** ****** ****** ******
      ****** ****** ****** ****** ****** ****** ****** ****** ****** ******
      ****** ****** ****** ****** ****** ****** ****** ****** ****** ******
  23  ****** ****** ****** ****** ****** ****** ****** ****** ****** ******
      ****** ****** ****** ****** ****** ****** ****** ****** ****** ******
      ****** ****** ****** ****** ****** ****** ****** ****** ****** ******
  24  ****** ****** ****** ****** ****** ****** ****** ****** ****** ******
      ****** ****** ****** ****** ****** ****** ****** ****** ****** ******
      ****** ****** ****** ****** ****** ****** ****** ****** ****** ******
  25  ****** ****** ****** ****** ****** ****** ****** ****** ****** ******
      ****** ****** ****** ****** ****** ****** ****** ****** ****** ******
      ****** ****** ****** ****** ****** ****** ****** ****** ****** ******

 HEAD WILL BE SAVED ON UNIT   51 AT END OF TIME STEP    1, STRESS PERIOD    3
1
  VOLUMETRIC BUDGET FOR ENTIRE MODEL AT END OF TIME STEP    1, STRESS PERIOD   3
  ------------------------------------------------------------------------------

     CUMULATIVE VOLUMES      L**3       RATES FOR THIS TIME STEP      L**3/T
     ------------------                 ------------------------

           IN:                                      IN:
           ---                                      ---
             STORAGE =    27531850.2018               STORAGE =       55455.4358
       CONSTANT HEAD =     5071811.3925         CONSTANT HEAD =       25802.0246
               WELLS =           0.0000                 WELLS =           0.0000
            RECHARGE =     6292800.0000              RECHARGE =           0.0000
      STREAM LEAKAGE =    12486633.0793        STREAM LEAKAGE =       52582.5987

            TOTAL IN =    51383094.6736              TOTAL IN =      133840.0591

          OUT:                                     OUT:
          ----                                     ----
             STORAGE =           0.0000               STORAGE =           0.0000
       CONSTANT HEAD =           0.0000         CONSTANT HEAD =           0.0000
               WELLS =    20951938.8010                 WELLS =       76466.9299
            RECHARGE =           0.0000              RECHARGE =           0.0000
      STREAM LEAKAGE =    30431157.3319        STREAM LEAKAGE =       57373.1334

           TOTAL OUT =    51383096.1328             TOTAL OUT =      133840.0633

            IN - OUT =          -1.4593              IN - OUT =      -4.1350E-03

 PERCENT DISCREPANCY =          -0.00     PERCENT DISCREPANCY =          -0.00






         TIME SUMMARY AT END OF TIME STEP    1 IN STRESS PERIOD    3
                    SECONDS     MINUTES      HOURS       DAYS        YEARS
                    -----------------------------------------------------------
   TIME STEP LENGTH 7.86240E+06 1.31040E+05  2184.0      91.000     0.24914    
 STRESS PERIOD TIME 7.86240E+06 1.31040E+05  2184.0      91.000     0.24914    
         TOTAL TIME 2.36736E+07 3.94560E+05  6576.0      274.00     0.75017    
1
1
                            STRESS PERIOD NO.    4, LENGTH =   91.00000    
                            -----------------------------------------------

                              NUMBER OF TIME STEPS =     1

                               MULTIPLIER FOR DELT =     1.500

                            INITIAL TIME STEP SIZE =   91.00000    

 WELL NO.  LAYER   ROW   COL   STRESS RATE         
 --------------------------------------------------
      1      1     14      6       0.000    
      2      1      3      9       0.000    
      3      1     20     10       0.000    
      4      1     14     20       0.000    
      5      1     15      4     -0.1117E+05
      6      1     11     22     -0.1086E+05
      7      1     18     29     -0.4636E+05
      8      1      5     18      -8080.    

      8 WELLS

                 RECHARGE =  1.000000E-03

 REUSING STREAM SEGMENT DATA FROM LAST STRESS PERIOD
 
 SOLVING FOR HEAD 


     7 CALLS TO PCG ROUTINE FOR TIME STEP   1 IN STRESS PERIOD    4
    29 TOTAL ITERATIONS

 OUTPUT CONTROL FOR STRESS PERIOD    4   TIME STEP    1
    SAVE BUDGET
    SAVE HEAD FOR ALL LAYERS
    PRINT HEAD FOR ALL LAYERS
 UBDSV2 SAVING "STREAMFLOW OUT  " ON UNIT  50 AT TIME STEP  1, STRESS PERIOD   4



 STREAM LISTING     PERIOD      4   STEP        1

 LAYER ROW COL. STREAM  RCH.  FLOW INTO     FLOW TO   FLOW OUT OF   OVRLND.     DIRECT     STREAM       STREAM     STREAM     STREAM   STREAMBED  STREAMBED
                SEG.NO.  NO.  STRM. RCH.    AQUIFER    STRM. RCH.    RUNOFF     PRECIP       ET          HEAD       DEPTH      WIDTH   CONDCTNC.   GRADIENT

   1   13    1     1     1    1.0000E+05 -2.4921E+03   1.0249E+05  0.000E+00  0.000E+00  0.000E+00  4.84071E+01  1.457E-01  2.000E+01  2.000E+04 -1.246E-01
   1   13    2     1     2    1.0249E+05 -3.5583E+03   1.0605E+05  0.000E+00  0.000E+00  0.000E+00  4.79324E+01  1.483E-01  2.000E+01  2.000E+04 -1.779E-01
   1   14    3     1     3    1.0605E+05 -6.0859E+02   1.0666E+05  0.000E+00  0.000E+00  0.000E+00  4.74569E+01  1.501E-01  2.000E+01  2.000E+04 -3.043E-02
   1   15    4     1     4    1.0666E+05  1.0460E+04   9.6199E+04  0.000E+00  0.000E+00  0.000E+00  4.69754E+01  1.459E-01  2.000E+01  2.000E+04  5.230E-01
   1   16    5     1     5    9.6199E+04 -2.1292E+03   9.8328E+04  0.000E+00  0.000E+00  0.000E+00  4.64945E+01  1.423E-01  2.000E+01  2.000E+04 -1.065E-01
   1   16    6     1     6    9.8328E+04 -1.3582E+03   9.9686E+04  0.000E+00  0.000E+00  0.000E+00  4.60188E+01  1.438E-01  2.000E+01  2.000E+04 -6.791E-02
   1   16    7     1     7    9.9686E+04 -1.3386E+03   1.0102E+05  0.000E+00  0.000E+00  0.000E+00  4.55427E+01  1.450E-01  2.000E+01  2.000E+04 -6.693E-02
   1   16    8     1     8    1.0102E+05 -1.3346E+03   1.0236E+05  0.000E+00  0.000E+00  0.000E+00  4.50666E+01  1.461E-01  2.000E+01  2.000E+04 -6.673E-02
   1   16    9     1     9    1.0236E+05 -1.3235E+03   1.0368E+05  0.000E+00  0.000E+00  0.000E+00  4.45904E+01  1.473E-01  2.000E+01  2.000E+04 -6.618E-02
   1   16   10     1    10    1.0368E+05 -1.3055E+03   1.0499E+05  0.000E+00  0.000E+00  0.000E+00  4.41143E+01  1.484E-01  2.000E+01  2.000E+04 -6.528E-02
   1   16   11     1    11    1.0499E+05 -1.3089E+03   1.0630E+05  0.000E+00  0.000E+00  0.000E+00  4.36381E+01  1.495E-01  2.000E+01  2.000E+04 -6.545E-02
   1   16   12     1    12    1.0630E+05 -2.2668E+03   1.0856E+05  0.000E+00  0.000E+00  0.000E+00  4.31624E+01  1.510E-01  2.000E+01  2.000E+04 -1.133E-01
   1   15   13     1    13    1.0856E+05 -2.1609E+03   1.1072E+05  0.000E+00  0.000E+00  0.000E+00  4.26870E+01  1.529E-01  2.000E+01  2.000E+04 -1.080E-01
   1   14   14     1    14    1.1072E+05 -2.4002E+03   1.1313E+05  0.000E+00  0.000E+00  0.000E+00  4.22116E+01  1.548E-01  2.000E+01  2.000E+04 -1.200E-01
   1   13   15     1    15    1.1313E+05 -2.5997E+03   1.1572E+05  0.000E+00  0.000E+00  0.000E+00  4.17364E+01  1.568E-01  2.000E+01  2.000E+04 -1.300E-01
   1   12   16     1    16    1.1572E+05 -2.9421E+03   1.1867E+05  0.000E+00  0.000E+00  0.000E+00  4.12614E+01  1.591E-01  2.000E+01  2.000E+04 -1.471E-01
   1   12   17     1    17    1.1867E+05 -1.7842E+03   1.2045E+05  0.000E+00  0.000E+00  0.000E+00  4.07860E+01  1.610E-01  2.000E+01  2.000E+04 -8.921E-02
   1   12   18     1    18    1.2045E+05 -1.5175E+03   1.2197E+05  0.000E+00  0.000E+00  0.000E+00  4.03101E+01  1.623E-01  2.000E+01  2.000E+04 -7.588E-02
   1   12   19     1    19    1.2197E+05 -1.1217E+03   1.2309E+05  0.000E+00  0.000E+00  0.000E+00  3.98339E+01  1.634E-01  2.000E+01  2.000E+04 -5.608E-02
   1   13   20     1    20    1.2309E+05 -7.3527E+02   1.2383E+05  0.000E+00  0.000E+00  0.000E+00  3.93573E+01  1.641E-01  2.000E+01  2.000E+04 -3.676E-02
   1   14   21     1    21    1.2383E+05 -1.3846E+03   1.2521E+05  0.000E+00  0.000E+00  0.000E+00  3.88809E+01  1.650E-01  2.000E+01  2.000E+04 -6.923E-02
   1   14   22     1    22    1.2521E+05  5.0820E+03   1.2013E+05  0.000E+00  0.000E+00  0.000E+00  3.84022E+01  1.635E-01  2.000E+01  2.000E+04  2.541E-01
   1    9   30     2     1    5.0000E+04 -5.9924E+02   5.0599E+04  0.000E+00  0.000E+00  0.000E+00  4.02413E+01  1.163E-01  2.000E+01  2.000E+04 -2.996E-02
   1    9   29     2     2    5.0599E+04 -8.9086E+02   5.1490E+04  0.000E+00  0.000E+00  0.000E+00  3.99923E+01  1.173E-01  2.000E+01  2.000E+04 -4.454E-02
   1    9   28     2     3    5.1490E+04 -1.1201E+03   5.2610E+04  0.000E+00  0.000E+00  0.000E+00  3.97437E+01  1.187E-01  2.000E+01  2.000E+04 -5.600E-02
   1    9   27     2     4    5.2610E+04 -2.1474E+03   5.4758E+04  0.000E+00  0.000E+00  0.000E+00  3.94959E+01  1.209E-01  2.000E+01  2.000E+04 -1.074E-01
   1   10   26     2     5    5.4758E+04 -1.0467E+03   5.5804E+04  0.000E+00  0.000E+00  0.000E+00  3.92481E+01  1.231E-01  2.000E+01  2.000E+04 -5.234E-02
   1   11   25     2     6    5.5804E+04 -2.3998E+02   5.6044E+04  0.000E+00  0.000E+00  0.000E+00  3.89989E+01  1.239E-01  2.000E+01  2.000E+04 -1.200E-02
   1   12   24     2     7    5.6044E+04  6.5868E+02   5.5386E+04  0.000E+00  0.000E+00  0.000E+00  3.87486E+01  1.236E-01  2.000E+01  2.000E+04  3.293E-02
   1   13   23     2     8    5.5386E+04  1.6008E+02   5.5226E+04  0.000E+00  0.000E+00  0.000E+00  3.84981E+01  1.231E-01  2.000E+01  2.000E+04  8.004E-03
   1   14   22     2     9    5.5226E+04  1.9722E+03   5.3253E+04  0.000E+00  0.000E+00  0.000E+00  3.82467E+01  1.217E-01  2.000E+01  2.000E+04  9.861E-02
   1   14   22     3     1    1.7338E+05 -8.4614E+03   1.8184E+05  0.000E+00  0.000E+00  0.000E+00  3.77250E+01  1.694E-01  2.000E+01  2.000E+04 -4.231E-01
   1   15   23     3     2    1.8184E+05 -6.2132E+02   1.8246E+05  0.000E+00  0.000E+00  0.000E+00  3.68387E+01  1.720E-01  2.000E+01  2.000E+04 -3.107E-02
   1   15   24     3     3    1.8246E+05 -3.2385E+02   1.8279E+05  0.000E+00  0.000E+00  0.000E+00  3.59501E+01  1.723E-01  2.000E+01  2.000E+04 -1.619E-02
   1   15   25     3     4    1.8279E+05 -3.0392E+02   1.8309E+05  0.000E+00  0.000E+00  0.000E+00  3.50613E+01  1.725E-01  2.000E+01  2.000E+04 -1.520E-02
   1   15   26     3     5    1.8309E+05 -3.0505E+02   1.8340E+05  0.000E+00  0.000E+00  0.000E+00  3.41726E+01  1.726E-01  2.000E+01  2.000E+04 -1.525E-02
   1   16   27     3     6    1.8340E+05 -1.7863E+02   1.8358E+05  0.000E+00  0.000E+00  0.000E+00  3.32839E+01  1.728E-01  2.000E+01  2.000E+04 -8.932E-03
   1   17   28     3     7    1.8358E+05  4.8094E+03   1.7877E+05  0.000E+00  0.000E+00  0.000E+00  3.23937E+01  1.715E-01  2.000E+01  2.000E+04  2.405E-01
   1   18   29     3     8    1.7877E+05  2.3267E+04   1.5550E+05  0.000E+00  0.000E+00  0.000E+00  3.14967E+01  1.634E-01  2.000E+01  2.000E+04  1.163E+00
   1   18   30     3     9    1.5550E+05  7.0162E+03   1.4848E+05  0.000E+00  0.000E+00  0.000E+00  3.05988E+01  1.543E-01  2.000E+01  2.000E+04  3.508E-01



1
              HEAD IN LAYER   1 AT END OF TIME STEP   1 IN STRESS PERIOD    4
  ---------------------------------------------------------------------------

          1      2      3      4      5      6      7      8      9     10
         11     12     13     14     15     16     17     18     19     20
         21     22     23     24     25     26     27     28     29     30
 .........................................................................
   1  ****** ****** ****** ****** ****** ****** ****** ****** ****** ******
      ****** ****** ****** ****** ****** ****** ****** ****** ****** ******
      ****** ****** ****** ****** ****** ****** ****** ****** ****** ******
   2  ****** ****** ****** ****** ****** ****** ****** ****** ****** ******
      ****** ****** ****** ****** ****** ****** ****** ****** ****** ******
      ****** ****** ****** ****** ****** ****** ****** ****** ****** ******
   3  ****** ****** ****** ****** ****** ****** ****** ****** ****** ******
      ****** ****** ****** ****** ****** ****** ****** ****** ****** ******
      ****** ****** ****** ****** ****** ****** ****** ****** ****** ******
   4  ****** ****** ****** ****** ****** ****** ****** ****** ****** ******
      ****** ****** ****** ****** ****** ****** ****** ****** ****** ******
      ****** ****** ****** ****** ****** ****** ****** ****** ****** ******
   5  ****** ****** ****** ****** ****** ****** ****** ****** ****** ******
      ****** ****** ****** ****** ****** ****** ****** ****** ****** ******
      ****** ****** ****** ****** ****** ****** ****** ****** ****** ******
   6  ****** ****** ****** ****** ****** ****** ****** ****** ****** ******
      ****** ****** ****** ****** ****** ****** ****** ****** ****** ******
      ****** ****** ****** ****** ****** ****** ****** ****** ****** ******
   7  ****** ****** ****** ****** ****** ****** ****** ****** ****** ******
      ****** ****** ****** ****** ****** ****** ****** ****** ****** ******
      ****** ****** ****** ****** ****** ****** ****** ****** ****** ******
   8  ****** ****** ****** ****** ****** ****** ****** ****** ****** ******
      ****** ****** ****** ****** ****** ****** ****** ****** ****** ******
      ****** ****** ****** ****** ****** ****** ****** ****** ****** ******
   9  ****** ****** ****** ****** ****** ****** ****** ****** ****** ******
      ****** ****** ****** ****** ****** ****** ****** ****** ****** ******
      ****** ****** ****** ****** ****** ****** ****** ****** ****** ******
  10  ****** ****** ****** ****** ****** ****** ****** ****** ****** ******
      ****** ****** ****** ****** ****** ****** ****** ****** ****** ******
      ****** ****** ****** ****** ****** ****** ****** ****** ****** ******
  11  ****** ****** ****** ****** ****** ****** ****** ****** ****** ******
      ****** ****** ****** ****** ****** ****** ****** ****** ****** ******
      ****** ****** ****** ****** ****** ****** ****** ****** ****** ******
  12  ****** ****** ****** ****** ****** ****** ****** ****** ****** ******
      ****** ****** ****** ****** ****** ****** ****** ****** ****** ******
      ****** ****** ****** ****** ****** ****** ****** ****** ****** ******
  13  ****** ****** ****** ****** ****** ****** ****** ****** ****** ******
      ****** ****** ****** ****** ****** ****** ****** ****** ****** ******
      ****** ****** ****** ****** ****** ****** ****** ****** ****** ******
  14  ****** ****** ****** ****** ****** ****** ****** ****** ****** ******
      ****** ****** ****** ****** ****** ****** ****** ****** ****** ******
      ****** ****** ****** ****** ****** ****** ****** ****** ****** ******
  15  ****** ****** ****** ****** ****** ****** ****** ****** ****** ******
      ****** ****** ****** ****** ****** ****** ****** ****** ****** ******
      ****** ****** ****** ****** ****** ****** ****** ****** ****** ******
  16  ****** ****** ****** ****** ****** ****** ****** ****** ****** ******
      ****** ****** ****** ****** ****** ****** ****** ****** ****** ******
      ****** ****** ****** ****** ****** ****** ****** ****** ****** ******
  17  ****** ****** ****** ****** ****** ****** ****** ****** ****** ******
      ****** ****** ****** ****** ****** ****** ****** ****** ****** ******
      ****** ****** ****** ****** ****** ****** ****** ****** ****** ******
  18  ****** ****** ****** ****** ****** ****** ****** ****** ****** ******
      ****** ****** ****** ****** ****** ****** ****** ****** ****** ******
      ****** ****** ****** ****** ****** ****** ****** ****** ****** ******
  19  ****** ****** ****** ****** ****** ****** ****** ****** ****** ******
      ****** ****** ****** ****** ****** ****** ****** ****** ****** ******
      ****** ****** ****** ****** ****** ****** ****** ****** ****** ******
  20  ****** ****** ****** ****** ****** ****** ****** ****** ****** ******
      ****** ****** ****** ****** ****** ****** ****** ****** ****** ******
      ****** ****** ****** ****** ****** ****** ****** ****** ****** ******
  21  ****** ****** ****** ****** ****** ****** ****** ****** ****** ******
      ****** ****** ****** ****** ****** ****** ****** ****** ****** ******
      ****** ****** ****** ****** ****** ****** ****** ****** ****** ******
  22  ****** ****** ****** ****** ****** ****** ****** ****** ****** ******
      ****** ****** ****** ****** ****** ****** ****** ****** ****** ******
      ****** ****** ****** ****** ****** ****** ****** ****** ****** ******
  23  ****** ****** ****** ****** ****** ****** ****** ****** ****** ******
      ****** ****** ****** ****** ****** ****** ****** ****** ****** ******
      ****** ****** ****** ****** ****** ****** ****** ****** ****** ******
  24  ****** ****** ****** ****** ****** ****** ****** ****** ****** ******
      ****** ****** ****** ****** ****** ****** ****** ****** ****** ******
      ****** ****** ****** ****** ****** ****** ****** ****** ****** ******
  25  ****** ****** ****** ****** ****** ****** ****** ****** ****** ******
      ****** ****** ****** ****** ****** ****** ****** ****** ****** ******
      ****** ****** ****** ****** ****** ****** ****** ****** ****** ******

 HEAD WILL BE SAVED ON UNIT   51 AT END OF TIME STEP    1, STRESS PERIOD    4
1
  VOLUMETRIC BUDGET FOR ENTIRE MODEL AT END OF TIME STEP    1, STRESS PERIOD   4
  ------------------------------------------------------------------------------

     CUMULATIVE VOLUMES      L**3       RATES FOR THIS TIME STEP      L**3/T
     ------------------                 ------------------------

           IN:                                      IN:
           ---                                      ---
             STORAGE =    29251004.6905               STORAGE =       18891.8076
       CONSTANT HEAD =     7662017.2119         CONSTANT HEAD =       28463.8002
               WELLS =           0.0000                 WELLS =           0.0000
            RECHARGE =     8804400.0000              RECHARGE =       27600.0000
      STREAM LEAKAGE =    17348398.1483        STREAM LEAKAGE =       53425.9898

            TOTAL IN =    63065820.0507              TOTAL IN =      128381.5976

          OUT:                                     OUT:
          ----                                     ----
             STORAGE =         538.4865               STORAGE =           5.9174
       CONSTANT HEAD =           0.0000         CONSTANT HEAD =           0.0000
               WELLS =    27910429.4247                 WELLS =       76466.9299
            RECHARGE =           0.0000              RECHARGE =           0.0000
      STREAM LEAKAGE =    35154853.8474        STREAM LEAKAGE =       51908.7529

           TOTAL OUT =    63065821.7585             TOTAL OUT =      128381.6003

            IN - OUT =          -1.7079              IN - OUT =      -2.7321E-03

 PERCENT DISCREPANCY =          -0.00     PERCENT DISCREPANCY =          -0.00






         TIME SUMMARY AT END OF TIME STEP    1 IN STRESS PERIOD    4
                    SECONDS     MINUTES      HOURS       DAYS        YEARS
                    -----------------------------------------------------------
   TIME STEP LENGTH 7.86240E+06 1.31040E+05  2184.0      91.000     0.24914    
 STRESS PERIOD TIME 7.86240E+06 1.31040E+05  2184.0      91.000     0.24914    
         TOTAL TIME 3.15360E+07 5.25600E+05  8760.0      365.00     0.99932    
1
1
                            STRESS PERIOD NO.    5, LENGTH =   92.00000    
                            -----------------------------------------------

                              NUMBER OF TIME STEPS =     1

                               MULTIPLIER FOR DELT =     1.500

                            INITIAL TIME STEP SIZE =   92.00000    

 WELL NO.  LAYER   ROW   COL   STRESS RATE         
 --------------------------------------------------
      1      1     14      6       0.000    
      2      1      3      9       0.000    
      3      1     20     10       0.000    
      4      1     14     20       0.000    
      5      1     15      4     -0.1117E+05
      6      1     11     22     -0.1086E+05
      7      1     18     29     -0.4636E+05
      8      1      5     18      -8080.    

      8 WELLS

                 RECHARGE =  5.000000E-04

 REUSING STREAM SEGMENT DATA FROM LAST STRESS PERIOD
 
 SOLVING FOR HEAD 


     8 CALLS TO PCG ROUTINE FOR TIME STEP   1 IN STRESS PERIOD    5
    31 TOTAL ITERATIONS

 OUTPUT CONTROL FOR STRESS PERIOD    5   TIME STEP    1
    SAVE BUDGET
    SAVE HEAD FOR ALL LAYERS
    PRINT HEAD FOR ALL LAYERS
 UBDSV2 SAVING "STREAMFLOW OUT  " ON UNIT  50 AT TIME STEP  1, STRESS PERIOD   5



 STREAM LISTING     PERIOD      5   STEP        1

 LAYER ROW COL. STREAM  RCH.  FLOW INTO     FLOW TO   FLOW OUT OF   OVRLND.     DIRECT     STREAM       STREAM     STREAM     STREAM   STREAMBED  STREAMBED
                SEG.NO.  NO.  STRM. RCH.    AQUIFER    STRM. RCH.    RUNOFF     PRECIP       ET          HEAD       DEPTH      WIDTH   CONDCTNC.   GRADIENT

   1   13    1     1     1    1.0000E+05 -2.0726E+03   1.0207E+05  0.000E+00  0.000E+00  0.000E+00  4.84069E+01  1.455E-01  2.000E+01  2.000E+04 -1.036E-01
   1   13    2     1     2    1.0207E+05 -3.0842E+03   1.0516E+05  0.000E+00  0.000E+00  0.000E+00  4.79319E+01  1.478E-01  2.000E+01  2.000E+04 -1.542E-01
   1   14    3     1     3    1.0516E+05 -4.8613E+02   1.0564E+05  0.000E+00  0.000E+00  0.000E+00  4.74561E+01  1.493E-01  2.000E+01  2.000E+04 -2.431E-02
   1   15    4     1     4    1.0564E+05  1.0589E+04   9.5054E+04  0.000E+00  0.000E+00  0.000E+00  4.69745E+01  1.450E-01  2.000E+01  2.000E+04  5.294E-01
   1   16    5     1     5    9.5054E+04 -1.7019E+03   9.6756E+04  0.000E+00  0.000E+00  0.000E+00  4.64933E+01  1.411E-01  2.000E+01  2.000E+04 -8.510E-02
   1   16    6     1     6    9.6756E+04 -1.1078E+03   9.7864E+04  0.000E+00  0.000E+00  0.000E+00  4.60173E+01  1.423E-01  2.000E+01  2.000E+04 -5.539E-02
   1   16    7     1     7    9.7864E+04 -1.0986E+03   9.8962E+04  0.000E+00  0.000E+00  0.000E+00  4.55410E+01  1.433E-01  2.000E+01  2.000E+04 -5.493E-02
   1   16    8     1     8    9.8962E+04 -1.0982E+03   1.0006E+05  0.000E+00  0.000E+00  0.000E+00  4.50647E+01  1.442E-01  2.000E+01  2.000E+04 -5.491E-02
   1   16    9     1     9    1.0006E+05 -1.0902E+03   1.0115E+05  0.000E+00  0.000E+00  0.000E+00  4.45884E+01  1.452E-01  2.000E+01  2.000E+04 -5.451E-02
   1   16   10     1    10    1.0115E+05 -1.0758E+03   1.0223E+05  0.000E+00  0.000E+00  0.000E+00  4.41120E+01  1.461E-01  2.000E+01  2.000E+04 -5.379E-02
   1   16   11     1    11    1.0223E+05 -1.0790E+03   1.0331E+05  0.000E+00  0.000E+00  0.000E+00  4.36357E+01  1.470E-01  2.000E+01  2.000E+04 -5.395E-02
   1   16   12     1    12    1.0331E+05 -1.8539E+03   1.0516E+05  0.000E+00  0.000E+00  0.000E+00  4.31597E+01  1.483E-01  2.000E+01  2.000E+04 -9.270E-02
   1   15   13     1    13    1.0516E+05 -1.7211E+03   1.0688E+05  0.000E+00  0.000E+00  0.000E+00  4.26839E+01  1.498E-01  2.000E+01  2.000E+04 -8.605E-02
   1   14   14     1    14    1.0688E+05 -1.9288E+03   1.0881E+05  0.000E+00  0.000E+00  0.000E+00  4.22082E+01  1.514E-01  2.000E+01  2.000E+04 -9.644E-02
   1   13   15     1    15    1.0881E+05 -2.1066E+03   1.1092E+05  0.000E+00  0.000E+00  0.000E+00  4.17326E+01  1.531E-01  2.000E+01  2.000E+04 -1.053E-01
   1   12   16     1    16    1.1092E+05 -2.3946E+03   1.1331E+05  0.000E+00  0.000E+00  0.000E+00  4.12572E+01  1.549E-01  2.000E+01  2.000E+04 -1.197E-01
   1   12   17     1    17    1.1331E+05 -1.4182E+03   1.1473E+05  0.000E+00  0.000E+00  0.000E+00  4.07815E+01  1.565E-01  2.000E+01  2.000E+04 -7.091E-02
   1   12   18     1    18    1.1473E+05 -1.1691E+03   1.1590E+05  0.000E+00  0.000E+00  0.000E+00  4.03053E+01  1.576E-01  2.000E+01  2.000E+04 -5.845E-02
   1   12   19     1    19    1.1590E+05 -6.9687E+02   1.1659E+05  0.000E+00  0.000E+00  0.000E+00  3.98288E+01  1.583E-01  2.000E+01  2.000E+04 -3.484E-02
   1   13   20     1    20    1.1659E+05 -3.7206E+02   1.1697E+05  0.000E+00  0.000E+00  0.000E+00  3.93519E+01  1.588E-01  2.000E+01  2.000E+04 -1.860E-02
   1   14   21     1    21    1.1697E+05 -1.0009E+03   1.1797E+05  0.000E+00  0.000E+00  0.000E+00  3.88752E+01  1.593E-01  2.000E+01  2.000E+04 -5.005E-02
   1   14   22     1    22    1.1797E+05  5.1629E+03   1.1280E+05  0.000E+00  0.000E+00  0.000E+00  3.83963E+01  1.576E-01  2.000E+01  2.000E+04  2.581E-01
   1    9   30     2     1    5.0000E+04 -3.5724E+02   5.0357E+04  0.000E+00  0.000E+00  0.000E+00  4.02411E+01  1.161E-01  2.000E+01  2.000E+04 -1.786E-02
   1    9   29     2     2    5.0357E+04 -6.4520E+02   5.1002E+04  0.000E+00  0.000E+00  0.000E+00  3.99918E+01  1.168E-01  2.000E+01  2.000E+04 -3.226E-02
   1    9   28     2     3    5.1002E+04 -8.6205E+02   5.1864E+04  0.000E+00  0.000E+00  0.000E+00  3.97428E+01  1.178E-01  2.000E+01  2.000E+04 -4.310E-02
   1    9   27     2     4    5.1864E+04 -1.7399E+03   5.3604E+04  0.000E+00  0.000E+00  0.000E+00  3.94946E+01  1.196E-01  2.000E+01  2.000E+04 -8.699E-02
   1   10   26     2     5    5.3604E+04 -6.9047E+02   5.4295E+04  0.000E+00  0.000E+00  0.000E+00  3.92463E+01  1.213E-01  2.000E+01  2.000E+04 -3.452E-02
   1   11   25     2     6    5.4295E+04  8.6463E+01   5.4208E+04  0.000E+00  0.000E+00  0.000E+00  3.89967E+01  1.217E-01  2.000E+01  2.000E+04  4.323E-03
   1   12   24     2     7    5.4208E+04  9.5595E+02   5.3252E+04  0.000E+00  0.000E+00  0.000E+00  3.87460E+01  1.210E-01  2.000E+01  2.000E+04  4.780E-02
   1   13   23     2     8    5.3252E+04  2.3041E+02   5.3022E+04  0.000E+00  0.000E+00  0.000E+00  3.84952E+01  1.202E-01  2.000E+01  2.000E+04  1.152E-02
   1   14   22     2     9    5.3022E+04  2.1093E+03   5.0913E+04  0.000E+00  0.000E+00  0.000E+00  3.82436E+01  1.186E-01  2.000E+01  2.000E+04  1.055E-01
   1   14   22     3     1    1.6372E+05 -8.3750E+03   1.7209E+05  0.000E+00  0.000E+00  0.000E+00  3.77194E+01  1.638E-01  2.000E+01  2.000E+04 -4.187E-01
   1   15   23     3     2    1.7209E+05 -5.2091E+02   1.7261E+05  0.000E+00  0.000E+00  0.000E+00  3.68331E+01  1.664E-01  2.000E+01  2.000E+04 -2.605E-02
   1   15   24     3     3    1.7261E+05 -2.4970E+02   1.7286E+05  0.000E+00  0.000E+00  0.000E+00  3.59444E+01  1.666E-01  2.000E+01  2.000E+04 -1.248E-02
   1   15   25     3     4    1.7286E+05 -2.2982E+02   1.7309E+05  0.000E+00  0.000E+00  0.000E+00  3.50556E+01  1.668E-01  2.000E+01  2.000E+04 -1.149E-02
   1   15   26     3     5    1.7309E+05 -2.2888E+02   1.7332E+05  0.000E+00  0.000E+00  0.000E+00  3.41669E+01  1.669E-01  2.000E+01  2.000E+04 -1.144E-02
   1   16   27     3     6    1.7332E+05 -7.7544E+01   1.7340E+05  0.000E+00  0.000E+00  0.000E+00  3.32781E+01  1.670E-01  2.000E+01  2.000E+04 -3.877E-03
   1   17   28     3     7    1.7340E+05  5.2688E+03   1.6813E+05  0.000E+00  0.000E+00  0.000E+00  3.23877E+01  1.655E-01  2.000E+01  2.000E+04  2.634E-01
   1   18   29     3     8    1.6813E+05  2.3142E+04   1.4499E+05  0.000E+00  0.000E+00  0.000E+00  3.14904E+01  1.571E-01  2.000E+01  2.000E+04  1.157E+00
   1   18   30     3     9    1.4499E+05  7.5728E+03   1.3742E+05  0.000E+00  0.000E+00  0.000E+00  3.05921E+01  1.476E-01  2.000E+01  2.000E+04  3.786E-01



1
              HEAD IN LAYER   1 AT END OF TIME STEP   1 IN STRESS PERIOD    5
  ---------------------------------------------------------------------------

          1      2      3      4      5      6      7      8      9     10
         11     12     13     14     15     16     17     18     19     20
         21     22     23     24     25     26     27     28     29     30
 .........................................................................
   1  ****** ****** ****** ****** ****** ****** ****** ****** ****** ******
      ****** ****** ****** ****** ****** ****** ****** ****** ****** ******
      ****** ****** ****** ****** ****** ****** ****** ****** ****** ******
   2  ****** ****** ****** ****** ****** ****** ****** ****** ****** ******
      ****** ****** ****** ****** ****** ****** ****** ****** ****** ******
      ****** ****** ****** ****** ****** ****** ****** ****** ****** ******
   3  ****** ****** ****** ****** ****** ****** ****** ****** ****** ******
      ****** ****** ****** ****** ****** ****** ****** ****** ****** ******
      ****** ****** ****** ****** ****** ****** ****** ****** ****** ******
   4  ****** ****** ****** ****** ****** ****** ****** ****** ****** ******
      ****** ****** ****** ****** ****** ****** ****** ****** ****** ******
      ****** ****** ****** ****** ****** ****** ****** ****** ****** ******
   5  ****** ****** ****** ****** ****** ****** ****** ****** ****** ******
      ****** ****** ****** ****** ****** ****** ****** ****** ****** ******
      ****** ****** ****** ****** ****** ****** ****** ****** ****** ******
   6  ****** ****** ****** ****** ****** ****** ****** ****** ****** ******
      ****** ****** ****** ****** ****** ****** ****** ****** ****** ******
      ****** ****** ****** ****** ****** ****** ****** ****** ****** ******
   7  ****** ****** ****** ****** ****** ****** ****** ****** ****** ******
      ****** ****** ****** ****** ****** ****** ****** ****** ****** ******
      ****** ****** ****** ****** ****** ****** ****** ****** ****** ******
   8  ****** ****** ****** ****** ****** ****** ****** ****** ****** ******
      ****** ****** ****** ****** ****** ****** ****** ****** ****** ******
      ****** ****** ****** ****** ****** ****** ****** ****** ****** ******
   9  ****** ****** ****** ****** ****** ****** ****** ****** ****** ******
      ****** ****** ****** ****** ****** ****** ****** ****** ****** ******
      ****** ****** ****** ****** ****** ****** ****** ****** ****** ******
  10  ****** ****** ****** ****** ****** ****** ****** ****** ****** ******
      ****** ****** ****** ****** ****** ****** ****** ****** ****** ******
      ****** ****** ****** ****** ****** ****** ****** ****** ****** ******
  11  ****** ****** ****** ****** ****** ****** ****** ****** ****** ******
      ****** ****** ****** ****** ****** ****** ****** ****** ****** ******
      ****** ****** ****** ****** ****** ****** ****** ****** ****** ******
  12  ****** ****** ****** ****** ****** ****** ****** ****** ****** ******
      ****** ****** ****** ****** ****** ****** ****** ****** ****** ******
      ****** ****** ****** ****** ****** ****** ****** ****** ****** ******
  13  ****** ****** ****** ****** ****** ****** ****** ****** ****** ******
      ****** ****** ****** ****** ****** ****** ****** ****** ****** ******
      ****** ****** ****** ****** ****** ****** ****** ****** ****** ******
  14  ****** ****** ****** ****** ****** ****** ****** ****** ****** ******
      ****** ****** ****** ****** ****** ****** ****** ****** ****** ******
      ****** ****** ****** ****** ****** ****** ****** ****** ****** ******
  15  ****** ****** ****** ****** ****** ****** ****** ****** ****** ******
      ****** ****** ****** ****** ****** ****** ****** ****** ****** ******
      ****** ****** ****** ****** ****** ****** ****** ****** ****** ******
  16  ****** ****** ****** ****** ****** ****** ****** ****** ****** ******
      ****** ****** ****** ****** ****** ****** ****** ****** ****** ******
      ****** ****** ****** ****** ****** ****** ****** ****** ****** ******
  17  ****** ****** ****** ****** ****** ****** ****** ****** ****** ******
      ****** ****** ****** ****** ****** ****** ****** ****** ****** ******
      ****** ****** ****** ****** ****** ****** ****** ****** ****** ******
  18  ****** ****** ****** ****** ****** ****** ****** ****** ****** ******
      ****** ****** ****** ****** ****** ****** ****** ****** ****** ******
      ****** ****** ****** ****** ****** ****** ****** ****** ****** ******
  19  ****** ****** ****** ****** ****** ****** ****** ****** ****** ******
      ****** ****** ****** ****** ****** ****** ****** ****** ****** ******
      ****** ****** ****** ****** ****** ****** ****** ****** ****** ******
  20  ****** ****** ****** ****** ****** ****** ****** ****** ****** ******
      ****** ****** ****** ****** ****** ****** ****** ****** ****** ******
      ****** ****** ****** ****** ****** ****** ****** ****** ****** ******
  21  ****** ****** ****** ****** ****** ****** ****** ****** ****** ******
      ****** ****** ****** ****** ****** ****** ****** ****** ****** ******
      ****** ****** ****** ****** ****** ****** ****** ****** ****** ******
  22  ****** ****** ****** ****** ****** ****** ****** ****** ****** ******
      ****** ****** ****** ****** ****** ****** ****** ****** ****** ******
      ****** ****** ****** ****** ****** ****** ****** ****** ****** ******
  23  ****** ****** ****** ****** ****** ****** ****** ****** ****** ******
      ****** ****** ****** ****** ****** ****** ****** ****** ****** ******
      ****** ****** ****** ****** ****** ****** ****** ****** ****** ******
  24  ****** ****** ****** ****** ****** ****** ****** ****** ****** ******
      ****** ****** ****** ****** ****** ****** ****** ****** ****** ******
      ****** ****** ****** ****** ****** ****** ****** ****** ****** ******
  25  ****** ****** ****** ****** ****** ****** ****** ****** ****** ******
      ****** ****** ****** ****** ****** ****** ****** ****** ****** ******
      ****** ****** ****** ****** ****** ****** ****** ****** ****** ******

 HEAD WILL BE SAVED ON UNIT   51 AT END OF TIME STEP    1, STRESS PERIOD    5
1
  VOLUMETRIC BUDGET FOR ENTIRE MODEL AT END OF TIME STEP    1, STRESS PERIOD   5
  ------------------------------------------------------------------------------

     CUMULATIVE VOLUMES      L**3       RATES FOR THIS TIME STEP      L**3/T
     ------------------                 ------------------------

           IN:                                      IN:
           ---                                      ---
             STORAGE =    30966663.7991               STORAGE =       18648.4686
       CONSTANT HEAD =    10554021.1953         CONSTANT HEAD =       31434.8259
               WELLS =           0.0000                 WELLS =           0.0000
            RECHARGE =    10074000.0000              RECHARGE =       13800.0000
      STREAM LEAKAGE =    22419162.7487        STREAM LEAKAGE =       55117.0065

            TOTAL IN =    74013847.7431              TOTAL IN =      119000.3010

          OUT:                                     OUT:
          ----                                     ----
             STORAGE =         538.4865               STORAGE =           0.0000
       CONSTANT HEAD =           0.0000         CONSTANT HEAD =           0.0000
               WELLS =    34945386.9783                 WELLS =       76466.9299
            RECHARGE =           0.0000              RECHARGE =           0.0000
      STREAM LEAKAGE =    39067924.1470        STREAM LEAKAGE =       42533.3728

           TOTAL OUT =    74013849.6117             TOTAL OUT =      119000.3028

            IN - OUT =          -1.8686              IN - OUT =      -1.7475E-03

 PERCENT DISCREPANCY =          -0.00     PERCENT DISCREPANCY =          -0.00






         TIME SUMMARY AT END OF TIME STEP    1 IN STRESS PERIOD    5
                    SECONDS     MINUTES      HOURS       DAYS        YEARS
                    -----------------------------------------------------------
   TIME STEP LENGTH 7.94880E+06 1.32480E+05  2208.0      92.000     0.25188    
 STRESS PERIOD TIME 7.94880E+06 1.32480E+05  2208.0      92.000     0.25188    
         TOTAL TIME 3.94848E+07 6.58080E+05  10968.      457.00      1.2512    
1
1
                            STRESS PERIOD NO.    6, LENGTH =   91.00000    
                            -----------------------------------------------

                              NUMBER OF TIME STEPS =     1

                               MULTIPLIER FOR DELT =     1.500

                            INITIAL TIME STEP SIZE =   91.00000    

 WELL NO.  LAYER   ROW   COL   STRESS RATE         
 --------------------------------------------------
      1      1     14      6       0.000    
      2      1      3      9       0.000    
      3      1     20     10       0.000    
      4      1     14     20       0.000    
      5      1     15      4     -0.1117E+05
      6      1     11     22     -0.1086E+05
      7      1     18     29     -0.4636E+05
      8      1      5     18      -8080.    

      8 WELLS

                 RECHARGE =  2.000000E-03

 REUSING STREAM SEGMENT DATA FROM LAST STRESS PERIOD
 
 SOLVING FOR HEAD 


     8 CALLS TO PCG ROUTINE FOR TIME STEP   1 IN STRESS PERIOD    6
    31 TOTAL ITERATIONS

 OUTPUT CONTROL FOR STRESS PERIOD    6   TIME STEP    1
    SAVE BUDGET
    SAVE HEAD FOR ALL LAYERS
    PRINT HEAD FOR ALL LAYERS
 UBDSV2 SAVING "STREAMFLOW OUT  " ON UNIT  50 AT TIME STEP  1, STRESS PERIOD   6



 STREAM LISTING     PERIOD      6   STEP        1

 LAYER ROW COL. STREAM  RCH.  FLOW INTO     FLOW TO   FLOW OUT OF   OVRLND.     DIRECT     STREAM       STREAM     STREAM     STREAM   STREAMBED  STREAMBED
                SEG.NO.  NO.  STRM. RCH.    AQUIFER    STRM. RCH.    RUNOFF     PRECIP       ET          HEAD       DEPTH      WIDTH   CONDCTNC.   GRADIENT

   1   13    1     1     1    1.0000E+05 -2.3840E+03   1.0238E+05  0.000E+00  0.000E+00  0.000E+00  4.84070E+01  1.457E-01  2.000E+01  2.000E+04 -1.192E-01
   1   13    2     1     2    1.0238E+05 -3.4250E+03   1.0581E+05  0.000E+00  0.000E+00  0.000E+00  4.79323E+01  1.482E-01  2.000E+01  2.000E+04 -1.713E-01
   1   14    3     1     3    1.0581E+05 -6.4079E+02   1.0645E+05  0.000E+00  0.000E+00  0.000E+00  4.74567E+01  1.499E-01  2.000E+01  2.000E+04 -3.204E-02
   1   15    4     1     4    1.0645E+05  1.0423E+04   9.6027E+04  0.000E+00  0.000E+00  0.000E+00  4.69753E+01  1.457E-01  2.000E+01  2.000E+04  5.211E-01
   1   16    5     1     5    9.6027E+04 -2.2004E+03   9.8228E+04  0.000E+00  0.000E+00  0.000E+00  4.64944E+01  1.421E-01  2.000E+01  2.000E+04 -1.100E-01
   1   16    6     1     6    9.8228E+04 -1.3999E+03   9.9628E+04  0.000E+00  0.000E+00  0.000E+00  4.60187E+01  1.437E-01  2.000E+01  2.000E+04 -7.000E-02
   1   16    7     1     7    9.9628E+04 -1.3753E+03   1.0100E+05  0.000E+00  0.000E+00  0.000E+00  4.55427E+01  1.449E-01  2.000E+01  2.000E+04 -6.877E-02
   1   16    8     1     8    1.0100E+05 -1.3704E+03   1.0237E+05  0.000E+00  0.000E+00  0.000E+00  4.50666E+01  1.461E-01  2.000E+01  2.000E+04 -6.852E-02
   1   16    9     1     9    1.0237E+05 -1.3620E+03   1.0374E+05  0.000E+00  0.000E+00  0.000E+00  4.45905E+01  1.473E-01  2.000E+01  2.000E+04 -6.810E-02
   1   16   10     1    10    1.0374E+05 -1.3492E+03   1.0508E+05  0.000E+00  0.000E+00  0.000E+00  4.41144E+01  1.484E-01  2.000E+01  2.000E+04 -6.746E-02
   1   16   11     1    11    1.0508E+05 -1.3559E+03   1.0644E+05  0.000E+00  0.000E+00  0.000E+00  4.36382E+01  1.496E-01  2.000E+01  2.000E+04 -6.779E-02
   1   16   12     1    12    1.0644E+05 -2.3002E+03   1.0874E+05  0.000E+00  0.000E+00  0.000E+00  4.31625E+01  1.511E-01  2.000E+01  2.000E+04 -1.150E-01
   1   15   13     1    13    1.0874E+05 -2.1745E+03   1.1092E+05  0.000E+00  0.000E+00  0.000E+00  4.26871E+01  1.530E-01  2.000E+01  2.000E+04 -1.087E-01
   1   14   14     1    14    1.1092E+05 -2.3751E+03   1.1329E+05  0.000E+00  0.000E+00  0.000E+00  4.22117E+01  1.549E-01  2.000E+01  2.000E+04 -1.188E-01
   1   13   15     1    15    1.1329E+05 -2.5314E+03   1.1582E+05  0.000E+00  0.000E+00  0.000E+00  4.17365E+01  1.569E-01  2.000E+01  2.000E+04 -1.266E-01
   1   12   16     1    16    1.1582E+05 -2.7691E+03   1.1859E+05  0.000E+00  0.000E+00  0.000E+00  4.12614E+01  1.591E-01  2.000E+01  2.000E+04 -1.385E-01
   1   12   17     1    17    1.1859E+05 -1.7260E+03   1.2032E+05  0.000E+00  0.000E+00  0.000E+00  4.07859E+01  1.609E-01  2.000E+01  2.000E+04 -8.630E-02
   1   12   18     1    18    1.2032E+05 -1.4810E+03   1.2180E+05  0.000E+00  0.000E+00  0.000E+00  4.03100E+01  1.622E-01  2.000E+01  2.000E+04 -7.405E-02
   1   12   19     1    19    1.2180E+05 -1.0837E+03   1.2288E+05  0.000E+00  0.000E+00  0.000E+00  3.98337E+01  1.633E-01  2.000E+01  2.000E+04 -5.418E-02
   1   13   20     1    20    1.2288E+05 -7.9034E+02   1.2367E+05  0.000E+00  0.000E+00  0.000E+00  3.93572E+01  1.640E-01  2.000E+01  2.000E+04 -3.952E-02
   1   14   21     1    21    1.2367E+05 -1.4103E+03   1.2508E+05  0.000E+00  0.000E+00  0.000E+00  3.88808E+01  1.649E-01  2.000E+01  2.000E+04 -7.051E-02
   1   14   22     1    22    1.2508E+05  5.0570E+03   1.2002E+05  0.000E+00  0.000E+00  0.000E+00  3.84021E+01  1.634E-01  2.000E+01  2.000E+04  2.529E-01
   1    9   30     2     1    5.0000E+04 -7.1856E+02   5.0719E+04  0.000E+00  0.000E+00  0.000E+00  4.02414E+01  1.164E-01  2.000E+01  2.000E+04 -3.593E-02
   1    9   29     2     2    5.0719E+04 -1.0019E+03   5.1720E+04  0.000E+00  0.000E+00  0.000E+00  3.99926E+01  1.176E-01  2.000E+01  2.000E+04 -5.009E-02
   1    9   28     2     3    5.1720E+04 -1.2113E+03   5.2932E+04  0.000E+00  0.000E+00  0.000E+00  3.97441E+01  1.191E-01  2.000E+01  2.000E+04 -6.056E-02
   1    9   27     2     4    5.2932E+04 -2.1784E+03   5.5110E+04  0.000E+00  0.000E+00  0.000E+00  3.94964E+01  1.214E-01  2.000E+01  2.000E+04 -1.089E-01
   1   10   26     2     5    5.5110E+04 -1.1550E+03   5.6265E+04  0.000E+00  0.000E+00  0.000E+00  3.92486E+01  1.236E-01  2.000E+01  2.000E+04 -5.775E-02
   1   11   25     2     6    5.6265E+04 -3.6396E+02   5.6629E+04  0.000E+00  0.000E+00  0.000E+00  3.89996E+01  1.246E-01  2.000E+01  2.000E+04 -1.820E-02
   1   12   24     2     7    5.6629E+04  5.5034E+02   5.6079E+04  0.000E+00  0.000E+00  0.000E+00  3.87495E+01  1.245E-01  2.000E+01  2.000E+04  2.752E-02
   1   13   23     2     8    5.6079E+04  9.3233E+01   5.5986E+04  0.000E+00  0.000E+00  0.000E+00  3.84991E+01  1.241E-01  2.000E+01  2.000E+04  4.662E-03
   1   14   22     2     9    5.5986E+04  1.9695E+03   5.4016E+04  0.000E+00  0.000E+00  0.000E+00  3.82477E+01  1.227E-01  2.000E+01  2.000E+04  9.848E-02
   1   14   22     3     1    1.7404E+05 -8.4769E+03   1.8252E+05  0.000E+00  0.000E+00  0.000E+00  3.77254E+01  1.698E-01  2.000E+01  2.000E+04 -4.238E-01
   1   15   23     3     2    1.8252E+05 -6.5749E+02   1.8318E+05  0.000E+00  0.000E+00  0.000E+00  3.68391E+01  1.724E-01  2.000E+01  2.000E+04 -3.287E-02
   1   15   24     3     3    1.8318E+05 -3.7084E+02   1.8355E+05  0.000E+00  0.000E+00  0.000E+00  3.59505E+01  1.727E-01  2.000E+01  2.000E+04 -1.854E-02
   1   15   25     3     4    1.8355E+05 -3.5531E+02   1.8390E+05  0.000E+00  0.000E+00  0.000E+00  3.50618E+01  1.729E-01  2.000E+01  2.000E+04 -1.777E-02
   1   15   26     3     5    1.8390E+05 -3.7989E+02   1.8428E+05  0.000E+00  0.000E+00  0.000E+00  3.41731E+01  1.731E-01  2.000E+01  2.000E+04 -1.899E-02
   1   16   27     3     6    1.8428E+05 -2.4826E+02   1.8453E+05  0.000E+00  0.000E+00  0.000E+00  3.32844E+01  1.733E-01  2.000E+01  2.000E+04 -1.241E-02
   1   17   28     3     7    1.8453E+05  4.6634E+03   1.7987E+05  0.000E+00  0.000E+00  0.000E+00  3.23943E+01  1.720E-01  2.000E+01  2.000E+04  2.332E-01
   1   18   29     3     8    1.7987E+05  2.3280E+04   1.5659E+05  0.000E+00  0.000E+00  0.000E+00  3.14973E+01  1.640E-01  2.000E+01  2.000E+04  1.164E+00
   1   18   30     3     9    1.5659E+05  6.9753E+03   1.4961E+05  0.000E+00  0.000E+00  0.000E+00  3.05994E+01  1.550E-01  2.000E+01  2.000E+04  3.488E-01



1
              HEAD IN LAYER   1 AT END OF TIME STEP   1 IN STRESS PERIOD    6
  ---------------------------------------------------------------------------

          1      2      3      4      5      6      7      8      9     10
         11     12     13     14     15     16     17     18     19     20
         21     22     23     24     25     26     27     28     29     30
 .........................................................................
   1  ****** ****** ****** ****** ****** ****** ****** ****** ****** ******
      ****** ****** ****** ****** ****** ****** ****** ****** ****** ******
      ****** ****** ****** ****** ****** ****** ****** ****** ****** ******
   2  ****** ****** ****** ****** ****** ****** ****** ****** ****** ******
      ****** ****** ****** ****** ****** ****** ****** ****** ****** ******
      ****** ****** ****** ****** ****** ****** ****** ****** ****** ******
   3  ****** ****** ****** ****** ****** ****** ****** ****** ****** ******
      ****** ****** ****** ****** ****** ****** ****** ****** ****** ******
      ****** ****** ****** ****** ****** ****** ****** ****** ****** ******
   4  ****** ****** ****** ****** ****** ****** ****** ****** ****** ******
      ****** ****** ****** ****** ****** ****** ****** ****** ****** ******
      ****** ****** ****** ****** ****** ****** ****** ****** ****** ******
   5  ****** ****** ****** ****** ****** ****** ****** ****** ****** ******
      ****** ****** ****** ****** ****** ****** ****** ****** ****** ******
      ****** ****** ****** ****** ****** ****** ****** ****** ****** ******
   6  ****** ****** ****** ****** ****** ****** ****** ****** ****** ******
      ****** ****** ****** ****** ****** ****** ****** ****** ****** ******
      ****** ****** ****** ****** ****** ****** ****** ****** ****** ******
   7  ****** ****** ****** ****** ****** ****** ****** ****** ****** ******
      ****** ****** ****** ****** ****** ****** ****** ****** ****** ******
      ****** ****** ****** ****** ****** ****** ****** ****** ****** ******
   8  ****** ****** ****** ****** ****** ****** ****** ****** ****** ******
      ****** ****** ****** ****** ****** ****** ****** ****** ****** ******
      ****** ****** ****** ****** ****** ****** ****** ****** ****** ******
   9  ****** ****** ****** ****** ****** ****** ****** ****** ****** ******
      ****** ****** ****** ****** ****** ****** ****** ****** ****** ******
      ****** ****** ****** ****** ****** ****** ****** ****** ****** ******
  10  ****** ****** ****** ****** ****** ****** ****** ****** ****** ******
      ****** ****** ****** ****** ****** ****** ****** ****** ****** ******
      ****** ****** ****** ****** ****** ****** ****** ****** ****** ******
  11  ****** ****** ****** ****** ****** ****** ****** ****** ****** ******
      ****** ****** ****** ****** ****** ****** ****** ****** ****** ******
      ****** ****** ****** ****** ****** ****** ****** ****** ****** ******
  12  ****** ****** ****** ****** ****** ****** ****** ****** ****** ******
      ****** ****** ****** ****** ****** ****** ****** ****** ****** ******
      ****** ****** ****** ****** ****** ****** ****** ****** ****** ******
  13  ****** ****** ****** ****** ****** ****** ****** ****** ****** ******
      ****** ****** ****** ****** ****** ****** ****** ****** ****** ******
      ****** ****** ****** ****** ****** ****** ****** ****** ****** ******
  14  ****** ****** ****** ****** ****** ****** ****** ****** ****** ******
      ****** ****** ****** ****** ****** ****** ****** ****** ****** ******
      ****** ****** ****** ****** ****** ****** ****** ****** ****** ******
  15  ****** ****** ****** ****** ****** ****** ****** ****** ****** ******
      ****** ****** ****** ****** ****** ****** ****** ****** ****** ******
      ****** ****** ****** ****** ****** ****** ****** ****** ****** ******
  16  ****** ****** ****** ****** ****** ****** ****** ****** ****** ******
      ****** ****** ****** ****** ****** ****** ****** ****** ****** ******
      ****** ****** ****** ****** ****** ****** ****** ****** ****** ******
  17  ****** ****** ****** ****** ****** ****** ****** ****** ****** ******
      ****** ****** ****** ****** ****** ****** ****** ****** ****** ******
      ****** ****** ****** ****** ****** ****** ****** ****** ****** ******
  18  ****** ****** ****** ****** ****** ****** ****** ****** ****** ******
      ****** ****** ****** ****** ****** ****** ****** ****** ****** ******
      ****** ****** ****** ****** ****** ****** ****** ****** ****** ******
  19  ****** ****** ****** ****** ****** ****** ****** ****** ****** ******
      ****** ****** ****** ****** ****** ****** ****** ****** ****** ******
      ****** ****** ****** ****** ****** ****** ****** ****** ****** ******
  20  ****** ****** ****** ****** ****** ****** ****** ****** ****** ******
      ****** ****** ****** ****** ****** ****** ****** ****** ****** ******
      ****** ****** ****** ****** ****** ****** ****** ****** ****** ******
  21  ****** ****** ****** ****** ****** ****** ****** ****** ****** ******
      ****** ****** ****** ****** ****** ****** ****** ****** ****** ******
      ****** ****** ****** ****** ****** ****** ****** ****** ****** ******
  22  ****** ****** ****** ****** ****** ****** ****** ****** ****** ******
      ****** ****** ****** ****** ****** ****** ****** ****** ****** ******
      ****** ****** ****** ****** ****** ****** ****** ****** ****** ******
  23  ****** ****** ****** ****** ****** ****** ****** ****** ****** ******
      ****** ****** ****** ****** ****** ****** ****** ****** ****** ******
      ****** ****** ****** ****** ****** ****** ****** ****** ****** ******
  24  ****** ****** ****** ****** ****** ****** ****** ****** ****** ******
      ****** ****** ****** ****** ****** ****** ****** ****** ****** ******
      ****** ****** ****** ****** ****** ****** ****** ****** ****** ******
  25  ****** ****** ****** ****** ****** ****** ****** ****** ****** ******
      ****** ****** ****** ****** ****** ****** ****** ****** ****** ******
      ****** ****** ****** ****** ****** ****** ****** ****** ****** ******

 HEAD WILL BE SAVED ON UNIT   51 AT END OF TIME STEP    1, STRESS PERIOD    6
1
  VOLUMETRIC BUDGET FOR ENTIRE MODEL AT END OF TIME STEP    1, STRESS PERIOD   6
  ------------------------------------------------------------------------------

     CUMULATIVE VOLUMES      L**3       RATES FOR THIS TIME STEP      L**3/T
     ------------------                 ------------------------

           IN:                                      IN:
           ---                                      ---
             STORAGE =    30966663.7991               STORAGE =           0.0000
       CONSTANT HEAD =    13243420.4603         CONSTANT HEAD =       29553.8381
               WELLS =           0.0000                 WELLS =           0.0000
            RECHARGE =    15097200.0000              RECHARGE =       55200.0000
      STREAM LEAKAGE =    27243193.9466        STREAM LEAKAGE =       53011.3318

            TOTAL IN =    86550478.2060              TOTAL IN =      137765.1699

          OUT:                                     OUT:
          ----                                     ----
             STORAGE =      790046.2100               STORAGE =        8675.9090
       CONSTANT HEAD =           0.0000         CONSTANT HEAD =           0.0000
               WELLS =    41903877.6020                 WELLS =       76466.9299
            RECHARGE =           0.0000              RECHARGE =           0.0000
      STREAM LEAKAGE =    43856556.1247        STREAM LEAKAGE =       52622.3294

           TOTAL OUT =    86550479.9366             TOTAL OUT =      137765.1684

            IN - OUT =          -1.7306              IN - OUT =       1.5165E-03

 PERCENT DISCREPANCY =          -0.00     PERCENT DISCREPANCY =           0.00






         TIME SUMMARY AT END OF TIME STEP    1 IN STRESS PERIOD    6
                    SECONDS     MINUTES      HOURS       DAYS        YEARS
                    -----------------------------------------------------------
   TIME STEP LENGTH 7.86240E+06 1.31040E+05  2184.0      91.000     0.24914    
 STRESS PERIOD TIME 7.86240E+06 1.31040E+05  2184.0      91.000     0.24914    
         TOTAL TIME 4.73472E+07 7.89120E+05  13152.      548.00      1.5003    
1
1
                            STRESS PERIOD NO.    7, LENGTH =   91.00000    
                            -----------------------------------------------

                              NUMBER OF TIME STEPS =     1

                               MULTIPLIER FOR DELT =     1.500

                            INITIAL TIME STEP SIZE =   91.00000    

 WELL NO.  LAYER   ROW   COL   STRESS RATE         
 --------------------------------------------------
      1      1     14      6       0.000    
      2      1      3      9       0.000    
      3      1     20     10       0.000    
      4      1     14     20       0.000    
      5      1     15      4     -0.1117E+05
      6      1     11     22     -0.1086E+05
      7      1     18     29     -0.4636E+05
      8      1      5     18      -8080.    

      8 WELLS

                 RECHARGE =   0.00000    

 REUSING STREAM SEGMENT DATA FROM LAST STRESS PERIOD
 
 SOLVING FOR HEAD 


     8 CALLS TO PCG ROUTINE FOR TIME STEP   1 IN STRESS PERIOD    7
    32 TOTAL ITERATIONS

 OUTPUT CONTROL FOR STRESS PERIOD    7   TIME STEP    1
    SAVE BUDGET
    SAVE HEAD FOR ALL LAYERS
    PRINT HEAD FOR ALL LAYERS
 UBDSV2 SAVING "STREAMFLOW OUT  " ON UNIT  50 AT TIME STEP  1, STRESS PERIOD   7



 STREAM LISTING     PERIOD      7   STEP        1

 LAYER ROW COL. STREAM  RCH.  FLOW INTO     FLOW TO   FLOW OUT OF   OVRLND.     DIRECT     STREAM       STREAM     STREAM     STREAM   STREAMBED  STREAMBED
                SEG.NO.  NO.  STRM. RCH.    AQUIFER    STRM. RCH.    RUNOFF     PRECIP       ET          HEAD       DEPTH      WIDTH   CONDCTNC.   GRADIENT

   1   13    1     1     1    1.0000E+05 -1.7155E+03   1.0172E+05  0.000E+00  0.000E+00  0.000E+00  4.84068E+01  1.454E-01  2.000E+01  2.000E+04 -8.578E-02
   1   13    2     1     2    1.0172E+05 -2.6770E+03   1.0439E+05  0.000E+00  0.000E+00  0.000E+00  4.79314E+01  1.473E-01  2.000E+01  2.000E+04 -1.339E-01
   1   14    3     1     3    1.0439E+05 -3.8863E+02   1.0478E+05  0.000E+00  0.000E+00  0.000E+00  4.74554E+01  1.486E-01  2.000E+01  2.000E+04 -1.943E-02
   1   15    4     1     4    1.0478E+05  1.0685E+04   9.4096E+04  0.000E+00  0.000E+00  0.000E+00  4.69737E+01  1.442E-01  2.000E+01  2.000E+04  5.343E-01
   1   16    5     1     5    9.4096E+04 -1.4483E+03   9.5544E+04  0.000E+00  0.000E+00  0.000E+00  4.64924E+01  1.401E-01  2.000E+01  2.000E+04 -7.241E-02
   1   16    6     1     6    9.5544E+04 -9.4595E+02   9.6490E+04  0.000E+00  0.000E+00  0.000E+00  4.60162E+01  1.412E-01  2.000E+01  2.000E+04 -4.730E-02
   1   16    7     1     7    9.6490E+04 -9.3963E+02   9.7430E+04  0.000E+00  0.000E+00  0.000E+00  4.55397E+01  1.420E-01  2.000E+01  2.000E+04 -4.698E-02
   1   16    8     1     8    9.7430E+04 -9.4058E+02   9.8370E+04  0.000E+00  0.000E+00  0.000E+00  4.50633E+01  1.428E-01  2.000E+01  2.000E+04 -4.703E-02
   1   16    9     1     9    9.8370E+04 -9.3526E+02   9.9306E+04  0.000E+00  0.000E+00  0.000E+00  4.45868E+01  1.436E-01  2.000E+01  2.000E+04 -4.676E-02
   1   16   10     1    10    9.9306E+04 -9.2495E+02   1.0023E+05  0.000E+00  0.000E+00  0.000E+00  4.41104E+01  1.445E-01  2.000E+01  2.000E+04 -4.625E-02
   1   16   11     1    11    1.0023E+05 -9.3035E+02   1.0116E+05  0.000E+00  0.000E+00  0.000E+00  4.36339E+01  1.453E-01  2.000E+01  2.000E+04 -4.652E-02
   1   16   12     1    12    1.0116E+05 -1.5844E+03   1.0275E+05  0.000E+00  0.000E+00  0.000E+00  4.31577E+01  1.463E-01  2.000E+01  2.000E+04 -7.922E-02
   1   15   13     1    13    1.0275E+05 -1.4053E+03   1.0415E+05  0.000E+00  0.000E+00  0.000E+00  4.26817E+01  1.476E-01  2.000E+01  2.000E+04 -7.027E-02
   1   14   14     1    14    1.0415E+05 -1.5771E+03   1.0573E+05  0.000E+00  0.000E+00  0.000E+00  4.22057E+01  1.489E-01  2.000E+01  2.000E+04 -7.885E-02
   1   13   15     1    15    1.0573E+05 -1.7303E+03   1.0746E+05  0.000E+00  0.000E+00  0.000E+00  4.17298E+01  1.503E-01  2.000E+01  2.000E+04 -8.652E-02
   1   12   16     1    16    1.0746E+05 -1.9725E+03   1.0943E+05  0.000E+00  0.000E+00  0.000E+00  4.12541E+01  1.519E-01  2.000E+01  2.000E+04 -9.863E-02
   1   12   17     1    17    1.0943E+05 -1.1473E+03   1.1058E+05  0.000E+00  0.000E+00  0.000E+00  4.07782E+01  1.532E-01  2.000E+01  2.000E+04 -5.736E-02
   1   12   18     1    18    1.1058E+05 -9.1645E+02   1.1149E+05  0.000E+00  0.000E+00  0.000E+00  4.03018E+01  1.540E-01  2.000E+01  2.000E+04 -4.582E-02
   1   12   19     1    19    1.1149E+05 -3.9361E+02   1.1189E+05  0.000E+00  0.000E+00  0.000E+00  3.98250E+01  1.546E-01  2.000E+01  2.000E+04 -1.968E-02
   1   13   20     1    20    1.1189E+05 -1.1930E+02   1.1201E+05  0.000E+00  0.000E+00  0.000E+00  3.93480E+01  1.548E-01  2.000E+01  2.000E+04 -5.965E-03
   1   14   21     1    21    1.1201E+05 -7.4786E+02   1.1276E+05  0.000E+00  0.000E+00  0.000E+00  3.88711E+01  1.551E-01  2.000E+01  2.000E+04 -3.739E-02
   1   14   22     1    22    1.1276E+05  5.2146E+03   1.0754E+05  0.000E+00  0.000E+00  0.000E+00  3.83919E+01  1.533E-01  2.000E+01  2.000E+04  2.607E-01
   1    9   30     2     1    5.0000E+04 -2.0075E+02   5.0201E+04  0.000E+00  0.000E+00  0.000E+00  4.02410E+01  1.160E-01  2.000E+01  2.000E+04 -1.004E-02
   1    9   29     2     2    5.0201E+04 -4.8602E+02   5.0687E+04  0.000E+00  0.000E+00  0.000E+00  3.99915E+01  1.165E-01  2.000E+01  2.000E+04 -2.430E-02
   1    9   28     2     3    5.0687E+04 -6.9438E+02   5.1381E+04  0.000E+00  0.000E+00  0.000E+00  3.97423E+01  1.173E-01  2.000E+01  2.000E+04 -3.472E-02
   1    9   27     2     4    5.1381E+04 -1.4765E+03   5.2858E+04  0.000E+00  0.000E+00  0.000E+00  3.94938E+01  1.188E-01  2.000E+01  2.000E+04 -7.383E-02
   1   10   26     2     5    5.2858E+04 -4.5098E+02   5.3309E+04  0.000E+00  0.000E+00  0.000E+00  3.92451E+01  1.201E-01  2.000E+01  2.000E+04 -2.255E-02
   1   11   25     2     6    5.3309E+04  3.1066E+02   5.2998E+04  0.000E+00  0.000E+00  0.000E+00  3.89952E+01  1.202E-01  2.000E+01  2.000E+04  1.553E-02
   1   12   24     2     7    5.2998E+04  1.1645E+03   5.1833E+04  0.000E+00  0.000E+00  0.000E+00  3.87442E+01  1.192E-01  2.000E+01  2.000E+04  5.823E-02
   1   13   23     2     8    5.1833E+04  2.8543E+02   5.1548E+04  0.000E+00  0.000E+00  0.000E+00  3.84932E+01  1.182E-01  2.000E+01  2.000E+04  1.427E-02
   1   14   22     2     9    5.1548E+04  2.2058E+03   4.9342E+04  0.000E+00  0.000E+00  0.000E+00  3.82415E+01  1.165E-01  2.000E+01  2.000E+04  1.103E-01
   1   14   22     3     1    1.5688E+05 -8.3176E+03   1.6520E+05  0.000E+00  0.000E+00  0.000E+00  3.77153E+01  1.598E-01  2.000E+01  2.000E+04 -4.159E-01
   1   15   23     3     2    1.6520E+05 -4.5080E+02   1.6565E+05  0.000E+00  0.000E+00  0.000E+00  3.68290E+01  1.624E-01  2.000E+01  2.000E+04 -2.254E-02
   1   15   24     3     3    1.6565E+05 -1.9683E+02   1.6585E+05  0.000E+00  0.000E+00  0.000E+00  3.59403E+01  1.625E-01  2.000E+01  2.000E+04 -9.842E-03
   1   15   25     3     4    1.6585E+05 -1.7800E+02   1.6603E+05  0.000E+00  0.000E+00  0.000E+00  3.50515E+01  1.627E-01  2.000E+01  2.000E+04 -8.900E-03
   1   15   26     3     5    1.6603E+05 -1.7689E+02   1.6620E+05  0.000E+00  0.000E+00  0.000E+00  3.41628E+01  1.628E-01  2.000E+01  2.000E+04 -8.844E-03
   1   16   27     3     6    1.6620E+05 -8.0637E+00   1.6621E+05  0.000E+00  0.000E+00  0.000E+00  3.32739E+01  1.628E-01  2.000E+01  2.000E+04 -4.032E-04
   1   17   28     3     7    1.6621E+05  5.5643E+03   1.6065E+05  0.000E+00  0.000E+00  0.000E+00  3.23834E+01  1.612E-01  2.000E+01  2.000E+04  2.782E-01
   1   18   29     3     8    1.6065E+05  2.3051E+04   1.3760E+05  0.000E+00  0.000E+00  0.000E+00  3.14859E+01  1.526E-01  2.000E+01  2.000E+04  1.153E+00
   1   18   30     3     9    1.3760E+05  7.9308E+03   1.2966E+05  0.000E+00  0.000E+00  0.000E+00  3.05873E+01  1.428E-01  2.000E+01  2.000E+04  3.965E-01



1
              HEAD IN LAYER   1 AT END OF TIME STEP   1 IN STRESS PERIOD    7
  ---------------------------------------------------------------------------

          1      2      3      4      5      6      7      8      9     10
         11     12     13     14     15     16     17     18     19     20
         21     22     23     24     25     26     27     28     29     30
 .........................................................................
   1  ****** ****** ****** ****** ****** ****** ****** ****** ****** ******
      ****** ****** ****** ****** ****** ****** ****** ****** ****** ******
      ****** ****** ****** ****** ****** ****** ****** ****** ****** ******
   2  ****** ****** ****** ****** ****** ****** ****** ****** ****** ******
      ****** ****** ****** ****** ****** ****** ****** ****** ****** ******
      ****** ****** ****** ****** ****** ****** ****** ****** ****** ******
   3  ****** ****** ****** ****** ****** ****** ****** ****** ****** ******
      ****** ****** ****** ****** ****** ****** ****** ****** ****** ******
      ****** ****** ****** ****** ****** ****** ****** ****** ****** ******
   4  ****** ****** ****** ****** ****** ****** ****** ****** ****** ******
      ****** ****** ****** ****** ****** ****** ****** ****** ****** ******
      ****** ****** ****** ****** ****** ****** ****** ****** ****** ******
   5  ****** ****** ****** ****** ****** ****** ****** ****** ****** ******
      ****** ****** ****** ****** ****** ****** ****** ****** ****** ******
      ****** ****** ****** ****** ****** ****** ****** ****** ****** ******
   6  ****** ****** ****** ****** ****** ****** ****** ****** ****** ******
      ****** ****** ****** ****** ****** ****** ****** ****** ****** ******
      ****** ****** ****** ****** ****** ****** ****** ****** ****** ******
   7  ****** ****** ****** ****** ****** ****** ****** ****** ****** ******
      ****** ****** ****** ****** ****** ****** ****** ****** ****** ******
      ****** ****** ****** ****** ****** ****** ****** ****** ****** ******
   8  ****** ****** ****** ****** ****** ****** ****** ****** ****** ******
      ****** ****** ****** ****** ****** ****** ****** ****** ****** ******
      ****** ****** ****** ****** ****** ****** ****** ****** ****** ******
   9  ****** ****** ****** ****** ****** ****** ****** ****** ****** ******
      ****** ****** ****** ****** ****** ****** ****** ****** ****** ******
      ****** ****** ****** ****** ****** ****** ****** ****** ****** ******
  10  ****** ****** ****** ****** ****** ****** ****** ****** ****** ******
      ****** ****** ****** ****** ****** ****** ****** ****** ****** ******
      ****** ****** ****** ****** ****** ****** ****** ****** ****** ******
  11  ****** ****** ****** ****** ****** ****** ****** ****** ****** ******
      ****** ****** ****** ****** ****** ****** ****** ****** ****** ******
      ****** ****** ****** ****** ****** ****** ****** ****** ****** ******
  12  ****** ****** ****** ****** ****** ****** ****** ****** ****** ******
      ****** ****** ****** ****** ****** ****** ****** ****** ****** ******
      ****** ****** ****** ****** ****** ****** ****** ****** ****** ******
  13  ****** ****** ****** ****** ****** ****** ****** ****** ****** ******
      ****** ****** ****** ****** ****** ****** ****** ****** ****** ******
      ****** ****** ****** ****** ****** ****** ****** ****** ****** ******
  14  ****** ****** ****** ****** ****** ****** ****** ****** ****** ******
      ****** ****** ****** ****** ****** ****** ****** ****** ****** ******
      ****** ****** ****** ****** ****** ****** ****** ****** ****** ******
  15  ****** ****** ****** ****** ****** ****** ****** ****** ****** ******
      ****** ****** ****** ****** ****** ****** ****** ****** ****** ******
      ****** ****** ****** ****** ****** ****** ****** ****** ****** ******
  16  ****** ****** ****** ****** ****** ****** ****** ****** ****** ******
      ****** ****** ****** ****** ****** ****** ****** ****** ****** ******
      ****** ****** ****** ****** ****** ****** ****** ****** ****** ******
  17  ****** ****** ****** ****** ****** ****** ****** ****** ****** ******
      ****** ****** ****** ****** ****** ****** ****** ****** ****** ******
      ****** ****** ****** ****** ****** ****** ****** ****** ****** ******
  18  ****** ****** ****** ****** ****** ****** ****** ****** ****** ******
      ****** ****** ****** ****** ****** ****** ****** ****** ****** ******
      ****** ****** ****** ****** ****** ****** ****** ****** ****** ******
  19  ****** ****** ****** ****** ****** ****** ****** ****** ****** ******
      ****** ****** ****** ****** ****** ****** ****** ****** ****** ******
      ****** ****** ****** ****** ****** ****** ****** ****** ****** ******
  20  ****** ****** ****** ****** ****** ****** ****** ****** ****** ******
      ****** ****** ****** ****** ****** ****** ****** ****** ****** ******
      ****** ****** ****** ****** ****** ****** ****** ****** ****** ******
  21  ****** ****** ****** ****** ****** ****** ****** ****** ****** ******
      ****** ****** ****** ****** ****** ****** ****** ****** ****** ******
      ****** ****** ****** ****** ****** ****** ****** ****** ****** ******
  22  ****** ****** ****** ****** ****** ****** ****** ****** ****** ******
      ****** ****** ****** ****** ****** ****** ****** ****** ****** ******
      ****** ****** ****** ****** ****** ****** ****** ****** ****** ******
  23  ****** ****** ****** ****** ****** ****** ****** ****** ****** ******
      ****** ****** ****** ****** ****** ****** ****** ****** ****** ******
      ****** ****** ****** ****** ****** ****** ****** ****** ****** ******
  24  ****** ****** ****** ****** ****** ****** ****** ****** ****** ******
      ****** ****** ****** ****** ****** ****** ****** ****** ****** ******
      ****** ****** ****** ****** ****** ****** ****** ****** ****** ******
  25  ****** ****** ****** ****** ****** ****** ****** ****** ****** ******
      ****** ****** ****** ****** ****** ****** ****** ****** ****** ******
      ****** ****** ****** ****** ****** ****** ****** ****** ****** ******

 HEAD WILL BE SAVED ON UNIT   51 AT END OF TIME STEP    1, STRESS PERIOD    7
1
  VOLUMETRIC BUDGET FOR ENTIRE MODEL AT END OF TIME STEP    1, STRESS PERIOD   7
  ------------------------------------------------------------------------------

     CUMULATIVE VOLUMES      L**3       RATES FOR THIS TIME STEP      L**3/T
     ------------------                 ------------------------

           IN:                                      IN:
           ---                                      ---
             STORAGE =    33025667.0449               STORAGE =       22626.4093
       CONSTANT HEAD =    16292385.3102         CONSTANT HEAD =       33505.1082
               WELLS =           0.0000                 WELLS =           0.0000
            RECHARGE =    15097200.0000              RECHARGE =           0.0000
      STREAM LEAKAGE =    32376739.6093        STREAM LEAKAGE =       56412.5897

            TOTAL IN =    96791991.9644              TOTAL IN =      112544.1072

          OUT:                                     OUT:
          ----                                     ----
             STORAGE =      790046.2100               STORAGE =           0.0000
       CONSTANT HEAD =           0.0000         CONSTANT HEAD =           0.0000
               WELLS =    48862368.2256                 WELLS =       76466.9299
            RECHARGE =           0.0000              RECHARGE =           0.0000
      STREAM LEAKAGE =    47139579.5180        STREAM LEAKAGE =       36077.1801

           TOTAL OUT =    96791993.9537             TOTAL OUT =      112544.1101

            IN - OUT =          -1.9893              IN - OUT =      -2.8418E-03

 PERCENT DISCREPANCY =          -0.00     PERCENT DISCREPANCY =          -0.00






         TIME SUMMARY AT END OF TIME STEP    1 IN STRESS PERIOD    7
                    SECONDS     MINUTES      HOURS       DAYS        YEARS
                    -----------------------------------------------------------
   TIME STEP LENGTH 7.86240E+06 1.31040E+05  2184.0      91.000     0.24914    
 STRESS PERIOD TIME 7.86240E+06 1.31040E+05  2184.0      91.000     0.24914    
         TOTAL TIME 5.52096E+07 9.20160E+05  15336.      639.00      1.7495    
1
1
                            STRESS PERIOD NO.    8, LENGTH =   91.00000    
                            -----------------------------------------------

                              NUMBER OF TIME STEPS =     1

                               MULTIPLIER FOR DELT =     1.500

                            INITIAL TIME STEP SIZE =   91.00000    

 WELL NO.  LAYER   ROW   COL   STRESS RATE         
 --------------------------------------------------
      1      1     14      6       0.000    
      2      1      3      9       0.000    
      3      1     20     10       0.000    
      4      1     14     20       0.000    
      5      1     15      4     -0.1117E+05
      6      1     11     22     -0.1086E+05
      7      1     18     29     -0.4636E+05
      8      1      5     18      -8080.    

      8 WELLS

                 RECHARGE =  1.000000E-03

 REUSING STREAM SEGMENT DATA FROM LAST STRESS PERIOD
 
 SOLVING FOR HEAD 


     7 CALLS TO PCG ROUTINE FOR TIME STEP   1 IN STRESS PERIOD    8
    27 TOTAL ITERATIONS

 OUTPUT CONTROL FOR STRESS PERIOD    8   TIME STEP    1
    SAVE BUDGET
    SAVE HEAD FOR ALL LAYERS
    PRINT HEAD FOR ALL LAYERS
 UBDSV2 SAVING "STREAMFLOW OUT  " ON UNIT  50 AT TIME STEP  1, STRESS PERIOD   8



 STREAM LISTING     PERIOD      8   STEP        1

 LAYER ROW COL. STREAM  RCH.  FLOW INTO     FLOW TO   FLOW OUT OF   OVRLND.     DIRECT     STREAM       STREAM     STREAM     STREAM   STREAMBED  STREAMBED
                SEG.NO.  NO.  STRM. RCH.    AQUIFER    STRM. RCH.    RUNOFF     PRECIP       ET          HEAD       DEPTH      WIDTH   CONDCTNC.   GRADIENT

   1   13    1     1     1    1.0000E+05 -1.7872E+03   1.0179E+05  0.000E+00  0.000E+00  0.000E+00  4.84068E+01  1.454E-01  2.000E+01  2.000E+04 -8.936E-02
   1   13    2     1     2    1.0179E+05 -2.7480E+03   1.0454E+05  0.000E+00  0.000E+00  0.000E+00  4.79315E+01  1.474E-01  2.000E+01  2.000E+04 -1.374E-01
   1   14    3     1     3    1.0454E+05 -4.5245E+02   1.0499E+05  0.000E+00  0.000E+00  0.000E+00  4.74556E+01  1.487E-01  2.000E+01  2.000E+04 -2.262E-02
   1   15    4     1     4    1.0499E+05  1.0617E+04   9.4371E+04  0.000E+00  0.000E+00  0.000E+00  4.69739E+01  1.444E-01  2.000E+01  2.000E+04  5.308E-01
   1   16    5     1     5    9.4371E+04 -1.6226E+03   9.5993E+04  0.000E+00  0.000E+00  0.000E+00  4.64927E+01  1.404E-01  2.000E+01  2.000E+04 -8.113E-02
   1   16    6     1     6    9.5993E+04 -1.0530E+03   9.7046E+04  0.000E+00  0.000E+00  0.000E+00  4.60166E+01  1.416E-01  2.000E+01  2.000E+04 -5.265E-02
   1   16    7     1     7    9.7046E+04 -1.0416E+03   9.8088E+04  0.000E+00  0.000E+00  0.000E+00  4.55403E+01  1.425E-01  2.000E+01  2.000E+04 -5.208E-02
   1   16    8     1     8    9.8088E+04 -1.0417E+03   9.9130E+04  0.000E+00  0.000E+00  0.000E+00  4.50639E+01  1.434E-01  2.000E+01  2.000E+04 -5.208E-02
   1   16    9     1     9    9.9130E+04 -1.0375E+03   1.0017E+05  0.000E+00  0.000E+00  0.000E+00  4.45875E+01  1.443E-01  2.000E+01  2.000E+04 -5.187E-02
   1   16   10     1    10    1.0017E+05 -1.0297E+03   1.0120E+05  0.000E+00  0.000E+00  0.000E+00  4.41112E+01  1.452E-01  2.000E+01  2.000E+04 -5.148E-02
   1   16   11     1    11    1.0120E+05 -1.0382E+03   1.0223E+05  0.000E+00  0.000E+00  0.000E+00  4.36348E+01  1.461E-01  2.000E+01  2.000E+04 -5.191E-02
   1   16   12     1    12    1.0223E+05 -1.7452E+03   1.0398E+05  0.000E+00  0.000E+00  0.000E+00  4.31587E+01  1.473E-01  2.000E+01  2.000E+04 -8.726E-02
   1   15   13     1    13    1.0398E+05 -1.5719E+03   1.0555E+05  0.000E+00  0.000E+00  0.000E+00  4.26828E+01  1.487E-01  2.000E+01  2.000E+04 -7.860E-02
   1   14   14     1    14    1.0555E+05 -1.7358E+03   1.0729E+05  0.000E+00  0.000E+00  0.000E+00  4.22070E+01  1.502E-01  2.000E+01  2.000E+04 -8.679E-02
   1   13   15     1    15    1.0729E+05 -1.8754E+03   1.0916E+05  0.000E+00  0.000E+00  0.000E+00  4.17312E+01  1.517E-01  2.000E+01  2.000E+04 -9.377E-02
   1   12   16     1    16    1.0916E+05 -2.0782E+03   1.1124E+05  0.000E+00  0.000E+00  0.000E+00  4.12556E+01  1.533E-01  2.000E+01  2.000E+04 -1.039E-01
   1   12   17     1    17    1.1124E+05 -1.2554E+03   1.1250E+05  0.000E+00  0.000E+00  0.000E+00  4.07797E+01  1.547E-01  2.000E+01  2.000E+04 -6.277E-02
   1   12   18     1    18    1.1250E+05 -1.0316E+03   1.1353E+05  0.000E+00  0.000E+00  0.000E+00  4.03034E+01  1.557E-01  2.000E+01  2.000E+04 -5.158E-02
   1   12   19     1    19    1.1353E+05 -5.3892E+02   1.1407E+05  0.000E+00  0.000E+00  0.000E+00  3.98268E+01  1.563E-01  2.000E+01  2.000E+04 -2.695E-02
   1   13   20     1    20    1.1407E+05 -2.9535E+02   1.1436E+05  0.000E+00  0.000E+00  0.000E+00  3.93498E+01  1.567E-01  2.000E+01  2.000E+04 -1.477E-02
   1   14   21     1    21    1.1436E+05 -9.0457E+02   1.1527E+05  0.000E+00  0.000E+00  0.000E+00  3.88731E+01  1.572E-01  2.000E+01  2.000E+04 -4.523E-02
   1   14   22     1    22    1.1527E+05  5.1674E+03   1.1010E+05  0.000E+00  0.000E+00  0.000E+00  3.83940E+01  1.554E-01  2.000E+01  2.000E+04  2.584E-01
   1    9   30     2     1    5.0000E+04 -3.6227E+02   5.0362E+04  0.000E+00  0.000E+00  0.000E+00  4.02411E+01  1.161E-01  2.000E+01  2.000E+04 -1.811E-02
   1    9   29     2     2    5.0362E+04 -6.4471E+02   5.1007E+04  0.000E+00  0.000E+00  0.000E+00  3.99918E+01  1.168E-01  2.000E+01  2.000E+04 -3.224E-02
   1    9   28     2     3    5.1007E+04 -8.4738E+02   5.1854E+04  0.000E+00  0.000E+00  0.000E+00  3.97428E+01  1.178E-01  2.000E+01  2.000E+04 -4.237E-02
   1    9   27     2     4    5.1854E+04 -1.6514E+03   5.3506E+04  0.000E+00  0.000E+00  0.000E+00  3.94946E+01  1.196E-01  2.000E+01  2.000E+04 -8.257E-02
   1   10   26     2     5    5.3506E+04 -6.5332E+02   5.4159E+04  0.000E+00  0.000E+00  0.000E+00  3.92461E+01  1.211E-01  2.000E+01  2.000E+04 -3.267E-02
   1   11   25     2     6    5.4159E+04  1.0956E+02   5.4049E+04  0.000E+00  0.000E+00  0.000E+00  3.89965E+01  1.215E-01  2.000E+01  2.000E+04  5.478E-03
   1   12   24     2     7    5.4049E+04  9.8194E+02   5.3068E+04  0.000E+00  0.000E+00  0.000E+00  3.87457E+01  1.207E-01  2.000E+01  2.000E+04  4.910E-02
   1   13   23     2     8    5.3068E+04  2.1152E+02   5.2856E+04  0.000E+00  0.000E+00  0.000E+00  3.84949E+01  1.199E-01  2.000E+01  2.000E+04  1.058E-02
   1   14   22     2     9    5.2856E+04  2.1532E+03   5.0703E+04  0.000E+00  0.000E+00  0.000E+00  3.82433E+01  1.183E-01  2.000E+01  2.000E+04  1.077E-01
   1   14   22     3     1    1.6080E+05 -8.3603E+03   1.6916E+05  0.000E+00  0.000E+00  0.000E+00  3.77176E+01  1.621E-01  2.000E+01  2.000E+04 -4.180E-01
   1   15   23     3     2    1.6916E+05 -5.1454E+02   1.6968E+05  0.000E+00  0.000E+00  0.000E+00  3.68314E+01  1.647E-01  2.000E+01  2.000E+04 -2.573E-02
   1   15   24     3     3    1.6968E+05 -2.5694E+02   1.6993E+05  0.000E+00  0.000E+00  0.000E+00  3.59427E+01  1.649E-01  2.000E+01  2.000E+04 -1.285E-02
   1   15   25     3     4    1.6993E+05 -2.3974E+02   1.7017E+05  0.000E+00  0.000E+00  0.000E+00  3.50540E+01  1.651E-01  2.000E+01  2.000E+04 -1.199E-02
   1   15   26     3     5    1.7017E+05 -2.5098E+02   1.7043E+05  0.000E+00  0.000E+00  0.000E+00  3.41652E+01  1.652E-01  2.000E+01  2.000E+04 -1.255E-02
   1   16   27     3     6    1.7043E+05 -8.9398E+01   1.7051E+05  0.000E+00  0.000E+00  0.000E+00  3.32764E+01  1.653E-01  2.000E+01  2.000E+04 -4.470E-03
   1   17   28     3     7    1.7051E+05  5.3231E+03   1.6519E+05  0.000E+00  0.000E+00  0.000E+00  3.23860E+01  1.638E-01  2.000E+01  2.000E+04  2.662E-01
   1   18   29     3     8    1.6519E+05  2.3106E+04   1.4209E+05  0.000E+00  0.000E+00  0.000E+00  3.14886E+01  1.553E-01  2.000E+01  2.000E+04  1.155E+00
   1   18   30     3     9    1.4209E+05  7.7133E+03   1.3437E+05  0.000E+00  0.000E+00  0.000E+00  3.05902E+01  1.458E-01  2.000E+01  2.000E+04  3.857E-01



1
              HEAD IN LAYER   1 AT END OF TIME STEP   1 IN STRESS PERIOD    8
  ---------------------------------------------------------------------------

          1      2      3      4      5      6      7      8      9     10
         11     12     13     14     15     16     17     18     19     20
         21     22     23     24     25     26     27     28     29     30
 .........................................................................
   1  ****** ****** ****** ****** ****** ****** ****** ****** ****** ******
      ****** ****** ****** ****** ****** ****** ****** ****** ****** ******
      ****** ****** ****** ****** ****** ****** ****** ****** ****** ******
   2  ****** ****** ****** ****** ****** ****** ****** ****** ****** ******
      ****** ****** ****** ****** ****** ****** ****** ****** ****** ******
      ****** ****** ****** ****** ****** ****** ****** ****** ****** ******
   3  ****** ****** ****** ****** ****** ****** ****** ****** ****** ******
      ****** ****** ****** ****** ****** ****** ****** ****** ****** ******
      ****** ****** ****** ****** ****** ****** ****** ****** ****** ******
   4  ****** ****** ****** ****** ****** ****** ****** ****** ****** ******
      ****** ****** ****** ****** ****** ****** ****** ****** ****** ******
      ****** ****** ****** ****** ****** ****** ****** ****** ****** ******
   5  ****** ****** ****** ****** ****** ****** ****** ****** ****** ******
      ****** ****** ****** ****** ****** ****** ****** ****** ****** ******
      ****** ****** ****** ****** ****** ****** ****** ****** ****** ******
   6  ****** ****** ****** ****** ****** ****** ****** ****** ****** ******
      ****** ****** ****** ****** ****** ****** ****** ****** ****** ******
      ****** ****** ****** ****** ****** ****** ****** ****** ****** ******
   7  ****** ****** ****** ****** ****** ****** ****** ****** ****** ******
      ****** ****** ****** ****** ****** ****** ****** ****** ****** ******
      ****** ****** ****** ****** ****** ****** ****** ****** ****** ******
   8  ****** ****** ****** ****** ****** ****** ****** ****** ****** ******
      ****** ****** ****** ****** ****** ****** ****** ****** ****** ******
      ****** ****** ****** ****** ****** ****** ****** ****** ****** ******
   9  ****** ****** ****** ****** ****** ****** ****** ****** ****** ******
      ****** ****** ****** ****** ****** ****** ****** ****** ****** ******
      ****** ****** ****** ****** ****** ****** ****** ****** ****** ******
  10  ****** ****** ****** ****** ****** ****** ****** ****** ****** ******
      ****** ****** ****** ****** ****** ****** ****** ****** ****** ******
      ****** ****** ****** ****** ****** ****** ****** ****** ****** ******
  11  ****** ****** ****** ****** ****** ****** ****** ****** ****** ******
      ****** ****** ****** ****** ****** ****** ****** ****** ****** ******
      ****** ****** ****** ****** ****** ****** ****** ****** ****** ******
  12  ****** ****** ****** ****** ****** ****** ****** ****** ****** ******
      ****** ****** ****** ****** ****** ****** ****** ****** ****** ******
      ****** ****** ****** ****** ****** ****** ****** ****** ****** ******
  13  ****** ****** ****** ****** ****** ****** ****** ****** ****** ******
      ****** ****** ****** ****** ****** ****** ****** ****** ****** ******
      ****** ****** ****** ****** ****** ****** ****** ****** ****** ******
  14  ****** ****** ****** ****** ****** ****** ****** ****** ****** ******
      ****** ****** ****** ****** ****** ****** ****** ****** ****** ******
      ****** ****** ****** ****** ****** ****** ****** ****** ****** ******
  15  ****** ****** ****** ****** ****** ****** ****** ****** ****** ******
      ****** ****** ****** ****** ****** ****** ****** ****** ****** ******
      ****** ****** ****** ****** ****** ****** ****** ****** ****** ******
  16  ****** ****** ****** ****** ****** ****** ****** ****** ****** ******
      ****** ****** ****** ****** ****** ****** ****** ****** ****** ******
      ****** ****** ****** ****** ****** ****** ****** ****** ****** ******
  17  ****** ****** ****** ****** ****** ****** ****** ****** ****** ******
      ****** ****** ****** ****** ****** ****** ****** ****** ****** ******
      ****** ****** ****** ****** ****** ****** ****** ****** ****** ******
  18  ****** ****** ****** ****** ****** ****** ****** ****** ****** ******
      ****** ****** ****** ****** ****** ****** ****** ****** ****** ******
      ****** ****** ****** ****** ****** ****** ****** ****** ****** ******
  19  ****** ****** ****** ****** ****** ****** ****** ****** ****** ******
      ****** ****** ****** ****** ****** ****** ****** ****** ****** ******
      ****** ****** ****** ****** ****** ****** ****** ****** ****** ******
  20  ****** ****** ****** ****** ****** ****** ****** ****** ****** ******
      ****** ****** ****** ****** ****** ****** ****** ****** ****** ******
      ****** ****** ****** ****** ****** ****** ****** ****** ****** ******
  21  ****** ****** ****** ****** ****** ****** ****** ****** ****** ******
      ****** ****** ****** ****** ****** ****** ****** ****** ****** ******
      ****** ****** ****** ****** ****** ****** ****** ****** ****** ******
  22  ****** ****** ****** ****** ****** ****** ****** ****** ****** ******
      ****** ****** ****** ****** ****** ****** ****** ****** ****** ******
      ****** ****** ****** ****** ****** ****** ****** ****** ****** ******
  23  ****** ****** ****** ****** ****** ****** ****** ****** ****** ******
      ****** ****** ****** ****** ****** ****** ****** ****** ****** ******
      ****** ****** ****** ****** ****** ****** ****** ****** ****** ******
  24  ****** ****** ****** ****** ****** ****** ****** ****** ****** ******
      ****** ****** ****** ****** ****** ****** ****** ****** ****** ******
      ****** ****** ****** ****** ****** ****** ****** ****** ****** ******
  25  ****** ****** ****** ****** ****** ****** ****** ****** ****** ******
      ****** ****** ****** ****** ****** ****** ****** ****** ****** ******
      ****** ****** ****** ****** ****** ****** ****** ****** ****** ******

 HEAD WILL BE SAVED ON UNIT   51 AT END OF TIME STEP    1, STRESS PERIOD    8
1
  VOLUMETRIC BUDGET FOR ENTIRE MODEL AT END OF TIME STEP    1, STRESS PERIOD   8
  ------------------------------------------------------------------------------

     CUMULATIVE VOLUMES      L**3       RATES FOR THIS TIME STEP      L**3/T
     ------------------                 ------------------------

           IN:                                      IN:
           ---                                      ---
             STORAGE =    33165807.9688               STORAGE =        1540.0102
       CONSTANT HEAD =    19315999.5211         CONSTANT HEAD =       33226.5298
               WELLS =           0.0000                 WELLS =           0.0000
            RECHARGE =    17608800.0000              RECHARGE =       27600.0000
      STREAM LEAKAGE =    37416599.9388        STREAM LEAKAGE =       55383.0805

            TOTAL IN =   107507207.4287              TOTAL IN =      117749.6205

          OUT:                                     OUT:
          ----                                     ----
             STORAGE =      929053.3910               STORAGE =        1527.5514
       CONSTANT HEAD =           0.0000         CONSTANT HEAD =           0.0000
               WELLS =    55820858.8493                 WELLS =       76466.9299
            RECHARGE =           0.0000              RECHARGE =           0.0000
      STREAM LEAKAGE =    50757296.6315        STREAM LEAKAGE =       39755.1331

           TOTAL OUT =   107507208.8718             TOTAL OUT =      117749.6145

            IN - OUT =          -1.4431              IN - OUT =       6.0017E-03

 PERCENT DISCREPANCY =          -0.00     PERCENT DISCREPANCY =           0.00






         TIME SUMMARY AT END OF TIME STEP    1 IN STRESS PERIOD    8
                    SECONDS     MINUTES      HOURS       DAYS        YEARS
                    -----------------------------------------------------------
   TIME STEP LENGTH 7.86240E+06 1.31040E+05  2184.0      91.000     0.24914    
 STRESS PERIOD TIME 7.86240E+06 1.31040E+05  2184.0      91.000     0.24914    
         TOTAL TIME 6.30720E+07 1.05120E+06  17520.      730.00      1.9986    
1
1
                            STRESS PERIOD NO.    9, LENGTH =   92.00000    
                            -----------------------------------------------

                              NUMBER OF TIME STEPS =     1

                               MULTIPLIER FOR DELT =     1.500

                            INITIAL TIME STEP SIZE =   92.00000    

 WELL NO.  LAYER   ROW   COL   STRESS RATE         
 --------------------------------------------------
      1      1     14      6       0.000    
      2      1      3      9       0.000    
      3      1     20     10       0.000    
      4      1     14     20       0.000    
      5      1     15      4     -0.1117E+05
      6      1     11     22     -0.1086E+05
      7      1     18     29     -0.4636E+05
      8      1      5     18      -8080.    

      8 WELLS

                 RECHARGE =  5.000000E-04

 REUSING STREAM SEGMENT DATA FROM LAST STRESS PERIOD
 
 SOLVING FOR HEAD 


     7 CALLS TO PCG ROUTINE FOR TIME STEP   1 IN STRESS PERIOD    9
    29 TOTAL ITERATIONS

 OUTPUT CONTROL FOR STRESS PERIOD    9   TIME STEP    1
    SAVE BUDGET
    SAVE HEAD FOR ALL LAYERS
    PRINT HEAD FOR ALL LAYERS
 UBDSV2 SAVING "STREAMFLOW OUT  " ON UNIT  50 AT TIME STEP  1, STRESS PERIOD   9



 STREAM LISTING     PERIOD      9   STEP        1

 LAYER ROW COL. STREAM  RCH.  FLOW INTO     FLOW TO   FLOW OUT OF   OVRLND.     DIRECT     STREAM       STREAM     STREAM     STREAM   STREAMBED  STREAMBED
                SEG.NO.  NO.  STRM. RCH.    AQUIFER    STRM. RCH.    RUNOFF     PRECIP       ET          HEAD       DEPTH      WIDTH   CONDCTNC.   GRADIENT

   1   13    1     1     1    1.0000E+05 -1.5713E+03   1.0157E+05  0.000E+00  0.000E+00  0.000E+00  4.84067E+01  1.453E-01  2.000E+01  2.000E+04 -7.857E-02
   1   13    2     1     2    1.0157E+05 -2.5035E+03   1.0407E+05  0.000E+00  0.000E+00  0.000E+00  4.79312E+01  1.471E-01  2.000E+01  2.000E+04 -1.252E-01
   1   14    3     1     3    1.0407E+05 -3.8143E+02   1.0446E+05  0.000E+00  0.000E+00  0.000E+00  4.74551E+01  1.483E-01  2.000E+01  2.000E+04 -1.907E-02
   1   15    4     1     4    1.0446E+05  1.0689E+04   9.3767E+04  0.000E+00  0.000E+00  0.000E+00  4.69734E+01  1.439E-01  2.000E+01  2.000E+04  5.344E-01
   1   16    5     1     5    9.3767E+04 -1.4305E+03   9.5198E+04  0.000E+00  0.000E+00  0.000E+00  4.64921E+01  1.398E-01  2.000E+01  2.000E+04 -7.152E-02
   1   16    6     1     6    9.5198E+04 -9.3303E+02   9.6131E+04  0.000E+00  0.000E+00  0.000E+00  4.60159E+01  1.409E-01  2.000E+01  2.000E+04 -4.665E-02
   1   16    7     1     7    9.6131E+04 -9.2529E+02   9.7056E+04  0.000E+00  0.000E+00  0.000E+00  4.55394E+01  1.417E-01  2.000E+01  2.000E+04 -4.626E-02
   1   16    8     1     8    9.7056E+04 -9.2686E+02   9.7983E+04  0.000E+00  0.000E+00  0.000E+00  4.50629E+01  1.425E-01  2.000E+01  2.000E+04 -4.634E-02
   1   16    9     1     9    9.7983E+04 -9.2428E+02   9.8907E+04  0.000E+00  0.000E+00  0.000E+00  4.45865E+01  1.433E-01  2.000E+01  2.000E+04 -4.621E-02
   1   16   10     1    10    9.8907E+04 -9.1852E+02   9.9826E+04  0.000E+00  0.000E+00  0.000E+00  4.41100E+01  1.441E-01  2.000E+01  2.000E+04 -4.593E-02
   1   16   11     1    11    9.9826E+04 -9.2800E+02   1.0075E+05  0.000E+00  0.000E+00  0.000E+00  4.36335E+01  1.449E-01  2.000E+01  2.000E+04 -4.640E-02
   1   16   12     1    12    1.0075E+05 -1.5564E+03   1.0231E+05  0.000E+00  0.000E+00  0.000E+00  4.31573E+01  1.460E-01  2.000E+01  2.000E+04 -7.782E-02
   1   15   13     1    13    1.0231E+05 -1.3613E+03   1.0367E+05  0.000E+00  0.000E+00  0.000E+00  4.26813E+01  1.472E-01  2.000E+01  2.000E+04 -6.806E-02
   1   14   14     1    14    1.0367E+05 -1.5114E+03   1.0518E+05  0.000E+00  0.000E+00  0.000E+00  4.22053E+01  1.485E-01  2.000E+01  2.000E+04 -7.557E-02
   1   13   15     1    15    1.0518E+05 -1.6448E+03   1.0683E+05  0.000E+00  0.000E+00  0.000E+00  4.17293E+01  1.498E-01  2.000E+01  2.000E+04 -8.224E-02
   1   12   16     1    16    1.0683E+05 -1.8388E+03   1.0867E+05  0.000E+00  0.000E+00  0.000E+00  4.12535E+01  1.513E-01  2.000E+01  2.000E+04 -9.194E-02
   1   12   17     1    17    1.0867E+05 -1.0913E+03   1.0976E+05  0.000E+00  0.000E+00  0.000E+00  4.07775E+01  1.525E-01  2.000E+01  2.000E+04 -5.457E-02
   1   12   18     1    18    1.0976E+05 -8.7516E+02   1.1063E+05  0.000E+00  0.000E+00  0.000E+00  4.03011E+01  1.533E-01  2.000E+01  2.000E+04 -4.376E-02
   1   12   19     1    19    1.1063E+05 -3.5053E+02   1.1098E+05  0.000E+00  0.000E+00  0.000E+00  3.98243E+01  1.538E-01  2.000E+01  2.000E+04 -1.753E-02
   1   13   20     1    20    1.1098E+05 -1.2082E+02   1.1110E+05  0.000E+00  0.000E+00  0.000E+00  3.93472E+01  1.540E-01  2.000E+01  2.000E+04 -6.041E-03
   1   14   21     1    21    1.1110E+05 -7.3181E+02   1.1184E+05  0.000E+00  0.000E+00  0.000E+00  3.88703E+01  1.544E-01  2.000E+01  2.000E+04 -3.659E-02
   1   14   22     1    22    1.1184E+05  5.2057E+03   1.0663E+05  0.000E+00  0.000E+00  0.000E+00  3.83912E+01  1.525E-01  2.000E+01  2.000E+04  2.603E-01
   1    9   30     2     1    5.0000E+04 -2.3756E+02   5.0238E+04  0.000E+00  0.000E+00  0.000E+00  4.02410E+01  1.160E-01  2.000E+01  2.000E+04 -1.188E-02
   1    9   29     2     2    5.0238E+04 -5.1983E+02   5.0757E+04  0.000E+00  0.000E+00  0.000E+00  3.99916E+01  1.166E-01  2.000E+01  2.000E+04 -2.599E-02
   1    9   28     2     3    5.0757E+04 -7.2068E+02   5.1478E+04  0.000E+00  0.000E+00  0.000E+00  3.97424E+01  1.174E-01  2.000E+01  2.000E+04 -3.603E-02
   1    9   27     2     4    5.1478E+04 -1.4732E+03   5.2951E+04  0.000E+00  0.000E+00  0.000E+00  3.94939E+01  1.189E-01  2.000E+01  2.000E+04 -7.366E-02
   1   10   26     2     5    5.2951E+04 -4.7795E+02   5.3429E+04  0.000E+00  0.000E+00  0.000E+00  3.92452E+01  1.202E-01  2.000E+01  2.000E+04 -2.390E-02
   1   11   25     2     6    5.3429E+04  2.7722E+02   5.3152E+04  0.000E+00  0.000E+00  0.000E+00  3.89954E+01  1.204E-01  2.000E+01  2.000E+04  1.386E-02
   1   12   24     2     7    5.3152E+04  1.1358E+03   5.2016E+04  0.000E+00  0.000E+00  0.000E+00  3.87444E+01  1.194E-01  2.000E+01  2.000E+04  5.679E-02
   1   13   23     2     8    5.2016E+04  2.5877E+02   5.1757E+04  0.000E+00  0.000E+00  0.000E+00  3.84935E+01  1.185E-01  2.000E+01  2.000E+04  1.294E-02
   1   14   22     2     9    5.1757E+04  2.2178E+03   4.9540E+04  0.000E+00  0.000E+00  0.000E+00  3.82418E+01  1.168E-01  2.000E+01  2.000E+04  1.109E-01
   1   14   22     3     1    1.5617E+05 -8.3197E+03   1.6449E+05  0.000E+00  0.000E+00  0.000E+00  3.77149E+01  1.593E-01  2.000E+01  2.000E+04 -4.160E-01
   1   15   23     3     2    1.6449E+05 -4.6165E+02   1.6495E+05  0.000E+00  0.000E+00  0.000E+00  3.68286E+01  1.619E-01  2.000E+01  2.000E+04 -2.308E-02
   1   15   24     3     3    1.6495E+05 -2.1366E+02   1.6517E+05  0.000E+00  0.000E+00  0.000E+00  3.59399E+01  1.621E-01  2.000E+01  2.000E+04 -1.068E-02
   1   15   25     3     4    1.6517E+05 -1.9614E+02   1.6536E+05  0.000E+00  0.000E+00  0.000E+00  3.50511E+01  1.623E-01  2.000E+01  2.000E+04 -9.807E-03
   1   15   26     3     5    1.6536E+05 -2.0270E+02   1.6556E+05  0.000E+00  0.000E+00  0.000E+00  3.41624E+01  1.624E-01  2.000E+01  2.000E+04 -1.014E-02
   1   16   27     3     6    1.6556E+05 -3.0954E+01   1.6560E+05  0.000E+00  0.000E+00  0.000E+00  3.32736E+01  1.624E-01  2.000E+01  2.000E+04 -1.548E-03
   1   17   28     3     7    1.6560E+05  5.5465E+03   1.6005E+05  0.000E+00  0.000E+00  0.000E+00  3.23830E+01  1.608E-01  2.000E+01  2.000E+04  2.773E-01
   1   18   29     3     8    1.6005E+05  2.3044E+04   1.3700E+05  0.000E+00  0.000E+00  0.000E+00  3.14855E+01  1.522E-01  2.000E+01  2.000E+04  1.152E+00
   1   18   30     3     9    1.3700E+05  7.9598E+03   1.2904E+05  0.000E+00  0.000E+00  0.000E+00  3.05869E+01  1.424E-01  2.000E+01  2.000E+04  3.980E-01



1
              HEAD IN LAYER   1 AT END OF TIME STEP   1 IN STRESS PERIOD    9
  ---------------------------------------------------------------------------

          1      2      3      4      5      6      7      8      9     10
         11     12     13     14     15     16     17     18     19     20
         21     22     23     24     25     26     27     28     29     30
 .........................................................................
   1  ****** ****** ****** ****** ****** ****** ****** ****** ****** ******
      ****** ****** ****** ****** ****** ****** ****** ****** ****** ******
      ****** ****** ****** ****** ****** ****** ****** ****** ****** ******
   2  ****** ****** ****** ****** ****** ****** ****** ****** ****** ******
      ****** ****** ****** ****** ****** ****** ****** ****** ****** ******
      ****** ****** ****** ****** ****** ****** ****** ****** ****** ******
   3  ****** ****** ****** ****** ****** ****** ****** ****** ****** ******
      ****** ****** ****** ****** ****** ****** ****** ****** ****** ******
      ****** ****** ****** ****** ****** ****** ****** ****** ****** ******
   4  ****** ****** ****** ****** ****** ****** ****** ****** ****** ******
      ****** ****** ****** ****** ****** ****** ****** ****** ****** ******
      ****** ****** ****** ****** ****** ****** ****** ****** ****** ******
   5  ****** ****** ****** ****** ****** ****** ****** ****** ****** ******
      ****** ****** ****** ****** ****** ****** ****** ****** ****** ******
      ****** ****** ****** ****** ****** ****** ****** ****** ****** ******
   6  ****** ****** ****** ****** ****** ****** ****** ****** ****** ******
      ****** ****** ****** ****** ****** ****** ****** ****** ****** ******
      ****** ****** ****** ****** ****** ****** ****** ****** ****** ******
   7  ****** ****** ****** ****** ****** ****** ****** ****** ****** ******
      ****** ****** ****** ****** ****** ****** ****** ****** ****** ******
      ****** ****** ****** ****** ****** ****** ****** ****** ****** ******
   8  ****** ****** ****** ****** ****** ****** ****** ****** ****** ******
      ****** ****** ****** ****** ****** ****** ****** ****** ****** ******
      ****** ****** ****** ****** ****** ****** ****** ****** ****** ******
   9  ****** ****** ****** ****** ****** ****** ****** ****** ****** ******
      ****** ****** ****** ****** ****** ****** ****** ****** ****** ******
      ****** ****** ****** ****** ****** ****** ****** ****** ****** ******
  10  ****** ****** ****** ****** ****** ****** ****** ****** ****** ******
      ****** ****** ****** ****** ****** ****** ****** ****** ****** ******
      ****** ****** ****** ****** ****** ****** ****** ****** ****** ******
  11  ****** ****** ****** ****** ****** ****** ****** ****** ****** ******
      ****** ****** ****** ****** ****** ****** ****** ****** ****** ******
      ****** ****** ****** ****** ****** ****** ****** ****** ****** ******
  12  ****** ****** ****** ****** ****** ****** ****** ****** ****** ******
      ****** ****** ****** ****** ****** ****** ****** ****** ****** ******
      ****** ****** ****** ****** ****** ****** ****** ****** ****** ******
  13  ****** ****** ****** ****** ****** ****** ****** ****** ****** ******
      ****** ****** ****** ****** ****** ****** ****** ****** ****** ******
      ****** ****** ****** ****** ****** ****** ****** ****** ****** ******
  14  ****** ****** ****** ****** ****** ****** ****** ****** ****** ******
      ****** ****** ****** ****** ****** ****** ****** ****** ****** ******
      ****** ****** ****** ****** ****** ****** ****** ****** ****** ******
  15  ****** ****** ****** ****** ****** ****** ****** ****** ****** ******
      ****** ****** ****** ****** ****** ****** ****** ****** ****** ******
      ****** ****** ****** ****** ****** ****** ****** ****** ****** ******
  16  ****** ****** ****** ****** ****** ****** ****** ****** ****** ******
      ****** ****** ****** ****** ****** ****** ****** ****** ****** ******
      ****** ****** ****** ****** ****** ****** ****** ****** ****** ******
  17  ****** ****** ****** ****** ****** ****** ****** ****** ****** ******
      ****** ****** ****** ****** ****** ****** ****** ****** ****** ******
      ****** ****** ****** ****** ****** ****** ****** ****** ****** ******
  18  ****** ****** ****** ****** ****** ****** ****** ****** ****** ******
      ****** ****** ****** ****** ****** ****** ****** ****** ****** ******
      ****** ****** ****** ****** ****** ****** ****** ****** ****** ******
  19  ****** ****** ****** ****** ****** ****** ****** ****** ****** ******
      ****** ****** ****** ****** ****** ****** ****** ****** ****** ******
      ****** ****** ****** ****** ****** ****** ****** ****** ****** ******
  20  ****** ****** ****** ****** ****** ****** ****** ****** ****** ******
      ****** ****** ****** ****** ****** ****** ****** ****** ****** ******
      ****** ****** ****** ****** ****** ****** ****** ****** ****** ******
  21  ****** ****** ****** ****** ****** ****** ****** ****** ****** ******
      ****** ****** ****** ****** ****** ****** ****** ****** ****** ******
      ****** ****** ****** ****** ****** ****** ****** ****** ****** ******
  22  ****** ****** ****** ****** ****** ****** ****** ****** ****** ******
      ****** ****** ****** ****** ****** ****** ****** ****** ****** ******
      ****** ****** ****** ****** ****** ****** ****** ****** ****** ******
  23  ****** ****** ****** ****** ****** ****** ****** ****** ****** ******
      ****** ****** ****** ****** ****** ****** ****** ****** ****** ******
      ****** ****** ****** ****** ****** ****** ****** ****** ****** ******
  24  ****** ****** ****** ****** ****** ****** ****** ****** ****** ******
      ****** ****** ****** ****** ****** ****** ****** ****** ****** ******
      ****** ****** ****** ****** ****** ****** ****** ****** ****** ******
  25  ****** ****** ****** ****** ****** ****** ****** ****** ****** ******
      ****** ****** ****** ****** ****** ****** ****** ****** ****** ******
      ****** ****** ****** ****** ****** ****** ****** ****** ****** ******

 HEAD WILL BE SAVED ON UNIT   51 AT END OF TIME STEP    1, STRESS PERIOD    9
1
  VOLUMETRIC BUDGET FOR ENTIRE MODEL AT END OF TIME STEP    1, STRESS PERIOD   9
  ------------------------------------------------------------------------------

     CUMULATIVE VOLUMES      L**3       RATES FOR THIS TIME STEP      L**3/T
     ------------------                 ------------------------

           IN:                                      IN:
           ---                                      ---
             STORAGE =    33838034.4557               STORAGE =        7306.8096
       CONSTANT HEAD =    22481268.6049         CONSTANT HEAD =       34405.0987
               WELLS =           0.0000                 WELLS =           0.0000
            RECHARGE =    18878400.0000              RECHARGE =       13800.0000
      STREAM LEAKAGE =    42599342.2519        STREAM LEAKAGE =       56334.1556

            TOTAL IN =   117797045.3125              TOTAL IN =      111846.0640

          OUT:                                     OUT:
          ----                                     ----
             STORAGE =      929053.3910               STORAGE =           0.0000
       CONSTANT HEAD =           0.0000         CONSTANT HEAD =           0.0000
               WELLS =    62855816.4029                 WELLS =       76466.9299
            RECHARGE =           0.0000              RECHARGE =           0.0000
      STREAM LEAKAGE =    54012177.2052        STREAM LEAKAGE =       35379.1367

           TOTAL OUT =   117797046.9991             TOTAL OUT =      111846.0666

            IN - OUT =          -1.6866              IN - OUT =      -2.6464E-03

 PERCENT DISCREPANCY =          -0.00     PERCENT DISCREPANCY =          -0.00






         TIME SUMMARY AT END OF TIME STEP    1 IN STRESS PERIOD    9
                    SECONDS     MINUTES      HOURS       DAYS        YEARS
                    -----------------------------------------------------------
   TIME STEP LENGTH 7.94880E+06 1.32480E+05  2208.0      92.000     0.25188    
 STRESS PERIOD TIME 7.94880E+06 1.32480E+05  2208.0      92.000     0.25188    
         TOTAL TIME 7.10208E+07 1.18368E+06  19728.      822.00      2.2505    
1
1
                            STRESS PERIOD NO.   10, LENGTH =   91.00000    
                            -----------------------------------------------

                              NUMBER OF TIME STEPS =     1

                               MULTIPLIER FOR DELT =     1.500

                            INITIAL TIME STEP SIZE =   91.00000    

 WELL NO.  LAYER   ROW   COL   STRESS RATE         
 --------------------------------------------------
      1      1     14      6       0.000    
      2      1      3      9       0.000    
      3      1     20     10       0.000    
      4      1     14     20       0.000    
      5      1     15      4     -0.1117E+05
      6      1     11     22     -0.1086E+05
      7      1     18     29     -0.4636E+05
      8      1      5     18      -8080.    

      8 WELLS

                 RECHARGE =  2.000000E-03

 REUSING STREAM SEGMENT DATA FROM LAST STRESS PERIOD
 
 SOLVING FOR HEAD 


     8 CALLS TO PCG ROUTINE FOR TIME STEP   1 IN STRESS PERIOD   10
    31 TOTAL ITERATIONS

 OUTPUT CONTROL FOR STRESS PERIOD   10   TIME STEP    1
    SAVE BUDGET
    SAVE HEAD FOR ALL LAYERS
    PRINT HEAD FOR ALL LAYERS
 UBDSV2 SAVING "STREAMFLOW OUT  " ON UNIT  50 AT TIME STEP  1, STRESS PERIOD  10



 STREAM LISTING     PERIOD     10   STEP        1

 LAYER ROW COL. STREAM  RCH.  FLOW INTO     FLOW TO   FLOW OUT OF   OVRLND.     DIRECT     STREAM       STREAM     STREAM     STREAM   STREAMBED  STREAMBED
                SEG.NO.  NO.  STRM. RCH.    AQUIFER    STRM. RCH.    RUNOFF     PRECIP       ET          HEAD       DEPTH      WIDTH   CONDCTNC.   GRADIENT

   1   13    1     1     1    1.0000E+05 -2.0227E+03   1.0202E+05  0.000E+00  0.000E+00  0.000E+00  4.84069E+01  1.455E-01  2.000E+01  2.000E+04 -1.011E-01
   1   13    2     1     2    1.0202E+05 -3.0037E+03   1.0503E+05  0.000E+00  0.000E+00  0.000E+00  4.79318E+01  1.477E-01  2.000E+01  2.000E+04 -1.502E-01
   1   14    3     1     3    1.0503E+05 -5.6779E+02   1.0559E+05  0.000E+00  0.000E+00  0.000E+00  4.74560E+01  1.492E-01  2.000E+01  2.000E+04 -2.839E-02
   1   15    4     1     4    1.0559E+05  1.0489E+04   9.5105E+04  0.000E+00  0.000E+00  0.000E+00  4.69745E+01  1.450E-01  2.000E+01  2.000E+04  5.245E-01
   1   16    5     1     5    9.5105E+04 -2.0496E+03   9.7154E+04  0.000E+00  0.000E+00  0.000E+00  4.64935E+01  1.413E-01  2.000E+01  2.000E+04 -1.025E-01
   1   16    6     1     6    9.7154E+04 -1.2952E+03   9.8449E+04  0.000E+00  0.000E+00  0.000E+00  4.60177E+01  1.427E-01  2.000E+01  2.000E+04 -6.476E-02
   1   16    7     1     7    9.8449E+04 -1.2696E+03   9.9719E+04  0.000E+00  0.000E+00  0.000E+00  4.55416E+01  1.439E-01  2.000E+01  2.000E+04 -6.348E-02
   1   16    8     1     8    9.9719E+04 -1.2657E+03   1.0098E+05  0.000E+00  0.000E+00  0.000E+00  4.50654E+01  1.450E-01  2.000E+01  2.000E+04 -6.329E-02
   1   16    9     1     9    1.0098E+05 -1.2616E+03   1.0225E+05  0.000E+00  0.000E+00  0.000E+00  4.45892E+01  1.460E-01  2.000E+01  2.000E+04 -6.308E-02
   1   16   10     1    10    1.0225E+05 -1.2561E+03   1.0350E+05  0.000E+00  0.000E+00  0.000E+00  4.41130E+01  1.471E-01  2.000E+01  2.000E+04 -6.280E-02
   1   16   11     1    11    1.0350E+05 -1.2690E+03   1.0477E+05  0.000E+00  0.000E+00  0.000E+00  4.36368E+01  1.482E-01  2.000E+01  2.000E+04 -6.345E-02
   1   16   12     1    12    1.0477E+05 -2.1256E+03   1.0690E+05  0.000E+00  0.000E+00  0.000E+00  4.31610E+01  1.497E-01  2.000E+01  2.000E+04 -1.063E-01
   1   15   13     1    13    1.0690E+05 -1.9472E+03   1.0884E+05  0.000E+00  0.000E+00  0.000E+00  4.26855E+01  1.514E-01  2.000E+01  2.000E+04 -9.736E-02
   1   14   14     1    14    1.0884E+05 -2.1043E+03   1.1095E+05  0.000E+00  0.000E+00  0.000E+00  4.22099E+01  1.531E-01  2.000E+01  2.000E+04 -1.052E-01
   1   13   15     1    15    1.1095E+05 -2.2275E+03   1.1318E+05  0.000E+00  0.000E+00  0.000E+00  4.17344E+01  1.549E-01  2.000E+01  2.000E+04 -1.114E-01
   1   12   16     1    16    1.1318E+05 -2.3997E+03   1.1558E+05  0.000E+00  0.000E+00  0.000E+00  4.12591E+01  1.568E-01  2.000E+01  2.000E+04 -1.200E-01
   1   12   17     1    17    1.1558E+05 -1.5163E+03   1.1709E+05  0.000E+00  0.000E+00  0.000E+00  4.07834E+01  1.584E-01  2.000E+01  2.000E+04 -7.582E-02
   1   12   18     1    18    1.1709E+05 -1.2961E+03   1.1839E+05  0.000E+00  0.000E+00  0.000E+00  4.03073E+01  1.595E-01  2.000E+01  2.000E+04 -6.480E-02
   1   12   19     1    19    1.1839E+05 -8.6849E+02   1.1926E+05  0.000E+00  0.000E+00  0.000E+00  3.98309E+01  1.604E-01  2.000E+01  2.000E+04 -4.342E-02
   1   13   20     1    20    1.1926E+05 -6.4182E+02   1.1990E+05  0.000E+00  0.000E+00  0.000E+00  3.93542E+01  1.610E-01  2.000E+01  2.000E+04 -3.209E-02
   1   14   21     1    21    1.1990E+05 -1.2568E+03   1.2116E+05  0.000E+00  0.000E+00  0.000E+00  3.88777E+01  1.618E-01  2.000E+01  2.000E+04 -6.284E-02
   1   14   22     1    22    1.2116E+05  5.0793E+03   1.1608E+05  0.000E+00  0.000E+00  0.000E+00  3.83989E+01  1.603E-01  2.000E+01  2.000E+04  2.540E-01
   1    9   30     2     1    5.0000E+04 -6.5378E+02   5.0654E+04  0.000E+00  0.000E+00  0.000E+00  4.02413E+01  1.163E-01  2.000E+01  2.000E+04 -3.269E-02
   1    9   29     2     2    5.0654E+04 -9.3353E+02   5.1587E+04  0.000E+00  0.000E+00  0.000E+00  3.99924E+01  1.174E-01  2.000E+01  2.000E+04 -4.668E-02
   1    9   28     2     3    5.1587E+04 -1.1331E+03   5.2720E+04  0.000E+00  0.000E+00  0.000E+00  3.97438E+01  1.188E-01  2.000E+01  2.000E+04 -5.666E-02
   1    9   27     2     4    5.2720E+04 -2.0266E+03   5.4747E+04  0.000E+00  0.000E+00  0.000E+00  3.94960E+01  1.210E-01  2.000E+01  2.000E+04 -1.013E-01
   1   10   26     2     5    5.4747E+04 -1.0323E+03   5.5779E+04  0.000E+00  0.000E+00  0.000E+00  3.92480E+01  1.230E-01  2.000E+01  2.000E+04 -5.161E-02
   1   11   25     2     6    5.5779E+04 -2.5226E+02   5.6032E+04  0.000E+00  0.000E+00  0.000E+00  3.89989E+01  1.239E-01  2.000E+01  2.000E+04 -1.261E-02
   1   12   24     2     7    5.6032E+04  6.5737E+02   5.5374E+04  0.000E+00  0.000E+00  0.000E+00  3.87486E+01  1.236E-01  2.000E+01  2.000E+04  3.287E-02
   1   13   23     2     8    5.5374E+04  1.1010E+02   5.5264E+04  0.000E+00  0.000E+00  0.000E+00  3.84981E+01  1.231E-01  2.000E+01  2.000E+04  5.505E-03
   1   14   22     2     9    5.5264E+04  2.0349E+03   5.3229E+04  0.000E+00  0.000E+00  0.000E+00  3.82467E+01  1.217E-01  2.000E+01  2.000E+04  1.017E-01
   1   14   22     3     1    1.6931E+05 -8.4459E+03   1.7775E+05  0.000E+00  0.000E+00  0.000E+00  3.77226E+01  1.671E-01  2.000E+01  2.000E+04 -4.223E-01
   1   15   23     3     2    1.7775E+05 -6.2421E+02   1.7838E+05  0.000E+00  0.000E+00  0.000E+00  3.68364E+01  1.697E-01  2.000E+01  2.000E+04 -3.121E-02
   1   15   24     3     3    1.7838E+05 -3.5087E+02   1.7873E+05  0.000E+00  0.000E+00  0.000E+00  3.59477E+01  1.700E-01  2.000E+01  2.000E+04 -1.754E-02
   1   15   25     3     4    1.7873E+05 -3.3687E+02   1.7906E+05  0.000E+00  0.000E+00  0.000E+00  3.50590E+01  1.702E-01  2.000E+01  2.000E+04 -1.684E-02
   1   15   26     3     5    1.7906E+05 -3.6613E+02   1.7943E+05  0.000E+00  0.000E+00  0.000E+00  3.41704E+01  1.704E-01  2.000E+01  2.000E+04 -1.831E-02
   1   16   27     3     6    1.7943E+05 -2.2274E+02   1.7965E+05  0.000E+00  0.000E+00  0.000E+00  3.32816E+01  1.705E-01  2.000E+01  2.000E+04 -1.114E-02
   1   17   28     3     7    1.7965E+05  4.8187E+03   1.7483E+05  0.000E+00  0.000E+00  0.000E+00  3.23914E+01  1.692E-01  2.000E+01  2.000E+04  2.409E-01
   1   18   29     3     8    1.7483E+05  2.3221E+04   1.5161E+05  0.000E+00  0.000E+00  0.000E+00  3.14944E+01  1.611E-01  2.000E+01  2.000E+04  1.161E+00
   1   18   30     3     9    1.5161E+05  7.1944E+03   1.4442E+05  0.000E+00  0.000E+00  0.000E+00  3.05963E+01  1.519E-01  2.000E+01  2.000E+04  3.597E-01



1
              HEAD IN LAYER   1 AT END OF TIME STEP   1 IN STRESS PERIOD   10
  ---------------------------------------------------------------------------

          1      2      3      4      5      6      7      8      9     10
         11     12     13     14     15     16     17     18     19     20
         21     22     23     24     25     26     27     28     29     30
 .........................................................................
   1  ****** ****** ****** ****** ****** ****** ****** ****** ****** ******
      ****** ****** ****** ****** ****** ****** ****** ****** ****** ******
      ****** ****** ****** ****** ****** ****** ****** ****** ****** ******
   2  ****** ****** ****** ****** ****** ****** ****** ****** ****** ******
      ****** ****** ****** ****** ****** ****** ****** ****** ****** ******
      ****** ****** ****** ****** ****** ****** ****** ****** ****** ******
   3  ****** ****** ****** ****** ****** ****** ****** ****** ****** ******
      ****** ****** ****** ****** ****** ****** ****** ****** ****** ******
      ****** ****** ****** ****** ****** ****** ****** ****** ****** ******
   4  ****** ****** ****** ****** ****** ****** ****** ****** ****** ******
      ****** ****** ****** ****** ****** ****** ****** ****** ****** ******
      ****** ****** ****** ****** ****** ****** ****** ****** ****** ******
   5  ****** ****** ****** ****** ****** ****** ****** ****** ****** ******
      ****** ****** ****** ****** ****** ****** ****** ****** ****** ******
      ****** ****** ****** ****** ****** ****** ****** ****** ****** ******
   6  ****** ****** ****** ****** ****** ****** ****** ****** ****** ******
      ****** ****** ****** ****** ****** ****** ****** ****** ****** ******
      ****** ****** ****** ****** ****** ****** ****** ****** ****** ******
   7  ****** ****** ****** ****** ****** ****** ****** ****** ****** ******
      ****** ****** ****** ****** ****** ****** ****** ****** ****** ******
      ****** ****** ****** ****** ****** ****** ****** ****** ****** ******
   8  ****** ****** ****** ****** ****** ****** ****** ****** ****** ******
      ****** ****** ****** ****** ****** ****** ****** ****** ****** ******
      ****** ****** ****** ****** ****** ****** ****** ****** ****** ******
   9  ****** ****** ****** ****** ****** ****** ****** ****** ****** ******
      ****** ****** ****** ****** ****** ****** ****** ****** ****** ******
      ****** ****** ****** ****** ****** ****** ****** ****** ****** ******
  10  ****** ****** ****** ****** ****** ****** ****** ****** ****** ******
      ****** ****** ****** ****** ****** ****** ****** ****** ****** ******
      ****** ****** ****** ****** ****** ****** ****** ****** ****** ******
  11  ****** ****** ****** ****** ****** ****** ****** ****** ****** ******
      ****** ****** ****** ****** ****** ****** ****** ****** ****** ******
      ****** ****** ****** ****** ****** ****** ****** ****** ****** ******
  12  ****** ****** ****** ****** ****** ****** ****** ****** ****** ******
      ****** ****** ****** ****** ****** ****** ****** ****** ****** ******
      ****** ****** ****** ****** ****** ****** ****** ****** ****** ******
  13  ****** ****** ****** ****** ****** ****** ****** ****** ****** ******
      ****** ****** ****** ****** ****** ****** ****** ****** ****** ******
      ****** ****** ****** ****** ****** ****** ****** ****** ****** ******
  14  ****** ****** ****** ****** ****** ****** ****** ****** ****** ******
      ****** ****** ****** ****** ****** ****** ****** ****** ****** ******
      ****** ****** ****** ****** ****** ****** ****** ****** ****** ******
  15  ****** ****** ****** ****** ****** ****** ****** ****** ****** ******
      ****** ****** ****** ****** ****** ****** ****** ****** ****** ******
      ****** ****** ****** ****** ****** ****** ****** ****** ****** ******
  16  ****** ****** ****** ****** ****** ****** ****** ****** ****** ******
      ****** ****** ****** ****** ****** ****** ****** ****** ****** ******
      ****** ****** ****** ****** ****** ****** ****** ****** ****** ******
  17  ****** ****** ****** ****** ****** ****** ****** ****** ****** ******
      ****** ****** ****** ****** ****** ****** ****** ****** ****** ******
      ****** ****** ****** ****** ****** ****** ****** ****** ****** ******
  18  ****** ****** ****** ****** ****** ****** ****** ****** ****** ******
      ****** ****** ****** ****** ****** ****** ****** ****** ****** ******
      ****** ****** ****** ****** ****** ****** ****** ****** ****** ******
  19  ****** ****** ****** ****** ****** ****** ****** ****** ****** ******
      ****** ****** ****** ****** ****** ****** ****** ****** ****** ******
      ****** ****** ****** ****** ****** ****** ****** ****** ****** ******
  20  ****** ****** ****** ****** ****** ****** ****** ****** ****** ******
      ****** ****** ****** ****** ****** ****** ****** ****** ****** ******
      ****** ****** ****** ****** ****** ****** ****** ****** ****** ******
  21  ****** ****** ****** ****** ****** ****** ****** ****** ****** ******
      ****** ****** ****** ****** ****** ****** ****** ****** ****** ******
      ****** ****** ****** ****** ****** ****** ****** ****** ****** ******
  22  ****** ****** ****** ****** ****** ****** ****** ****** ****** ******
      ****** ****** ****** ****** ****** ****** ****** ****** ****** ******
      ****** ****** ****** ****** ****** ****** ****** ****** ****** ******
  23  ****** ****** ****** ****** ****** ****** ****** ****** ****** ******
      ****** ****** ****** ****** ****** ****** ****** ****** ****** ******
      ****** ****** ****** ****** ****** ****** ****** ****** ****** ******
  24  ****** ****** ****** ****** ****** ****** ****** ****** ****** ******
      ****** ****** ****** ****** ****** ****** ****** ****** ****** ******
      ****** ****** ****** ****** ****** ****** ****** ****** ****** ******
  25  ****** ****** ****** ****** ****** ****** ****** ****** ****** ******
      ****** ****** ****** ****** ****** ****** ****** ****** ****** ******
      ****** ****** ****** ****** ****** ****** ****** ****** ****** ******

 HEAD WILL BE SAVED ON UNIT   51 AT END OF TIME STEP    1, STRESS PERIOD   10
1
  VOLUMETRIC BUDGET FOR ENTIRE MODEL AT END OF TIME STEP    1, STRESS PERIOD  10
  ------------------------------------------------------------------------------

     CUMULATIVE VOLUMES      L**3       RATES FOR THIS TIME STEP      L**3/T
     ------------------                 ------------------------

           IN:                                      IN:
           ---                                      ---
             STORAGE =    33838034.4557               STORAGE =           0.0000
       CONSTANT HEAD =    25343350.1968         CONSTANT HEAD =       31451.4461
               WELLS =           0.0000                 WELLS =           0.0000
            RECHARGE =    23901600.0000              RECHARGE =       55200.0000
      STREAM LEAKAGE =    47477417.2468        STREAM LEAKAGE =       53605.2197

            TOTAL IN =   130560401.8993              TOTAL IN =      140256.6658

          OUT:                                     OUT:
          ----                                     ----
             STORAGE =     2363823.1873               STORAGE =       15766.7011
       CONSTANT HEAD =           0.0000         CONSTANT HEAD =           0.0000
               WELLS =    69814307.0266                 WELLS =       76466.9299
            RECHARGE =           0.0000              RECHARGE =           0.0000
      STREAM LEAKAGE =    58382273.1961        STREAM LEAKAGE =       48023.0329

           TOTAL OUT =   130560403.4100             TOTAL OUT =      140256.6639

            IN - OUT =          -1.5107              IN - OUT =       1.9324E-03

 PERCENT DISCREPANCY =          -0.00     PERCENT DISCREPANCY =           0.00






         TIME SUMMARY AT END OF TIME STEP    1 IN STRESS PERIOD   10
                    SECONDS     MINUTES      HOURS       DAYS        YEARS
                    -----------------------------------------------------------
   TIME STEP LENGTH 7.86240E+06 1.31040E+05  2184.0      91.000     0.24914    
 STRESS PERIOD TIME 7.86240E+06 1.31040E+05  2184.0      91.000     0.24914    
         TOTAL TIME 7.88832E+07 1.31472E+06  21912.      913.00      2.4997    
1
1
                            STRESS PERIOD NO.   11, LENGTH =   91.00000    
                            -----------------------------------------------

                              NUMBER OF TIME STEPS =     1

                               MULTIPLIER FOR DELT =     1.500

                            INITIAL TIME STEP SIZE =   91.00000    

 WELL NO.  LAYER   ROW   COL   STRESS RATE         
 --------------------------------------------------
      1      1     14      6       0.000    
      2      1      3      9       0.000    
      3      1     20     10       0.000    
      4      1     14     20       0.000    
      5      1     15      4     -0.1117E+05
      6      1     11     22     -0.1086E+05
      7      1     18     29     -0.4636E+05
      8      1      5     18      -8080.    

      8 WELLS

                 RECHARGE =   0.00000    

 REUSING STREAM SEGMENT DATA FROM LAST STRESS PERIOD
 
 SOLVING FOR HEAD 


     8 CALLS TO PCG ROUTINE FOR TIME STEP   1 IN STRESS PERIOD   11
    31 TOTAL ITERATIONS

 OUTPUT CONTROL FOR STRESS PERIOD   11   TIME STEP    1
    SAVE BUDGET
    SAVE HEAD FOR ALL LAYERS
    PRINT HEAD FOR ALL LAYERS
 UBDSV2 SAVING "STREAMFLOW OUT  " ON UNIT  50 AT TIME STEP  1, STRESS PERIOD  11



 STREAM LISTING     PERIOD     11   STEP        1

 LAYER ROW COL. STREAM  RCH.  FLOW INTO     FLOW TO   FLOW OUT OF   OVRLND.     DIRECT     STREAM       STREAM     STREAM     STREAM   STREAMBED  STREAMBED
                SEG.NO.  NO.  STRM. RCH.    AQUIFER    STRM. RCH.    RUNOFF     PRECIP       ET          HEAD       DEPTH      WIDTH   CONDCTNC.   GRADIENT

   1   13    1     1     1    1.0000E+05 -1.4542E+03   1.0145E+05  0.000E+00  0.000E+00  0.000E+00  4.84066E+01  1.453E-01  2.000E+01  2.000E+04 -7.271E-02
   1   13    2     1     2    1.0145E+05 -2.3705E+03   1.0382E+05  0.000E+00  0.000E+00  0.000E+00  4.79310E+01  1.469E-01  2.000E+01  2.000E+04 -1.185E-01
   1   14    3     1     3    1.0382E+05 -3.3676E+02   1.0416E+05  0.000E+00  0.000E+00  0.000E+00  4.74549E+01  1.481E-01  2.000E+01  2.000E+04 -1.684E-02
   1   15    4     1     4    1.0416E+05  1.0731E+04   9.3430E+04  0.000E+00  0.000E+00  0.000E+00  4.69731E+01  1.436E-01  2.000E+01  2.000E+04  5.366E-01
   1   16    5     1     5    9.3430E+04 -1.3618E+03   9.4792E+04  0.000E+00  0.000E+00  0.000E+00  4.64918E+01  1.395E-01  2.000E+01  2.000E+04 -6.809E-02
   1   16    6     1     6    9.4792E+04 -8.8089E+02   9.5673E+04  0.000E+00  0.000E+00  0.000E+00  4.60155E+01  1.405E-01  2.000E+01  2.000E+04 -4.404E-02
   1   16    7     1     7    9.5673E+04 -8.7290E+02   9.6546E+04  0.000E+00  0.000E+00  0.000E+00  4.55390E+01  1.412E-01  2.000E+01  2.000E+04 -4.364E-02
   1   16    8     1     8    9.6546E+04 -8.7452E+02   9.7420E+04  0.000E+00  0.000E+00  0.000E+00  4.50625E+01  1.420E-01  2.000E+01  2.000E+04 -4.373E-02
   1   16    9     1     9    9.7420E+04 -8.7264E+02   9.8293E+04  0.000E+00  0.000E+00  0.000E+00  4.45860E+01  1.428E-01  2.000E+01  2.000E+04 -4.363E-02
   1   16   10     1    10    9.8293E+04 -8.6816E+02   9.9161E+04  0.000E+00  0.000E+00  0.000E+00  4.41095E+01  1.435E-01  2.000E+01  2.000E+04 -4.341E-02
   1   16   11     1    11    9.9161E+04 -8.7933E+02   1.0004E+05  0.000E+00  0.000E+00  0.000E+00  4.36329E+01  1.443E-01  2.000E+01  2.000E+04 -4.397E-02
   1   16   12     1    12    1.0004E+05 -1.4798E+03   1.0152E+05  0.000E+00  0.000E+00  0.000E+00  4.31567E+01  1.453E-01  2.000E+01  2.000E+04 -7.399E-02
   1   15   13     1    13    1.0152E+05 -1.2583E+03   1.0278E+05  0.000E+00  0.000E+00  0.000E+00  4.26806E+01  1.465E-01  2.000E+01  2.000E+04 -6.291E-02
   1   14   14     1    14    1.0278E+05 -1.3975E+03   1.0418E+05  0.000E+00  0.000E+00  0.000E+00  4.22045E+01  1.476E-01  2.000E+01  2.000E+04 -6.987E-02
   1   13   15     1    15    1.0418E+05 -1.5262E+03   1.0570E+05  0.000E+00  0.000E+00  0.000E+00  4.17284E+01  1.489E-01  2.000E+01  2.000E+04 -7.631E-02
   1   12   16     1    16    1.0570E+05 -1.7218E+03   1.0742E+05  0.000E+00  0.000E+00  0.000E+00  4.12525E+01  1.503E-01  2.000E+01  2.000E+04 -8.609E-02
   1   12   17     1    17    1.0742E+05 -1.0092E+03   1.0843E+05  0.000E+00  0.000E+00  0.000E+00  4.07764E+01  1.514E-01  2.000E+01  2.000E+04 -5.046E-02
   1   12   18     1    18    1.0843E+05 -7.9669E+02   1.0923E+05  0.000E+00  0.000E+00  0.000E+00  4.02999E+01  1.522E-01  2.000E+01  2.000E+04 -3.983E-02
   1   12   19     1    19    1.0923E+05 -2.5550E+02   1.0949E+05  0.000E+00  0.000E+00  0.000E+00  3.98231E+01  1.526E-01  2.000E+01  2.000E+04 -1.278E-02
   1   13   20     1    20    1.0949E+05 -2.9288E+01   1.0951E+05  0.000E+00  0.000E+00  0.000E+00  3.93459E+01  1.527E-01  2.000E+01  2.000E+04 -1.464E-03
   1   14   21     1    21    1.0951E+05 -6.5959E+02   1.1017E+05  0.000E+00  0.000E+00  0.000E+00  3.88689E+01  1.530E-01  2.000E+01  2.000E+04 -3.298E-02
   1   14   22     1    22    1.1017E+05  5.2252E+03   1.0495E+05  0.000E+00  0.000E+00  0.000E+00  3.83898E+01  1.511E-01  2.000E+01  2.000E+04  2.613E-01
   1    9   30     2     1    5.0000E+04 -1.6371E+02   5.0164E+04  0.000E+00  0.000E+00  0.000E+00  4.02410E+01  1.160E-01  2.000E+01  2.000E+04 -8.186E-03
   1    9   29     2     2    5.0164E+04 -4.4670E+02   5.0610E+04  0.000E+00  0.000E+00  0.000E+00  3.99914E+01  1.164E-01  2.000E+01  2.000E+04 -2.233E-02
   1    9   28     2     3    5.0610E+04 -6.4882E+02   5.1259E+04  0.000E+00  0.000E+00  0.000E+00  3.97422E+01  1.172E-01  2.000E+01  2.000E+04 -3.244E-02
   1    9   27     2     4    5.1259E+04 -1.3858E+03   5.2645E+04  0.000E+00  0.000E+00  0.000E+00  3.94936E+01  1.186E-01  2.000E+01  2.000E+04 -6.929E-02
   1   10   26     2     5    5.2645E+04 -3.7639E+02   5.3021E+04  0.000E+00  0.000E+00  0.000E+00  3.92448E+01  1.198E-01  2.000E+01  2.000E+04 -1.882E-02
   1   11   25     2     6    5.3021E+04  3.7947E+02   5.2642E+04  0.000E+00  0.000E+00  0.000E+00  3.89948E+01  1.198E-01  2.000E+01  2.000E+04  1.897E-02
   1   12   24     2     7    5.2642E+04  1.2313E+03   5.1411E+04  0.000E+00  0.000E+00  0.000E+00  3.87437E+01  1.187E-01  2.000E+01  2.000E+04  6.157E-02
   1   13   23     2     8    5.1411E+04  2.9600E+02   5.1115E+04  0.000E+00  0.000E+00  0.000E+00  3.84926E+01  1.176E-01  2.000E+01  2.000E+04  1.480E-02
   1   14   22     2     9    5.1115E+04  2.2472E+03   4.8867E+04  0.000E+00  0.000E+00  0.000E+00  3.82409E+01  1.159E-01  2.000E+01  2.000E+04  1.124E-01
   1   14   22     3     1    1.5382E+05 -8.3004E+03   1.6212E+05  0.000E+00  0.000E+00  0.000E+00  3.77135E+01  1.579E-01  2.000E+01  2.000E+04 -4.150E-01
   1   15   23     3     2    1.6212E+05 -4.3207E+02   1.6255E+05  0.000E+00  0.000E+00  0.000E+00  3.68272E+01  1.605E-01  2.000E+01  2.000E+04 -2.160E-02
   1   15   24     3     3    1.6255E+05 -1.8565E+02   1.6273E+05  0.000E+00  0.000E+00  0.000E+00  3.59385E+01  1.607E-01  2.000E+01  2.000E+04 -9.283E-03
   1   15   25     3     4    1.6273E+05 -1.6774E+02   1.6290E+05  0.000E+00  0.000E+00  0.000E+00  3.50497E+01  1.608E-01  2.000E+01  2.000E+04 -8.387E-03
   1   15   26     3     5    1.6290E+05 -1.6936E+02   1.6307E+05  0.000E+00  0.000E+00  0.000E+00  3.41609E+01  1.609E-01  2.000E+01  2.000E+04 -8.468E-03
   1   16   27     3     6    1.6307E+05  6.2131E+00   1.6307E+05  0.000E+00  0.000E+00  0.000E+00  3.32721E+01  1.610E-01  2.000E+01  2.000E+04  3.107E-04
   1   17   28     3     7    1.6307E+05  5.6533E+03   1.5741E+05  0.000E+00  0.000E+00  0.000E+00  3.23815E+01  1.593E-01  2.000E+01  2.000E+04  2.827E-01
   1   18   29     3     8    1.5741E+05  2.3011E+04   1.3440E+05  0.000E+00  0.000E+00  0.000E+00  3.14839E+01  1.506E-01  2.000E+01  2.000E+04  1.151E+00
   1   18   30     3     9    1.3440E+05  8.0575E+03   1.2634E+05  0.000E+00  0.000E+00  0.000E+00  3.05852E+01  1.407E-01  2.000E+01  2.000E+04  4.029E-01



1
              HEAD IN LAYER   1 AT END OF TIME STEP   1 IN STRESS PERIOD   11
  ---------------------------------------------------------------------------

          1      2      3      4      5      6      7      8      9     10
         11     12     13     14     15     16     17     18     19     20
         21     22     23     24     25     26     27     28     29     30
 .........................................................................
   1  ****** ****** ****** ****** ****** ****** ****** ****** ****** ******
      ****** ****** ****** ****** ****** ****** ****** ****** ****** ******
      ****** ****** ****** ****** ****** ****** ****** ****** ****** ******
   2  ****** ****** ****** ****** ****** ****** ****** ****** ****** ******
      ****** ****** ****** ****** ****** ****** ****** ****** ****** ******
      ****** ****** ****** ****** ****** ****** ****** ****** ****** ******
   3  ****** ****** ****** ****** ****** ****** ****** ****** ****** ******
      ****** ****** ****** ****** ****** ****** ****** ****** ****** ******
      ****** ****** ****** ****** ****** ****** ****** ****** ****** ******
   4  ****** ****** ****** ****** ****** ****** ****** ****** ****** ******
      ****** ****** ****** ****** ****** ****** ****** ****** ****** ******
      ****** ****** ****** ****** ****** ****** ****** ****** ****** ******
   5  ****** ****** ****** ****** ****** ****** ****** ****** ****** ******
      ****** ****** ****** ****** ****** ****** ****** ****** ****** ******
      ****** ****** ****** ****** ****** ****** ****** ****** ****** ******
   6  ****** ****** ****** ****** ****** ****** ****** ****** ****** ******
      ****** ****** ****** ****** ****** ****** ****** ****** ****** ******
      ****** ****** ****** ****** ****** ****** ****** ****** ****** ******
   7  ****** ****** ****** ****** ****** ****** ****** ****** ****** ******
      ****** ****** ****** ****** ****** ****** ****** ****** ****** ******
      ****** ****** ****** ****** ****** ****** ****** ****** ****** ******
   8  ****** ****** ****** ****** ****** ****** ****** ****** ****** ******
      ****** ****** ****** ****** ****** ****** ****** ****** ****** ******
      ****** ****** ****** ****** ****** ****** ****** ****** ****** ******
   9  ****** ****** ****** ****** ****** ****** ****** ****** ****** ******
      ****** ****** ****** ****** ****** ****** ****** ****** ****** ******
      ****** ****** ****** ****** ****** ****** ****** ****** ****** ******
  10  ****** ****** ****** ****** ****** ****** ****** ****** ****** ******
      ****** ****** ****** ****** ****** ****** ****** ****** ****** ******
      ****** ****** ****** ****** ****** ****** ****** ****** ****** ******
  11  ****** ****** ****** ****** ****** ****** ****** ****** ****** ******
      ****** ****** ****** ****** ****** ****** ****** ****** ****** ******
      ****** ****** ****** ****** ****** ****** ****** ****** ****** ******
  12  ****** ****** ****** ****** ****** ****** ****** ****** ****** ******
      ****** ****** ****** ****** ****** ****** ****** ****** ****** ******
      ****** ****** ****** ****** ****** ****** ****** ****** ****** ******
  13  ****** ****** ****** ****** ****** ****** ****** ****** ****** ******
      ****** ****** ****** ****** ****** ****** ****** ****** ****** ******
      ****** ****** ****** ****** ****** ****** ****** ****** ****** ******
  14  ****** ****** ****** ****** ****** ****** ****** ****** ****** ******
      ****** ****** ****** ****** ****** ****** ****** ****** ****** ******
      ****** ****** ****** ****** ****** ****** ****** ****** ****** ******
  15  ****** ****** ****** ****** ****** ****** ****** ****** ****** ******
      ****** ****** ****** ****** ****** ****** ****** ****** ****** ******
      ****** ****** ****** ****** ****** ****** ****** ****** ****** ******
  16  ****** ****** ****** ****** ****** ****** ****** ****** ****** ******
      ****** ****** ****** ****** ****** ****** ****** ****** ****** ******
      ****** ****** ****** ****** ****** ****** ****** ****** ****** ******
  17  ****** ****** ****** ****** ****** ****** ****** ****** ****** ******
      ****** ****** ****** ****** ****** ****** ****** ****** ****** ******
      ****** ****** ****** ****** ****** ****** ****** ****** ****** ******
  18  ****** ****** ****** ****** ****** ****** ****** ****** ****** ******
      ****** ****** ****** ****** ****** ****** ****** ****** ****** ******
      ****** ****** ****** ****** ****** ****** ****** ****** ****** ******
  19  ****** ****** ****** ****** ****** ****** ****** ****** ****** ******
      ****** ****** ****** ****** ****** ****** ****** ****** ****** ******
      ****** ****** ****** ****** ****** ****** ****** ****** ****** ******
  20  ****** ****** ****** ****** ****** ****** ****** ****** ****** ******
      ****** ****** ****** ****** ****** ****** ****** ****** ****** ******
      ****** ****** ****** ****** ****** ****** ****** ****** ****** ******
  21  ****** ****** ****** ****** ****** ****** ****** ****** ****** ******
      ****** ****** ****** ****** ****** ****** ****** ****** ****** ******
      ****** ****** ****** ****** ****** ****** ****** ****** ****** ******
  22  ****** ****** ****** ****** ****** ****** ****** ****** ****** ******
      ****** ****** ****** ****** ****** ****** ****** ****** ****** ******
      ****** ****** ****** ****** ****** ****** ****** ****** ****** ******
  23  ****** ****** ****** ****** ****** ****** ****** ****** ****** ******
      ****** ****** ****** ****** ****** ****** ****** ****** ****** ******
      ****** ****** ****** ****** ****** ****** ****** ****** ****** ******
  24  ****** ****** ****** ****** ****** ****** ****** ****** ****** ******
      ****** ****** ****** ****** ****** ****** ****** ****** ****** ******
      ****** ****** ****** ****** ****** ****** ****** ****** ****** ******
  25  ****** ****** ****** ****** ****** ****** ****** ****** ****** ******
      ****** ****** ****** ****** ****** ****** ****** ****** ****** ******
      ****** ****** ****** ****** ****** ****** ****** ****** ****** ******

 HEAD WILL BE SAVED ON UNIT   51 AT END OF TIME STEP    1, STRESS PERIOD   11
1
  VOLUMETRIC BUDGET FOR ENTIRE MODEL AT END OF TIME STEP    1, STRESS PERIOD  11
  ------------------------------------------------------------------------------

     CUMULATIVE VOLUMES      L**3       RATES FOR THIS TIME STEP      L**3/T
     ------------------                 ------------------------

           IN:                                      IN:
           ---                                      ---
             STORAGE =    35482061.4530               STORAGE =       18066.2307
       CONSTANT HEAD =    28505029.2998         CONSTANT HEAD =       34743.7264
               WELLS =           0.0000                 WELLS =           0.0000
            RECHARGE =    23901600.0000              RECHARGE =           0.0000
      STREAM LEAKAGE =    52649777.3309        STREAM LEAKAGE =       56839.1218

            TOTAL IN =   140538468.0837              TOTAL IN =      109649.0789

          OUT:                                     OUT:
          ----                                     ----
             STORAGE =     2363823.1873               STORAGE =           0.0000
       CONSTANT HEAD =           0.0000         CONSTANT HEAD =           0.0000
               WELLS =    76772797.6503                 WELLS =       76466.9299
            RECHARGE =           0.0000              RECHARGE =           0.0000
      STREAM LEAKAGE =    61401849.0040        STREAM LEAKAGE =       33182.1517

           TOTAL OUT =   140538469.8417             TOTAL OUT =      109649.0817

            IN - OUT =          -1.7579              IN - OUT =      -2.7167E-03

 PERCENT DISCREPANCY =          -0.00     PERCENT DISCREPANCY =          -0.00






         TIME SUMMARY AT END OF TIME STEP    1 IN STRESS PERIOD   11
                    SECONDS     MINUTES      HOURS       DAYS        YEARS
                    -----------------------------------------------------------
   TIME STEP LENGTH 7.86240E+06 1.31040E+05  2184.0      91.000     0.24914    
 STRESS PERIOD TIME 7.86240E+06 1.31040E+05  2184.0      91.000     0.24914    
         TOTAL TIME 8.67456E+07 1.44576E+06  24096.      1004.0      2.7488    
1
1
                            STRESS PERIOD NO.   12, LENGTH =   91.00000    
                            -----------------------------------------------

                              NUMBER OF TIME STEPS =     1

                               MULTIPLIER FOR DELT =     1.500

                            INITIAL TIME STEP SIZE =   91.00000    

 WELL NO.  LAYER   ROW   COL   STRESS RATE         
 --------------------------------------------------
      1      1     14      6       0.000    
      2      1      3      9       0.000    
      3      1     20     10       0.000    
      4      1     14     20       0.000    
      5      1     15      4     -0.1117E+05
      6      1     11     22     -0.1086E+05
      7      1     18     29     -0.4636E+05
      8      1      5     18      -8080.    

      8 WELLS

                 RECHARGE =  1.000000E-03

 REUSING STREAM SEGMENT DATA FROM LAST STRESS PERIOD
 
 SOLVING FOR HEAD 


     7 CALLS TO PCG ROUTINE FOR TIME STEP   1 IN STRESS PERIOD   12
    29 TOTAL ITERATIONS

 OUTPUT CONTROL FOR STRESS PERIOD   12   TIME STEP    1
    SAVE BUDGET
    SAVE HEAD FOR ALL LAYERS
    PRINT HEAD FOR ALL LAYERS
 UBDSV2 SAVING "STREAMFLOW OUT  " ON UNIT  50 AT TIME STEP  1, STRESS PERIOD  12



 STREAM LISTING     PERIOD     12   STEP        1

 LAYER ROW COL. STREAM  RCH.  FLOW INTO     FLOW TO   FLOW OUT OF   OVRLND.     DIRECT     STREAM       STREAM     STREAM     STREAM   STREAMBED  STREAMBED
                SEG.NO.  NO.  STRM. RCH.    AQUIFER    STRM. RCH.    RUNOFF     PRECIP       ET          HEAD       DEPTH      WIDTH   CONDCTNC.   GRADIENT

   1   13    1     1     1    1.0000E+05 -1.5978E+03   1.0160E+05  0.000E+00  0.000E+00  0.000E+00  4.84067E+01  1.453E-01  2.000E+01  2.000E+04 -7.989E-02
   1   13    2     1     2    1.0160E+05 -2.5249E+03   1.0412E+05  0.000E+00  0.000E+00  0.000E+00  4.79312E+01  1.471E-01  2.000E+01  2.000E+04 -1.262E-01
   1   14    3     1     3    1.0412E+05 -4.1521E+02   1.0454E+05  0.000E+00  0.000E+00  0.000E+00  4.74552E+01  1.484E-01  2.000E+01  2.000E+04 -2.076E-02
   1   15    4     1     4    1.0454E+05  1.0649E+04   9.3889E+04  0.000E+00  0.000E+00  0.000E+00  4.69735E+01  1.440E-01  2.000E+01  2.000E+04  5.325E-01
   1   16    5     1     5    9.3889E+04 -1.5716E+03   9.5460E+04  0.000E+00  0.000E+00  0.000E+00  4.64923E+01  1.400E-01  2.000E+01  2.000E+04 -7.858E-02
   1   16    6     1     6    9.5460E+04 -1.0113E+03   9.6472E+04  0.000E+00  0.000E+00  0.000E+00  4.60161E+01  1.411E-01  2.000E+01  2.000E+04 -5.056E-02
   1   16    7     1     7    9.6472E+04 -9.9819E+02   9.7470E+04  0.000E+00  0.000E+00  0.000E+00  4.55397E+01  1.420E-01  2.000E+01  2.000E+04 -4.991E-02
   1   16    8     1     8    9.7470E+04 -9.9876E+02   9.8469E+04  0.000E+00  0.000E+00  0.000E+00  4.50633E+01  1.429E-01  2.000E+01  2.000E+04 -4.994E-02
   1   16    9     1     9    9.8469E+04 -9.9730E+02   9.9466E+04  0.000E+00  0.000E+00  0.000E+00  4.45869E+01  1.438E-01  2.000E+01  2.000E+04 -4.987E-02
   1   16   10     1    10    9.9466E+04 -9.9414E+02   1.0046E+05  0.000E+00  0.000E+00  0.000E+00  4.41105E+01  1.446E-01  2.000E+01  2.000E+04 -4.971E-02
   1   16   11     1    11    1.0046E+05 -1.0075E+03   1.0147E+05  0.000E+00  0.000E+00  0.000E+00  4.36341E+01  1.455E-01  2.000E+01  2.000E+04 -5.038E-02
   1   16   12     1    12    1.0147E+05 -1.6812E+03   1.0315E+05  0.000E+00  0.000E+00  0.000E+00  4.31580E+01  1.466E-01  2.000E+01  2.000E+04 -8.406E-02
   1   15   13     1    13    1.0315E+05 -1.4749E+03   1.0462E+05  0.000E+00  0.000E+00  0.000E+00  4.26821E+01  1.480E-01  2.000E+01  2.000E+04 -7.374E-02
   1   14   14     1    14    1.0462E+05 -1.6146E+03   1.0624E+05  0.000E+00  0.000E+00  0.000E+00  4.22061E+01  1.493E-01  2.000E+01  2.000E+04 -8.073E-02
   1   13   15     1    15    1.0624E+05 -1.7360E+03   1.0797E+05  0.000E+00  0.000E+00  0.000E+00  4.17303E+01  1.507E-01  2.000E+01  2.000E+04 -8.680E-02
   1   12   16     1    16    1.0797E+05 -1.9050E+03   1.0988E+05  0.000E+00  0.000E+00  0.000E+00  4.12545E+01  1.523E-01  2.000E+01  2.000E+04 -9.525E-02
   1   12   17     1    17    1.0988E+05 -1.1625E+03   1.1104E+05  0.000E+00  0.000E+00  0.000E+00  4.07785E+01  1.535E-01  2.000E+01  2.000E+04 -5.813E-02
   1   12   18     1    18    1.1104E+05 -9.5218E+02   1.1199E+05  0.000E+00  0.000E+00  0.000E+00  4.03022E+01  1.544E-01  2.000E+01  2.000E+04 -4.761E-02
   1   12   19     1    19    1.1199E+05 -4.4778E+02   1.1244E+05  0.000E+00  0.000E+00  0.000E+00  3.98255E+01  1.550E-01  2.000E+01  2.000E+04 -2.239E-02
   1   13   20     1    20    1.1244E+05 -2.3942E+02   1.1268E+05  0.000E+00  0.000E+00  0.000E+00  3.93485E+01  1.553E-01  2.000E+01  2.000E+04 -1.197E-02
   1   14   21     1    21    1.1268E+05 -8.5323E+02   1.1353E+05  0.000E+00  0.000E+00  0.000E+00  3.88717E+01  1.557E-01  2.000E+01  2.000E+04 -4.266E-02
   1   14   22     1    22    1.1353E+05  5.1725E+03   1.0836E+05  0.000E+00  0.000E+00  0.000E+00  3.83926E+01  1.540E-01  2.000E+01  2.000E+04  2.586E-01
   1    9   30     2     1    5.0000E+04 -3.4005E+02   5.0340E+04  0.000E+00  0.000E+00  0.000E+00  4.02411E+01  1.161E-01  2.000E+01  2.000E+04 -1.700E-02
   1    9   29     2     2    5.0340E+04 -6.2098E+02   5.0961E+04  0.000E+00  0.000E+00  0.000E+00  3.99918E+01  1.168E-01  2.000E+01  2.000E+04 -3.105E-02
   1    9   28     2     3    5.0961E+04 -8.1958E+02   5.1781E+04  0.000E+00  0.000E+00  0.000E+00  3.97428E+01  1.178E-01  2.000E+01  2.000E+04 -4.098E-02
   1    9   27     2     4    5.1781E+04 -1.5948E+03   5.3375E+04  0.000E+00  0.000E+00  0.000E+00  3.94944E+01  1.194E-01  2.000E+01  2.000E+04 -7.974E-02
   1   10   26     2     5    5.3375E+04 -6.0605E+02   5.3981E+04  0.000E+00  0.000E+00  0.000E+00  3.92459E+01  1.209E-01  2.000E+01  2.000E+04 -3.030E-02
   1   11   25     2     6    5.3981E+04  1.5370E+02   5.3828E+04  0.000E+00  0.000E+00  0.000E+00  3.89962E+01  1.212E-01  2.000E+01  2.000E+04  7.685E-03
   1   12   24     2     7    5.3828E+04  1.0253E+03   5.2803E+04  0.000E+00  0.000E+00  0.000E+00  3.87454E+01  1.204E-01  2.000E+01  2.000E+04  5.126E-02
   1   13   23     2     8    5.2803E+04  2.1839E+02   5.2584E+04  0.000E+00  0.000E+00  0.000E+00  3.84946E+01  1.196E-01  2.000E+01  2.000E+04  1.092E-02
   1   14   22     2     9    5.2584E+04  2.1793E+03   5.0405E+04  0.000E+00  0.000E+00  0.000E+00  3.82429E+01  1.179E-01  2.000E+01  2.000E+04  1.090E-01
   1   14   22     3     1    1.5877E+05 -8.3505E+03   1.6712E+05  0.000E+00  0.000E+00  0.000E+00  3.77164E+01  1.609E-01  2.000E+01  2.000E+04 -4.175E-01
   1   15   23     3     2    1.6712E+05 -5.0398E+02   1.6762E+05  0.000E+00  0.000E+00  0.000E+00  3.68302E+01  1.635E-01  2.000E+01  2.000E+04 -2.520E-02
   1   15   24     3     3    1.6762E+05 -2.5064E+02   1.6787E+05  0.000E+00  0.000E+00  0.000E+00  3.59415E+01  1.637E-01  2.000E+01  2.000E+04 -1.253E-02
   1   15   25     3     4    1.6787E+05 -2.3398E+02   1.6811E+05  0.000E+00  0.000E+00  0.000E+00  3.50527E+01  1.639E-01  2.000E+01  2.000E+04 -1.170E-02
   1   15   26     3     5    1.6811E+05 -2.4676E+02   1.6835E+05  0.000E+00  0.000E+00  0.000E+00  3.41640E+01  1.640E-01  2.000E+01  2.000E+04 -1.234E-02
   1   16   27     3     6    1.6835E+05 -8.1324E+01   1.6843E+05  0.000E+00  0.000E+00  0.000E+00  3.32752E+01  1.641E-01  2.000E+01  2.000E+04 -4.066E-03
   1   17   28     3     7    1.6843E+05  5.3746E+03   1.6306E+05  0.000E+00  0.000E+00  0.000E+00  3.23848E+01  1.625E-01  2.000E+01  2.000E+04  2.687E-01
   1   18   29     3     8    1.6306E+05  2.3080E+04   1.3998E+05  0.000E+00  0.000E+00  0.000E+00  3.14874E+01  1.540E-01  2.000E+01  2.000E+04  1.154E+00
   1   18   30     3     9    1.3998E+05  7.7867E+03   1.3219E+05  0.000E+00  0.000E+00  0.000E+00  3.05889E+01  1.444E-01  2.000E+01  2.000E+04  3.893E-01



1
              HEAD IN LAYER   1 AT END OF TIME STEP   1 IN STRESS PERIOD   12
  ---------------------------------------------------------------------------

          1      2      3      4      5      6      7      8      9     10
         11     12     13     14     15     16     17     18     19     20
         21     22     23     24     25     26     27     28     29     30
 .........................................................................
   1  ****** ****** ****** ****** ****** ****** ****** ****** ****** ******
      ****** ****** ****** ****** ****** ****** ****** ****** ****** ******
      ****** ****** ****** ****** ****** ****** ****** ****** ****** ******
   2  ****** ****** ****** ****** ****** ****** ****** ****** ****** ******
      ****** ****** ****** ****** ****** ****** ****** ****** ****** ******
      ****** ****** ****** ****** ****** ****** ****** ****** ****** ******
   3  ****** ****** ****** ****** ****** ****** ****** ****** ****** ******
      ****** ****** ****** ****** ****** ****** ****** ****** ****** ******
      ****** ****** ****** ****** ****** ****** ****** ****** ****** ******
   4  ****** ****** ****** ****** ****** ****** ****** ****** ****** ******
      ****** ****** ****** ****** ****** ****** ****** ****** ****** ******
      ****** ****** ****** ****** ****** ****** ****** ****** ****** ******
   5  ****** ****** ****** ****** ****** ****** ****** ****** ****** ******
      ****** ****** ****** ****** ****** ****** ****** ****** ****** ******
      ****** ****** ****** ****** ****** ****** ****** ****** ****** ******
   6  ****** ****** ****** ****** ****** ****** ****** ****** ****** ******
      ****** ****** ****** ****** ****** ****** ****** ****** ****** ******
      ****** ****** ****** ****** ****** ****** ****** ****** ****** ******
   7  ****** ****** ****** ****** ****** ****** ****** ****** ****** ******
      ****** ****** ****** ****** ****** ****** ****** ****** ****** ******
      ****** ****** ****** ****** ****** ****** ****** ****** ****** ******
   8  ****** ****** ****** ****** ****** ****** ****** ****** ****** ******
      ****** ****** ****** ****** ****** ****** ****** ****** ****** ******
      ****** ****** ****** ****** ****** ****** ****** ****** ****** ******
   9  ****** ****** ****** ****** ****** ****** ****** ****** ****** ******
      ****** ****** ****** ****** ****** ****** ****** ****** ****** ******
      ****** ****** ****** ****** ****** ****** ****** ****** ****** ******
  10  ****** ****** ****** ****** ****** ****** ****** ****** ****** ******
      ****** ****** ****** ****** ****** ****** ****** ****** ****** ******
      ****** ****** ****** ****** ****** ****** ****** ****** ****** ******
  11  ****** ****** ****** ****** ****** ****** ****** ****** ****** ******
      ****** ****** ****** ****** ****** ****** ****** ****** ****** ******
      ****** ****** ****** ****** ****** ****** ****** ****** ****** ******
  12  ****** ****** ****** ****** ****** ****** ****** ****** ****** ******
      ****** ****** ****** ****** ****** ****** ****** ****** ****** ******
      ****** ****** ****** ****** ****** ****** ****** ****** ****** ******
  13  ****** ****** ****** ****** ****** ****** ****** ****** ****** ******
      ****** ****** ****** ****** ****** ****** ****** ****** ****** ******
      ****** ****** ****** ****** ****** ****** ****** ****** ****** ******
  14  ****** ****** ****** ****** ****** ****** ****** ****** ****** ******
      ****** ****** ****** ****** ****** ****** ****** ****** ****** ******
      ****** ****** ****** ****** ****** ****** ****** ****** ****** ******
  15  ****** ****** ****** ****** ****** ****** ****** ****** ****** ******
      ****** ****** ****** ****** ****** ****** ****** ****** ****** ******
      ****** ****** ****** ****** ****** ****** ****** ****** ****** ******
  16  ****** ****** ****** ****** ****** ****** ****** ****** ****** ******
      ****** ****** ****** ****** ****** ****** ****** ****** ****** ******
      ****** ****** ****** ****** ****** ****** ****** ****** ****** ******
  17  ****** ****** ****** ****** ****** ****** ****** ****** ****** ******
      ****** ****** ****** ****** ****** ****** ****** ****** ****** ******
      ****** ****** ****** ****** ****** ****** ****** ****** ****** ******
  18  ****** ****** ****** ****** ****** ****** ****** ****** ****** ******
      ****** ****** ****** ****** ****** ****** ****** ****** ****** ******
      ****** ****** ****** ****** ****** ****** ****** ****** ****** ******
  19  ****** ****** ****** ****** ****** ****** ****** ****** ****** ******
      ****** ****** ****** ****** ****** ****** ****** ****** ****** ******
      ****** ****** ****** ****** ****** ****** ****** ****** ****** ******
  20  ****** ****** ****** ****** ****** ****** ****** ****** ****** ******
      ****** ****** ****** ****** ****** ****** ****** ****** ****** ******
      ****** ****** ****** ****** ****** ****** ****** ****** ****** ******
  21  ****** ****** ****** ****** ****** ****** ****** ****** ****** ******
      ****** ****** ****** ****** ****** ****** ****** ****** ****** ******
      ****** ****** ****** ****** ****** ****** ****** ****** ****** ******
  22  ****** ****** ****** ****** ****** ****** ****** ****** ****** ******
      ****** ****** ****** ****** ****** ****** ****** ****** ****** ******
      ****** ****** ****** ****** ****** ****** ****** ****** ****** ******
  23  ****** ****** ****** ****** ****** ****** ****** ****** ****** ******
      ****** ****** ****** ****** ****** ****** ****** ****** ****** ******
      ****** ****** ****** ****** ****** ****** ****** ****** ****** ******
  24  ****** ****** ****** ****** ****** ****** ****** ****** ****** ******
      ****** ****** ****** ****** ****** ****** ****** ****** ****** ******
      ****** ****** ****** ****** ****** ****** ****** ****** ****** ******
  25  ****** ****** ****** ****** ****** ****** ****** ****** ****** ******
      ****** ****** ****** ****** ****** ****** ****** ****** ****** ******
      ****** ****** ****** ****** ****** ****** ****** ****** ****** ******

 HEAD WILL BE SAVED ON UNIT   51 AT END OF TIME STEP    1, STRESS PERIOD   12
1
  VOLUMETRIC BUDGET FOR ENTIRE MODEL AT END OF TIME STEP    1, STRESS PERIOD  12
  ------------------------------------------------------------------------------

     CUMULATIVE VOLUMES      L**3       RATES FOR THIS TIME STEP      L**3/T
     ------------------                 ------------------------

           IN:                                      IN:
           ---                                      ---
             STORAGE =    35483194.2789               STORAGE =          12.4486
       CONSTANT HEAD =    31603707.3553         CONSTANT HEAD =       34051.4072
               WELLS =           0.0000                 WELLS =           0.0000
            RECHARGE =    26413200.0000              RECHARGE =       27600.0000
      STREAM LEAKAGE =    57713018.1864        STREAM LEAKAGE =       55640.0094

            TOTAL IN =   151213119.8206              TOTAL IN =      117303.8652

          OUT:                                     OUT:
          ----                                     ----
             STORAGE =     2637262.4613               STORAGE =        3004.8272
       CONSTANT HEAD =           0.0000         CONSTANT HEAD =           0.0000
               WELLS =    83731288.2740                 WELLS =       76466.9299
            RECHARGE =           0.0000              RECHARGE =           0.0000
      STREAM LEAKAGE =    64844570.6229        STREAM LEAKAGE =       37832.1057

           TOTAL OUT =   151213121.3582             TOTAL OUT =      117303.8628

            IN - OUT =          -1.5376              IN - OUT =       2.4212E-03

 PERCENT DISCREPANCY =          -0.00     PERCENT DISCREPANCY =           0.00






         TIME SUMMARY AT END OF TIME STEP    1 IN STRESS PERIOD   12
                    SECONDS     MINUTES      HOURS       DAYS        YEARS
                    -----------------------------------------------------------
   TIME STEP LENGTH 7.86240E+06 1.31040E+05  2184.0      91.000     0.24914    
 STRESS PERIOD TIME 7.86240E+06 1.31040E+05  2184.0      91.000     0.24914    
         TOTAL TIME 9.46080E+07 1.57680E+06  26280.      1095.0      2.9979    
1

 Run end date and time (yyyy/mm/dd hh:mm:ss): 2019/02/10 22:13:51
 Elapsed run time:  0.084 Seconds

