                                  MODFLOW-2005     
      U.S. GEOLOGICAL SURVEY MODULAR FINITE-DIFFERENCE GROUND-WATER FLOW MODEL
                            VERSION 1.11.00 8/8/2013

 LIST FILE: supply2.lst
                         UNIT   10

 OPENING ..\data\supply.dis
 FILE TYPE:DIS   UNIT   11   STATUS:OLD    
 FORMAT:FORMATTED              ACCESS:SEQUENTIAL          

 OPENING ..\data\supply.ba6
 FILE TYPE:BAS6   UNIT   12   STATUS:OLD    
 FORMAT:FORMATTED              ACCESS:SEQUENTIAL          

 OPENING ..\data\supply_het.bc6
 FILE TYPE:BCF6   UNIT   13   STATUS:OLD    
 FORMAT:FORMATTED              ACCESS:SEQUENTIAL          

 OPENING ..\data\supply.rch
 FILE TYPE:RCH   UNIT   15   STATUS:OLD    
 FORMAT:FORMATTED              ACCESS:SEQUENTIAL          

 OPENING ..\data\supply2.sfr
 FILE TYPE:SFR   UNIT   16   STATUS:OLD    
 FORMAT:FORMATTED              ACCESS:SEQUENTIAL          

 OPENING ..\data\supply.oc
 FILE TYPE:OC   UNIT   17   STATUS:OLD    
 FORMAT:FORMATTED              ACCESS:SEQUENTIAL          

 OPENING ..\data\supply.pcg
 FILE TYPE:PCG   UNIT   18   STATUS:OLD    
 FORMAT:FORMATTED              ACCESS:SEQUENTIAL          

 OPENING supply2.wel
 FILE TYPE:WEL   UNIT   19   STATUS:OLD    
 FORMAT:FORMATTED              ACCESS:SEQUENTIAL          

 OPENING supply2sf.cbc
 FILE TYPE:DATA(BINARY)   UNIT   50   STATUS:UNKNOWN
 FORMAT:BINARY                 ACCESS:SEQUENTIAL          

 OPENING supply2hd.bhd
 FILE TYPE:DATA(BINARY)   UNIT   51   STATUS:UNKNOWN
 FORMAT:BINARY                 ACCESS:SEQUENTIAL          

 BAS -- BASIC PACKAGE, VERSION 7, 5/2/2005 INPUT READ FROM UNIT   12
 
 MODFLOW was compiled using uniform precision
 Precision of REAL and DOUBLE PRECISION variables:          15

 DISCRETIZATION INPUT DATA READ FROM UNIT   11
    1 LAYERS        25 ROWS        30 COLUMNS
   12 STRESS PERIOD(S) IN SIMULATION
 MODEL TIME UNIT IS DAYS
 MODEL LENGTH UNIT IS UNDEFINED
  Confining bed flag for each layer:
   0

                     DELR =   200.000    

                     DELC =   200.000    

 TOP ELEVATION OF LAYER 1 =  100.0000    

   MODEL LAYER BOTTOM EL. =   0.00000     FOR LAYER   1


 STRESS PERIOD     LENGTH       TIME STEPS     MULTIPLIER FOR DELT    SS FLAG
 ----------------------------------------------------------------------------
        1         92.00000          1                    1.500         TR
        2         91.00000          1                    1.500         TR
        3         91.00000          1                    1.500         TR
        4         91.00000          1                    1.500         TR
        5         92.00000          1                    1.500         TR
        6         91.00000          1                    1.500         TR
        7         91.00000          1                    1.500         TR
        8         91.00000          1                    1.500         TR
        9         92.00000          1                    1.500         TR
       10         91.00000          1                    1.500         TR
       11         91.00000          1                    1.500         TR
       12         91.00000          1                    1.500         TR

 TRANSIENT SIMULATION



 
 #MODOFC transient water supply sample problem                                   
 #                                                                               
 THE FREE FORMAT OPTION HAS BEEN SELECTED



                     BOUNDARY ARRAY FOR LAYER   1
 READING ON UNIT   12 WITH FORMAT: (20I4)              

 AQUIFER HEAD WILL BE SET TO   0.0000     AT ALL NO-FLOW NODES (IBOUND=0).



                       INITIAL HEAD FOR LAYER   1
 READING ON UNIT   12 WITH FORMAT: (10F13.0)           

 OUTPUT CONTROL IS SPECIFIED ONLY AT TIME STEPS FOR WHICH OUTPUT IS DESIRED
 COMPACT CELL-BY-CELL BUDGET FILES WILL BE WRITTEN
 HEAD PRINT FORMAT CODE IS  18    DRAWDOWN PRINT FORMAT CODE IS   0
 HEADS WILL BE SAVED ON UNIT   51    DRAWDOWNS WILL BE SAVED ON UNIT    0

 BCF -- BLOCK-CENTERED FLOW PACKAGE, VERSION 7, 5/2/2005
         INPUT READ FROM UNIT 13
 TRANSIENT SIMULATION
 HEAD AT CELLS THAT CONVERT TO DRY=   0.0000    
 WETTING CAPABILITY IS NOT ACTIVE
      LAYER  LAYER-TYPE CODE     INTERBLOCK T
      --------------------------------------------
         1            0          0 -- HARMONIC    

 COLUMN TO ROW ANISOTROPY =  1.000000    

     PRIMARY STORAGE COEF =  5.000000E-02 FOR LAYER   1



               TRANSMIS. ALONG ROWS FOR LAYER   1
 READING ON UNIT   13 WITH FORMAT: (FREE)              

 WEL -- WELL PACKAGE, VERSION 7, 5/2/2005 INPUT READ FROM UNIT   19
 # Well package input file written by MMProc
 No named parameters
 MAXIMUM OF      8 ACTIVE WELLS AT ONE TIME


     0 Well parameters

 RCH -- RECHARGE PACKAGE, VERSION 7, 5/2/2005 INPUT READ FROM UNIT   15
 No named parameters
 OPTION 1 -- RECHARGE TO TOP LAYER


     0 Recharge parameters

 SFR7 -- STREAMFLOW ROUTING PACKAGE, VERSION 1.0.7, 2013-01-15
         INPUT READ FROM UNIT  16
 #  Supply2 test problem for GWM-VI
 #  The eighth entry in the first data line is ISTCB2 -
 #    Setting this to a negative number indicates that
 #    streamflows out of the reach will be saved to a
 #    binary file.  The absolute value of ISTCB2 is the
 #    unit to which unformatted flows will be written.
 #
 No named parameters
 Segment information will not be 
 read by reach
 No named parameters
 No specifed inflow files


 NUMBER OF STREAM REACHES IS   40

 NUMBER OF STREAM SEGMENTS IS    3

 NUMBER OF STREAM PARAMETERS IS    0

 NUMBER OF STREAM SEGMENTS DEFINED USING PARAMETERS IS              0

 MAXIMUM ERROR FOR STREAM LEAKAGE RATES IS  1.00E-04

 CONSTANT FOR MANNINGS EQUATION IS  1.2839E+05





   STREAM NETWORK DESCRIPTION: 

   LAYER    ROW    COL   SEGMENT   REACH     LENGTH
                          NUMBER   NUMBER    IN CELL        
   --------------------------------------------------
      1     13      1       1        1    2.0000E+02
      1     13      2       1        2    2.0000E+02
      1     14      3       1        3    2.0000E+02
      1     15      4       1        4    2.0000E+02
      1     16      5       1        5    2.0000E+02
      1     16      6       1        6    2.0000E+02
      1     16      7       1        7    2.0000E+02
      1     16      8       1        8    2.0000E+02
      1     16      9       1        9    2.0000E+02
      1     16     10       1       10    2.0000E+02
      1     16     11       1       11    2.0000E+02
      1     16     12       1       12    2.0000E+02
      1     15     13       1       13    2.0000E+02
      1     14     14       1       14    2.0000E+02
      1     13     15       1       15    2.0000E+02
      1     12     16       1       16    2.0000E+02
      1     12     17       1       17    2.0000E+02
      1     12     18       1       18    2.0000E+02
      1     12     19       1       19    2.0000E+02
      1     13     20       1       20    2.0000E+02
      1     14     21       1       21    2.0000E+02
      1     14     22       1       22    2.0000E+02
      1      9     30       2        1    2.0000E+02
      1      9     29       2        2    2.0000E+02
      1      9     28       2        3    2.0000E+02
      1      9     27       2        4    2.0000E+02
      1     10     26       2        5    2.0000E+02
      1     11     25       2        6    2.0000E+02
      1     12     24       2        7    2.0000E+02
      1     13     23       2        8    2.0000E+02
      1     14     22       2        9    2.0000E+02
      1     14     22       3        1    2.0000E+02
      1     15     23       3        2    2.0000E+02
      1     15     24       3        3    2.0000E+02
      1     15     25       3        4    2.0000E+02
      1     15     26       3        5    2.0000E+02
      1     16     27       3        6    2.0000E+02
      1     17     28       3        7    2.0000E+02
      1     18     29       3        8    2.0000E+02
      1     18     30       3        9    2.0000E+02




 PCG -- CONJUGATE-GRADIENT SOLUTION PACKAGE, VERSION 7, 5/2/2005
 MAXIMUM OF    500 CALLS OF SOLUTION ROUTINE
 MAXIMUM OF      5 INTERNAL ITERATIONS PER CALL TO SOLUTION ROUTINE
 MATRIX PRECONDITIONING TYPE :    1



                                    SOLUTION BY THE CONJUGATE-GRADIENT METHOD
                                   -------------------------------------------
                    MAXIMUM NUMBER OF CALLS TO PCG ROUTINE =      500
                        MAXIMUM ITERATIONS PER CALL TO PCG =        5
                               MATRIX PRECONDITIONING TYPE =        1
        RELAXATION FACTOR (ONLY USED WITH PRECOND. TYPE 1) =    0.10000E+01
 PARAMETER OF POLYNOMIAL PRECOND. = 2 (2) OR IS CALCULATED :        0
                         HEAD CHANGE CRITERION FOR CLOSURE =    0.10000E-05
                     RESIDUAL CHANGE CRITERION FOR CLOSURE =    0.10000E+01
            PCG HEAD AND RESIDUAL CHANGE PRINTOUT INTERVAL =        1
     PRINTING FROM SOLVER IS LIMITED(1) OR SUPPRESSED (>1) =        1
                            STEADY-STATE DAMPING PARAMETER =    0.10000E+01
                               TRANSIENT DAMPING PARAMETER =    0.10000E+01
1
                            STRESS PERIOD NO.    1, LENGTH =   92.00000    
                            -----------------------------------------------

                              NUMBER OF TIME STEPS =     1

                               MULTIPLIER FOR DELT =     1.500

                            INITIAL TIME STEP SIZE =   92.00000    

 WELL NO.  LAYER   ROW   COL   STRESS RATE         
 --------------------------------------------------
      1      1     14      6       0.000    
      2      1      3      9       0.000    
      3      1     20     10       0.000    
      4      1     14     20       0.000    
      5      1     12     22      -9012.    
      6      1     10     16      -9566.    
      7      1      6     24      -8299.    
      8      1      6     17      -7129.    

      8 WELLS

                 RECHARGE =  5.000000E-04



 CLASSIFICATION & COUNT OF STREAM SEGMENTS BASED ON SOURCE OF INFLOW:

                HEADWATER     DIVERSION     RECEIVES TRIBUTARY FLOW
                ---------     ---------     -----------------------
                     2              0               1



                    INPUT DATA FOR EACH STREAM SEGMENT
 ---------------------------------------------------------------------------------------------

 SEGMENT    SEG.     INFLOW   OVERLAND   STREAM    STREAM   ICALC  OUTFLOW  DIVERSION PRIORITY
    NO.    LENGTH     RATE     RUNOFF      ET       PPT.    METH.  TO SEG.  FROM SEG.    NO.

      1  4.400E+03 1.000E+05 0.000E+00 0.000E+00 0.000E+00    1        3        0        0
      2  1.800E+03 5.000E+04 0.000E+00 0.000E+00 0.000E+00    1        3        0        0
      3  1.800E+03 0.000E+00 0.000E+00 0.000E+00 0.000E+00    1        0        0        0


         STREAMBED PROPERTIES AND STREAM DIMENSIONS

 SEGMENT     BED HYD. COND.      BED THICKNESS     ELEV.-TOP OF BED     WIDTH OF STREAM     DEPTH OF STREAM    STREAM ROUGHNESS
    No.     UPPER     LOWER     UPPER     LOWER     UPPER     LOWER     UPPER     LOWER     UPPER     LOWER   CHANNEL      BANK

     1  5.000E+00 5.000E+00 1.000E+00 1.000E+00 4.850E+01 3.800E+01 2.000E+01 2.000E+01                     5.000E-02
     2  5.000E+00 5.000E+00 1.000E+00 1.000E+00 4.025E+01 3.800E+01 2.000E+01 2.000E+01                     5.000E-02
     3  5.000E+00 5.000E+00 1.000E+00 1.000E+00 3.800E+01 3.000E+01 2.000E+01 2.000E+01                     5.000E-02



 
 SOLVING FOR HEAD 


     9 CALLS TO PCG ROUTINE FOR TIME STEP   1 IN STRESS PERIOD    1
    36 TOTAL ITERATIONS

 OUTPUT CONTROL FOR STRESS PERIOD    1   TIME STEP    1
    SAVE BUDGET
    SAVE HEAD FOR ALL LAYERS
    PRINT HEAD FOR ALL LAYERS
 UBDSV2 SAVING "STREAMFLOW OUT  " ON UNIT  50 AT TIME STEP  1, STRESS PERIOD   1



 STREAM LISTING     PERIOD      1   STEP        1

 LAYER ROW COL. STREAM  RCH.  FLOW INTO     FLOW TO   FLOW OUT OF   OVRLND.     DIRECT     STREAM       STREAM     STREAM     STREAM   STREAMBED  STREAMBED
                SEG.NO.  NO.  STRM. RCH.    AQUIFER    STRM. RCH.    RUNOFF     PRECIP       ET          HEAD       DEPTH      WIDTH   CONDCTNC.   GRADIENT

   1   13    1     1     1    1.0000E+05 -6.1100E+03   1.0611E+05  0.000E+00  0.000E+00  0.000E+00  4.84087E+01  1.473E-01  2.000E+01  2.000E+04 -3.055E-01
   1   13    2     1     2    1.0611E+05 -7.5789E+03   1.1369E+05  0.000E+00  0.000E+00  0.000E+00  4.79372E+01  1.531E-01  2.000E+01  2.000E+04 -3.789E-01
   1   14    3     1     3    1.1369E+05 -2.1984E+03   1.1589E+05  0.000E+00  0.000E+00  0.000E+00  4.74639E+01  1.571E-01  2.000E+01  2.000E+04 -1.099E-01
   1   15    4     1     4    1.1589E+05 -2.2700E+03   1.1816E+05  0.000E+00  0.000E+00  0.000E+00  4.69885E+01  1.590E-01  2.000E+01  2.000E+04 -1.135E-01
   1   16    5     1     5    1.1816E+05 -7.1868E+03   1.2534E+05  0.000E+00  0.000E+00  0.000E+00  4.65151E+01  1.628E-01  2.000E+01  2.000E+04 -3.593E-01
   1   16    6     1     6    1.2534E+05 -4.3048E+03   1.2965E+05  0.000E+00  0.000E+00  0.000E+00  4.60423E+01  1.673E-01  2.000E+01  2.000E+04 -2.152E-01
   1   16    7     1     7    1.2965E+05 -4.1398E+03   1.3379E+05  0.000E+00  0.000E+00  0.000E+00  4.55684E+01  1.707E-01  2.000E+01  2.000E+04 -2.070E-01
   1   16    8     1     8    1.3379E+05 -4.0990E+03   1.3789E+05  0.000E+00  0.000E+00  0.000E+00  4.50943E+01  1.738E-01  2.000E+01  2.000E+04 -2.050E-01
   1   16    9     1     9    1.3789E+05 -4.0884E+03   1.4198E+05  0.000E+00  0.000E+00  0.000E+00  4.46201E+01  1.770E-01  2.000E+01  2.000E+04 -2.044E-01
   1   16   10     1    10    1.4198E+05 -4.0853E+03   1.4606E+05  0.000E+00  0.000E+00  0.000E+00  4.41460E+01  1.800E-01  2.000E+01  2.000E+04 -2.043E-01
   1   16   11     1    11    1.4606E+05 -4.1190E+03   1.5018E+05  0.000E+00  0.000E+00  0.000E+00  4.36717E+01  1.831E-01  2.000E+01  2.000E+04 -2.059E-01
   1   16   12     1    12    1.5018E+05 -6.9651E+03   1.5715E+05  0.000E+00  0.000E+00  0.000E+00  4.31985E+01  1.872E-01  2.000E+01  2.000E+04 -3.483E-01
   1   15   13     1    13    1.5715E+05 -7.1634E+03   1.6431E+05  0.000E+00  0.000E+00  0.000E+00  4.27264E+01  1.923E-01  2.000E+01  2.000E+04 -3.582E-01
   1   14   14     1    14    1.6431E+05 -7.4767E+03   1.7179E+05  0.000E+00  0.000E+00  0.000E+00  4.22543E+01  1.975E-01  2.000E+01  2.000E+04 -3.738E-01
   1   13   15     1    15    1.7179E+05 -7.4007E+03   1.7919E+05  0.000E+00  0.000E+00  0.000E+00  4.17823E+01  2.027E-01  2.000E+01  2.000E+04 -3.700E-01
   1   12   16     1    16    1.7919E+05 -6.4778E+03   1.8566E+05  0.000E+00  0.000E+00  0.000E+00  4.13098E+01  2.075E-01  2.000E+01  2.000E+04 -3.239E-01
   1   12   17     1    17    1.8566E+05 -4.9197E+03   1.9058E+05  0.000E+00  0.000E+00  0.000E+00  4.08363E+01  2.113E-01  2.000E+01  2.000E+04 -2.460E-01
   1   12   18     1    18    1.9058E+05 -5.1200E+03   1.9570E+05  0.000E+00  0.000E+00  0.000E+00  4.03624E+01  2.147E-01  2.000E+01  2.000E+04 -2.560E-01
   1   12   19     1    19    1.9570E+05 -6.1451E+03   2.0185E+05  0.000E+00  0.000E+00  0.000E+00  3.98889E+01  2.184E-01  2.000E+01  2.000E+04 -3.073E-01
   1   13   20     1    20    2.0185E+05 -5.3634E+03   2.0721E+05  0.000E+00  0.000E+00  0.000E+00  3.94154E+01  2.222E-01  2.000E+01  2.000E+04 -2.682E-01
   1   14   21     1    21    2.0721E+05 -5.6494E+03   2.1286E+05  0.000E+00  0.000E+00  0.000E+00  3.89417E+01  2.258E-01  2.000E+01  2.000E+04 -2.825E-01
   1   14   22     1    22    2.1286E+05  4.1532E+03   2.0871E+05  0.000E+00  0.000E+00  0.000E+00  3.84649E+01  2.263E-01  2.000E+01  2.000E+04  2.077E-01
   1    9   30     2     1    5.0000E+04 -4.6224E+03   5.4622E+04  0.000E+00  0.000E+00  0.000E+00  4.02440E+01  1.190E-01  2.000E+01  2.000E+04 -2.311E-01
   1    9   29     2     2    5.4622E+04 -4.8754E+03   5.9498E+04  0.000E+00  0.000E+00  0.000E+00  4.00004E+01  1.254E-01  2.000E+01  2.000E+04 -2.438E-01
   1    9   28     2     3    5.9498E+04 -5.0520E+03   6.4550E+04  0.000E+00  0.000E+00  0.000E+00  3.97569E+01  1.319E-01  2.000E+01  2.000E+04 -2.526E-01
   1    9   27     2     4    6.4550E+04 -7.3109E+03   7.1861E+04  0.000E+00  0.000E+00  0.000E+00  3.95146E+01  1.396E-01  2.000E+01  2.000E+04 -3.655E-01
   1   10   26     2     5    7.1861E+04 -6.4368E+03   7.8298E+04  0.000E+00  0.000E+00  0.000E+00  3.92729E+01  1.479E-01  2.000E+01  2.000E+04 -3.218E-01
   1   11   25     2     6    7.8298E+04 -5.7548E+03   8.4052E+04  0.000E+00  0.000E+00  0.000E+00  3.90300E+01  1.550E-01  2.000E+01  2.000E+04 -2.877E-01
   1   12   24     2     7    8.4052E+04 -4.1103E+03   8.8163E+04  0.000E+00  0.000E+00  0.000E+00  3.87855E+01  1.605E-01  2.000E+01  2.000E+04 -2.055E-01
   1   13   23     2     8    8.8163E+04 -1.0727E+03   8.9235E+04  0.000E+00  0.000E+00  0.000E+00  3.85384E+01  1.634E-01  2.000E+01  2.000E+04 -5.364E-02
   1   14   22     2     9    8.9235E+04  6.2846E+02   8.8607E+04  0.000E+00  0.000E+00  0.000E+00  3.82887E+01  1.637E-01  2.000E+01  2.000E+04  3.142E-02
   1   14   22     3     1    2.9732E+05 -9.3744E+03   3.0669E+05  0.000E+00  0.000E+00  0.000E+00  3.77885E+01  2.330E-01  2.000E+01  2.000E+04 -4.687E-01
   1   15   23     3     2    3.0669E+05 -1.9867E+03   3.0868E+05  0.000E+00  0.000E+00  0.000E+00  3.69023E+01  2.356E-01  2.000E+01  2.000E+04 -9.933E-02
   1   15   24     3     3    3.0868E+05 -1.5293E+03   3.1021E+05  0.000E+00  0.000E+00  0.000E+00  3.60142E+01  2.364E-01  2.000E+01  2.000E+04 -7.646E-02
   1   15   25     3     4    3.1021E+05 -1.5790E+03   3.1178E+05  0.000E+00  0.000E+00  0.000E+00  3.51260E+01  2.371E-01  2.000E+01  2.000E+04 -7.895E-02
   1   15   26     3     5    3.1178E+05 -1.8825E+03   3.1367E+05  0.000E+00  0.000E+00  0.000E+00  3.42379E+01  2.379E-01  2.000E+01  2.000E+04 -9.412E-02
   1   16   27     3     6    3.1367E+05 -2.1645E+03   3.1583E+05  0.000E+00  0.000E+00  0.000E+00  3.33499E+01  2.388E-01  2.000E+01  2.000E+04 -1.082E-01
   1   17   28     3     7    3.1583E+05 -6.5795E+03   3.2241E+05  0.000E+00  0.000E+00  0.000E+00  3.24630E+01  2.408E-01  2.000E+01  2.000E+04 -3.290E-01
   1   18   29     3     8    3.2241E+05 -7.9951E+03   3.3041E+05  0.000E+00  0.000E+00  0.000E+00  3.15774E+01  2.441E-01  2.000E+01  2.000E+04 -3.998E-01
   1   18   30     3     9    3.3041E+05 -7.1750E+03   3.3758E+05  0.000E+00  0.000E+00  0.000E+00  3.06919E+01  2.475E-01  2.000E+01  2.000E+04 -3.587E-01



1
              HEAD IN LAYER   1 AT END OF TIME STEP   1 IN STRESS PERIOD    1
  ---------------------------------------------------------------------------

          1      2      3      4      5      6      7      8      9     10
         11     12     13     14     15     16     17     18     19     20
         21     22     23     24     25     26     27     28     29     30
 .........................................................................
   1  ****** ****** ****** ****** ****** ****** ****** ****** ****** ******
      ****** ****** ****** ****** ****** ****** ****** ****** ****** ******
      ****** ****** ****** ****** ****** ****** ****** ****** ****** ******
   2  ****** ****** ****** ****** ****** ****** ****** ****** ****** ******
      ****** ****** ****** ****** ****** ****** ****** ****** ****** ******
      ****** ****** ****** ****** ****** ****** ****** ****** ****** ******
   3  ****** ****** ****** ****** ****** ****** ****** ****** ****** ******
      ****** ****** ****** ****** ****** ****** ****** ****** ****** ******
      ****** ****** ****** ****** ****** ****** ****** ****** ****** ******
   4  ****** ****** ****** ****** ****** ****** ****** ****** ****** ******
      ****** ****** ****** ****** ****** ****** ****** ****** ****** ******
      ****** ****** ****** ****** ****** ****** ****** ****** ****** ******
   5  ****** ****** ****** ****** ****** ****** ****** ****** ****** ******
      ****** ****** ****** ****** ****** ****** ****** ****** ****** ******
      ****** ****** ****** ****** ****** ****** ****** ****** ****** ******
   6  ****** ****** ****** ****** ****** ****** ****** ****** ****** ******
      ****** ****** ****** ****** ****** ****** ****** ****** ****** ******
      ****** ****** ****** ****** ****** ****** ****** ****** ****** ******
   7  ****** ****** ****** ****** ****** ****** ****** ****** ****** ******
      ****** ****** ****** ****** ****** ****** ****** ****** ****** ******
      ****** ****** ****** ****** ****** ****** ****** ****** ****** ******
   8  ****** ****** ****** ****** ****** ****** ****** ****** ****** ******
      ****** ****** ****** ****** ****** ****** ****** ****** ****** ******
      ****** ****** ****** ****** ****** ****** ****** ****** ****** ******
   9  ****** ****** ****** ****** ****** ****** ****** ****** ****** ******
      ****** ****** ****** ****** ****** ****** ****** ****** ****** ******
      ****** ****** ****** ****** ****** ****** ****** ****** ****** ******
  10  ****** ****** ****** ****** ****** ****** ****** ****** ****** ******
      ****** ****** ****** ****** ****** ****** ****** ****** ****** ******
      ****** ****** ****** ****** ****** ****** ****** ****** ****** ******
  11  ****** ****** ****** ****** ****** ****** ****** ****** ****** ******
      ****** ****** ****** ****** ****** ****** ****** ****** ****** ******
      ****** ****** ****** ****** ****** ****** ****** ****** ****** ******
  12  ****** ****** ****** ****** ****** ****** ****** ****** ****** ******
      ****** ****** ****** ****** ****** ****** ****** ****** ****** ******
      ****** ****** ****** ****** ****** ****** ****** ****** ****** ******
  13  ****** ****** ****** ****** ****** ****** ****** ****** ****** ******
      ****** ****** ****** ****** ****** ****** ****** ****** ****** ******
      ****** ****** ****** ****** ****** ****** ****** ****** ****** ******
  14  ****** ****** ****** ****** ****** ****** ****** ****** ****** ******
      ****** ****** ****** ****** ****** ****** ****** ****** ****** ******
      ****** ****** ****** ****** ****** ****** ****** ****** ****** ******
  15  ****** ****** ****** ****** ****** ****** ****** ****** ****** ******
      ****** ****** ****** ****** ****** ****** ****** ****** ****** ******
      ****** ****** ****** ****** ****** ****** ****** ****** ****** ******
  16  ****** ****** ****** ****** ****** ****** ****** ****** ****** ******
      ****** ****** ****** ****** ****** ****** ****** ****** ****** ******
      ****** ****** ****** ****** ****** ****** ****** ****** ****** ******
  17  ****** ****** ****** ****** ****** ****** ****** ****** ****** ******
      ****** ****** ****** ****** ****** ****** ****** ****** ****** ******
      ****** ****** ****** ****** ****** ****** ****** ****** ****** ******
  18  ****** ****** ****** ****** ****** ****** ****** ****** ****** ******
      ****** ****** ****** ****** ****** ****** ****** ****** ****** ******
      ****** ****** ****** ****** ****** ****** ****** ****** ****** ******
  19  ****** ****** ****** ****** ****** ****** ****** ****** ****** ******
      ****** ****** ****** ****** ****** ****** ****** ****** ****** ******
      ****** ****** ****** ****** ****** ****** ****** ****** ****** ******
  20  ****** ****** ****** ****** ****** ****** ****** ****** ****** ******
      ****** ****** ****** ****** ****** ****** ****** ****** ****** ******
      ****** ****** ****** ****** ****** ****** ****** ****** ****** ******
  21  ****** ****** ****** ****** ****** ****** ****** ****** ****** ******
      ****** ****** ****** ****** ****** ****** ****** ****** ****** ******
      ****** ****** ****** ****** ****** ****** ****** ****** ****** ******
  22  ****** ****** ****** ****** ****** ****** ****** ****** ****** ******
      ****** ****** ****** ****** ****** ****** ****** ****** ****** ******
      ****** ****** ****** ****** ****** ****** ****** ****** ****** ******
  23  ****** ****** ****** ****** ****** ****** ****** ****** ****** ******
      ****** ****** ****** ****** ****** ****** ****** ****** ****** ******
      ****** ****** ****** ****** ****** ****** ****** ****** ****** ******
  24  ****** ****** ****** ****** ****** ****** ****** ****** ****** ******
      ****** ****** ****** ****** ****** ****** ****** ****** ****** ******
      ****** ****** ****** ****** ****** ****** ****** ****** ****** ******
  25  ****** ****** ****** ****** ****** ****** ****** ****** ****** ******
      ****** ****** ****** ****** ****** ****** ****** ****** ****** ******
      ****** ****** ****** ****** ****** ****** ****** ****** ****** ******

 HEAD WILL BE SAVED ON UNIT   51 AT END OF TIME STEP    1, STRESS PERIOD    1
1
  VOLUMETRIC BUDGET FOR ENTIRE MODEL AT END OF TIME STEP    1, STRESS PERIOD   1
  ------------------------------------------------------------------------------

     CUMULATIVE VOLUMES      L**3       RATES FOR THIS TIME STEP      L**3/T
     ------------------                 ------------------------

           IN:                                      IN:
           ---                                      ---
             STORAGE =    17938930.1872               STORAGE =      194988.3716
       CONSTANT HEAD =     1177495.0939         CONSTANT HEAD =       12798.8597
               WELLS =           0.0000                 WELLS =           0.0000
            RECHARGE =     1269600.0000              RECHARGE =       13800.0000
      STREAM LEAKAGE =      439908.0526        STREAM LEAKAGE =        4781.6093

            TOTAL IN =    20825933.3337              TOTAL IN =      226368.8406

          OUT:                                     OUT:
          ----                                     ----
             STORAGE =           0.0000               STORAGE =           0.0000
       CONSTANT HEAD =           0.0000         CONSTANT HEAD =           0.0000
               WELLS =     3128543.1355                 WELLS =       34005.9036
            RECHARGE =           0.0000              RECHARGE =           0.0000
      STREAM LEAKAGE =    17697390.4871        STREAM LEAKAGE =      192362.9401

           TOTAL OUT =    20825933.6225             TOTAL OUT =      226368.8437

            IN - OUT =          -0.2888              IN - OUT =      -3.1392E-03

 PERCENT DISCREPANCY =          -0.00     PERCENT DISCREPANCY =          -0.00






         TIME SUMMARY AT END OF TIME STEP    1 IN STRESS PERIOD    1
                    SECONDS     MINUTES      HOURS       DAYS        YEARS
                    -----------------------------------------------------------
   TIME STEP LENGTH 7.94880E+06 1.32480E+05  2208.0      92.000     0.25188    
 STRESS PERIOD TIME 7.94880E+06 1.32480E+05  2208.0      92.000     0.25188    
         TOTAL TIME 7.94880E+06 1.32480E+05  2208.0      92.000     0.25188    
1
1
                            STRESS PERIOD NO.    2, LENGTH =   91.00000    
                            -----------------------------------------------

                              NUMBER OF TIME STEPS =     1

                               MULTIPLIER FOR DELT =     1.500

                            INITIAL TIME STEP SIZE =   91.00000    

 WELL NO.  LAYER   ROW   COL   STRESS RATE         
 --------------------------------------------------
      1      1     14      6       0.000    
      2      1      3      9       0.000    
      3      1     20     10       0.000    
      4      1     14     20       0.000    
      5      1     12     22      -9012.    
      6      1     10     16      -9566.    
      7      1      6     24      -8299.    
      8      1      6     17      -7129.    

      8 WELLS

                 RECHARGE =  2.000000E-03

 REUSING STREAM SEGMENT DATA FROM LAST STRESS PERIOD
 
 SOLVING FOR HEAD 


     7 CALLS TO PCG ROUTINE FOR TIME STEP   1 IN STRESS PERIOD    2
    27 TOTAL ITERATIONS

 OUTPUT CONTROL FOR STRESS PERIOD    2   TIME STEP    1
    SAVE BUDGET
    SAVE HEAD FOR ALL LAYERS
    PRINT HEAD FOR ALL LAYERS
 UBDSV2 SAVING "STREAMFLOW OUT  " ON UNIT  50 AT TIME STEP  1, STRESS PERIOD   2



 STREAM LISTING     PERIOD      2   STEP        1

 LAYER ROW COL. STREAM  RCH.  FLOW INTO     FLOW TO   FLOW OUT OF   OVRLND.     DIRECT     STREAM       STREAM     STREAM     STREAM   STREAMBED  STREAMBED
                SEG.NO.  NO.  STRM. RCH.    AQUIFER    STRM. RCH.    RUNOFF     PRECIP       ET          HEAD       DEPTH      WIDTH   CONDCTNC.   GRADIENT

   1   13    1     1     1    1.0000E+05 -3.9723E+03   1.0397E+05  0.000E+00  0.000E+00  0.000E+00  4.84077E+01  1.464E-01  2.000E+01  2.000E+04 -1.986E-01
   1   13    2     1     2    1.0397E+05 -5.2321E+03   1.0920E+05  0.000E+00  0.000E+00  0.000E+00  4.79344E+01  1.503E-01  2.000E+01  2.000E+04 -2.616E-01
   1   14    3     1     3    1.0920E+05 -1.1141E+03   1.1032E+05  0.000E+00  0.000E+00  0.000E+00  4.74598E+01  1.530E-01  2.000E+01  2.000E+04 -5.571E-02
   1   15    4     1     4    1.1032E+05 -1.1431E+03   1.1146E+05  0.000E+00  0.000E+00  0.000E+00  4.69835E+01  1.539E-01  2.000E+01  2.000E+04 -5.715E-02
   1   16    5     1     5    1.1146E+05 -4.2592E+03   1.1572E+05  0.000E+00  0.000E+00  0.000E+00  4.65084E+01  1.561E-01  2.000E+01  2.000E+04 -2.130E-01
   1   16    6     1     6    1.1572E+05 -2.5109E+03   1.1823E+05  0.000E+00  0.000E+00  0.000E+00  4.60339E+01  1.589E-01  2.000E+01  2.000E+04 -1.255E-01
   1   16    7     1     7    1.1823E+05 -2.4168E+03   1.2065E+05  0.000E+00  0.000E+00  0.000E+00  4.55586E+01  1.609E-01  2.000E+01  2.000E+04 -1.208E-01
   1   16    8     1     8    1.2065E+05 -2.3878E+03   1.2304E+05  0.000E+00  0.000E+00  0.000E+00  4.50833E+01  1.629E-01  2.000E+01  2.000E+04 -1.194E-01
   1   16    9     1     9    1.2304E+05 -2.3671E+03   1.2540E+05  0.000E+00  0.000E+00  0.000E+00  4.46079E+01  1.648E-01  2.000E+01  2.000E+04 -1.184E-01
   1   16   10     1    10    1.2540E+05 -2.3425E+03   1.2775E+05  0.000E+00  0.000E+00  0.000E+00  4.41325E+01  1.666E-01  2.000E+01  2.000E+04 -1.171E-01
   1   16   11     1    11    1.2775E+05 -2.3473E+03   1.3009E+05  0.000E+00  0.000E+00  0.000E+00  4.36571E+01  1.685E-01  2.000E+01  2.000E+04 -1.174E-01
   1   16   12     1    12    1.3009E+05 -4.0772E+03   1.3417E+05  0.000E+00  0.000E+00  0.000E+00  4.31823E+01  1.710E-01  2.000E+01  2.000E+04 -2.039E-01
   1   15   13     1    13    1.3417E+05 -3.8665E+03   1.3804E+05  0.000E+00  0.000E+00  0.000E+00  4.27081E+01  1.740E-01  2.000E+01  2.000E+04 -1.933E-01
   1   14   14     1    14    1.3804E+05 -3.9921E+03   1.4203E+05  0.000E+00  0.000E+00  0.000E+00  4.22339E+01  1.770E-01  2.000E+01  2.000E+04 -1.996E-01
   1   13   15     1    15    1.4203E+05 -3.8186E+03   1.4585E+05  0.000E+00  0.000E+00  0.000E+00  4.17595E+01  1.800E-01  2.000E+01  2.000E+04 -1.909E-01
   1   12   16     1    16    1.4585E+05 -2.8415E+03   1.4869E+05  0.000E+00  0.000E+00  0.000E+00  4.12847E+01  1.825E-01  2.000E+01  2.000E+04 -1.421E-01
   1   12   17     1    17    1.4869E+05 -2.1115E+03   1.5080E+05  0.000E+00  0.000E+00  0.000E+00  4.08093E+01  1.843E-01  2.000E+01  2.000E+04 -1.056E-01
   1   12   18     1    18    1.5080E+05 -2.3257E+03   1.5313E+05  0.000E+00  0.000E+00  0.000E+00  4.03337E+01  1.859E-01  2.000E+01  2.000E+04 -1.163E-01
   1   12   19     1    19    1.5313E+05 -2.5831E+03   1.5571E+05  0.000E+00  0.000E+00  0.000E+00  3.98582E+01  1.877E-01  2.000E+01  2.000E+04 -1.292E-01
   1   13   20     1    20    1.5571E+05 -2.0194E+03   1.5773E+05  0.000E+00  0.000E+00  0.000E+00  3.93826E+01  1.894E-01  2.000E+01  2.000E+04 -1.010E-01
   1   14   21     1    21    1.5773E+05 -2.8611E+03   1.6059E+05  0.000E+00  0.000E+00  0.000E+00  3.89071E+01  1.912E-01  2.000E+01  2.000E+04 -1.431E-01
   1   14   22     1    22    1.6059E+05  4.9609E+03   1.5563E+05  0.000E+00  0.000E+00  0.000E+00  3.84291E+01  1.904E-01  2.000E+01  2.000E+04  2.480E-01
   1    9   30     2     1    5.0000E+04 -1.7582E+03   5.1758E+04  0.000E+00  0.000E+00  0.000E+00  4.02421E+01  1.171E-01  2.000E+01  2.000E+04 -8.791E-02
   1    9   29     2     2    5.1758E+04 -2.0102E+03   5.3768E+04  0.000E+00  0.000E+00  0.000E+00  3.99947E+01  1.197E-01  2.000E+01  2.000E+04 -1.005E-01
   1    9   28     2     3    5.3768E+04 -2.1671E+03   5.5935E+04  0.000E+00  0.000E+00  0.000E+00  3.97475E+01  1.225E-01  2.000E+01  2.000E+04 -1.084E-01
   1    9   27     2     4    5.5935E+04 -3.4275E+03   5.9363E+04  0.000E+00  0.000E+00  0.000E+00  3.95012E+01  1.262E-01  2.000E+01  2.000E+04 -1.714E-01
   1   10   26     2     5    5.9363E+04 -2.4912E+03   6.1854E+04  0.000E+00  0.000E+00  0.000E+00  3.92550E+01  1.300E-01  2.000E+01  2.000E+04 -1.246E-01
   1   11   25     2     6    6.1854E+04 -1.9846E+03   6.3839E+04  0.000E+00  0.000E+00  0.000E+00  3.90079E+01  1.329E-01  2.000E+01  2.000E+04 -9.923E-02
   1   12   24     2     7    6.3839E+04 -6.5531E+02   6.4494E+04  0.000E+00  0.000E+00  0.000E+00  3.87596E+01  1.346E-01  2.000E+01  2.000E+04 -3.277E-02
   1   13   23     2     8    6.4494E+04  3.5702E+01   6.4458E+04  0.000E+00  0.000E+00  0.000E+00  3.85100E+01  1.350E-01  2.000E+01  2.000E+04  1.785E-03
   1   14   22     2     9    6.4458E+04  1.5591E+03   6.2899E+04  0.000E+00  0.000E+00  0.000E+00  3.82590E+01  1.340E-01  2.000E+01  2.000E+04  7.795E-02
   1   14   22     3     1    2.1853E+05 -8.6264E+03   2.2715E+05  0.000E+00  0.000E+00  0.000E+00  3.77497E+01  1.941E-01  2.000E+01  2.000E+04 -4.313E-01
   1   15   23     3     2    2.2715E+05 -1.0524E+03   2.2821E+05  0.000E+00  0.000E+00  0.000E+00  3.68633E+01  1.967E-01  2.000E+01  2.000E+04 -5.262E-02
   1   15   24     3     3    2.2821E+05 -6.6435E+02   2.2887E+05  0.000E+00  0.000E+00  0.000E+00  3.59749E+01  1.971E-01  2.000E+01  2.000E+04 -3.322E-02
   1   15   25     3     4    2.2887E+05 -6.7059E+02   2.2954E+05  0.000E+00  0.000E+00  0.000E+00  3.50863E+01  1.974E-01  2.000E+01  2.000E+04 -3.353E-02
   1   15   26     3     5    2.2954E+05 -7.7216E+02   2.3031E+05  0.000E+00  0.000E+00  0.000E+00  3.41978E+01  1.978E-01  2.000E+01  2.000E+04 -3.861E-02
   1   16   27     3     6    2.3031E+05 -8.9844E+02   2.3121E+05  0.000E+00  0.000E+00  0.000E+00  3.33094E+01  1.982E-01  2.000E+01  2.000E+04 -4.492E-02
   1   17   28     3     7    2.3121E+05 -3.2574E+03   2.3447E+05  0.000E+00  0.000E+00  0.000E+00  3.24215E+01  1.993E-01  2.000E+01  2.000E+04 -1.629E-01
   1   18   29     3     8    2.3447E+05 -5.0581E+03   2.3953E+05  0.000E+00  0.000E+00  0.000E+00  3.15348E+01  2.014E-01  2.000E+01  2.000E+04 -2.529E-01
   1   18   30     3     9    2.3953E+05 -4.6856E+03   2.4421E+05  0.000E+00  0.000E+00  0.000E+00  3.06484E+01  2.039E-01  2.000E+01  2.000E+04 -2.343E-01



1
              HEAD IN LAYER   1 AT END OF TIME STEP   1 IN STRESS PERIOD    2
  ---------------------------------------------------------------------------

          1      2      3      4      5      6      7      8      9     10
         11     12     13     14     15     16     17     18     19     20
         21     22     23     24     25     26     27     28     29     30
 .........................................................................
   1  ****** ****** ****** ****** ****** ****** ****** ****** ****** ******
      ****** ****** ****** ****** ****** ****** ****** ****** ****** ******
      ****** ****** ****** ****** ****** ****** ****** ****** ****** ******
   2  ****** ****** ****** ****** ****** ****** ****** ****** ****** ******
      ****** ****** ****** ****** ****** ****** ****** ****** ****** ******
      ****** ****** ****** ****** ****** ****** ****** ****** ****** ******
   3  ****** ****** ****** ****** ****** ****** ****** ****** ****** ******
      ****** ****** ****** ****** ****** ****** ****** ****** ****** ******
      ****** ****** ****** ****** ****** ****** ****** ****** ****** ******
   4  ****** ****** ****** ****** ****** ****** ****** ****** ****** ******
      ****** ****** ****** ****** ****** ****** ****** ****** ****** ******
      ****** ****** ****** ****** ****** ****** ****** ****** ****** ******
   5  ****** ****** ****** ****** ****** ****** ****** ****** ****** ******
      ****** ****** ****** ****** ****** ****** ****** ****** ****** ******
      ****** ****** ****** ****** ****** ****** ****** ****** ****** ******
   6  ****** ****** ****** ****** ****** ****** ****** ****** ****** ******
      ****** ****** ****** ****** ****** ****** ****** ****** ****** ******
      ****** ****** ****** ****** ****** ****** ****** ****** ****** ******
   7  ****** ****** ****** ****** ****** ****** ****** ****** ****** ******
      ****** ****** ****** ****** ****** ****** ****** ****** ****** ******
      ****** ****** ****** ****** ****** ****** ****** ****** ****** ******
   8  ****** ****** ****** ****** ****** ****** ****** ****** ****** ******
      ****** ****** ****** ****** ****** ****** ****** ****** ****** ******
      ****** ****** ****** ****** ****** ****** ****** ****** ****** ******
   9  ****** ****** ****** ****** ****** ****** ****** ****** ****** ******
      ****** ****** ****** ****** ****** ****** ****** ****** ****** ******
      ****** ****** ****** ****** ****** ****** ****** ****** ****** ******
  10  ****** ****** ****** ****** ****** ****** ****** ****** ****** ******
      ****** ****** ****** ****** ****** ****** ****** ****** ****** ******
      ****** ****** ****** ****** ****** ****** ****** ****** ****** ******
  11  ****** ****** ****** ****** ****** ****** ****** ****** ****** ******
      ****** ****** ****** ****** ****** ****** ****** ****** ****** ******
      ****** ****** ****** ****** ****** ****** ****** ****** ****** ******
  12  ****** ****** ****** ****** ****** ****** ****** ****** ****** ******
      ****** ****** ****** ****** ****** ****** ****** ****** ****** ******
      ****** ****** ****** ****** ****** ****** ****** ****** ****** ******
  13  ****** ****** ****** ****** ****** ****** ****** ****** ****** ******
      ****** ****** ****** ****** ****** ****** ****** ****** ****** ******
      ****** ****** ****** ****** ****** ****** ****** ****** ****** ******
  14  ****** ****** ****** ****** ****** ****** ****** ****** ****** ******
      ****** ****** ****** ****** ****** ****** ****** ****** ****** ******
      ****** ****** ****** ****** ****** ****** ****** ****** ****** ******
  15  ****** ****** ****** ****** ****** ****** ****** ****** ****** ******
      ****** ****** ****** ****** ****** ****** ****** ****** ****** ******
      ****** ****** ****** ****** ****** ****** ****** ****** ****** ******
  16  ****** ****** ****** ****** ****** ****** ****** ****** ****** ******
      ****** ****** ****** ****** ****** ****** ****** ****** ****** ******
      ****** ****** ****** ****** ****** ****** ****** ****** ****** ******
  17  ****** ****** ****** ****** ****** ****** ****** ****** ****** ******
      ****** ****** ****** ****** ****** ****** ****** ****** ****** ******
      ****** ****** ****** ****** ****** ****** ****** ****** ****** ******
  18  ****** ****** ****** ****** ****** ****** ****** ****** ****** ******
      ****** ****** ****** ****** ****** ****** ****** ****** ****** ******
      ****** ****** ****** ****** ****** ****** ****** ****** ****** ******
  19  ****** ****** ****** ****** ****** ****** ****** ****** ****** ******
      ****** ****** ****** ****** ****** ****** ****** ****** ****** ******
      ****** ****** ****** ****** ****** ****** ****** ****** ****** ******
  20  ****** ****** ****** ****** ****** ****** ****** ****** ****** ******
      ****** ****** ****** ****** ****** ****** ****** ****** ****** ******
      ****** ****** ****** ****** ****** ****** ****** ****** ****** ******
  21  ****** ****** ****** ****** ****** ****** ****** ****** ****** ******
      ****** ****** ****** ****** ****** ****** ****** ****** ****** ******
      ****** ****** ****** ****** ****** ****** ****** ****** ****** ******
  22  ****** ****** ****** ****** ****** ****** ****** ****** ****** ******
      ****** ****** ****** ****** ****** ****** ****** ****** ****** ******
      ****** ****** ****** ****** ****** ****** ****** ****** ****** ******
  23  ****** ****** ****** ****** ****** ****** ****** ****** ****** ******
      ****** ****** ****** ****** ****** ****** ****** ****** ****** ******
      ****** ****** ****** ****** ****** ****** ****** ****** ****** ******
  24  ****** ****** ****** ****** ****** ****** ****** ****** ****** ******
      ****** ****** ****** ****** ****** ****** ****** ****** ****** ******
      ****** ****** ****** ****** ****** ****** ****** ****** ****** ******
  25  ****** ****** ****** ****** ****** ****** ****** ****** ****** ******
      ****** ****** ****** ****** ****** ****** ****** ****** ****** ******
      ****** ****** ****** ****** ****** ****** ****** ****** ****** ******

 HEAD WILL BE SAVED ON UNIT   51 AT END OF TIME STEP    1, STRESS PERIOD    2
1
  VOLUMETRIC BUDGET FOR ENTIRE MODEL AT END OF TIME STEP    1, STRESS PERIOD   2
  ------------------------------------------------------------------------------

     CUMULATIVE VOLUMES      L**3       RATES FOR THIS TIME STEP      L**3/T
     ------------------                 ------------------------

           IN:                                      IN:
           ---                                      ---
             STORAGE =    22985484.8836               STORAGE =       55456.6450
       CONSTANT HEAD =     2775734.6837         CONSTANT HEAD =       17563.0724
               WELLS =           0.0000                 WELLS =           0.0000
            RECHARGE =     6292800.0000              RECHARGE =       55200.0000
      STREAM LEAKAGE =     1036473.1160        STREAM LEAKAGE =        6555.6600

            TOTAL IN =    33090492.6833              TOTAL IN =      134775.3775

          OUT:                                     OUT:
          ----                                     ----
             STORAGE =           0.0000               STORAGE =           0.0000
       CONSTANT HEAD =           0.0000         CONSTANT HEAD =           0.0000
               WELLS =     6223080.3673                 WELLS =       34005.9036
            RECHARGE =           0.0000              RECHARGE =           0.0000
      STREAM LEAKAGE =    26867413.5526        STREAM LEAKAGE =      100769.4842

           TOTAL OUT =    33090493.9199             TOTAL OUT =      134775.3879

            IN - OUT =          -1.2366              IN - OUT =      -1.0416E-02

 PERCENT DISCREPANCY =          -0.00     PERCENT DISCREPANCY =          -0.00






         TIME SUMMARY AT END OF TIME STEP    1 IN STRESS PERIOD    2
                    SECONDS     MINUTES      HOURS       DAYS        YEARS
                    -----------------------------------------------------------
   TIME STEP LENGTH 7.86240E+06 1.31040E+05  2184.0      91.000     0.24914    
 STRESS PERIOD TIME 7.86240E+06 1.31040E+05  2184.0      91.000     0.24914    
         TOTAL TIME 1.58112E+07 2.63520E+05  4392.0      183.00     0.50103    
1
1
                            STRESS PERIOD NO.    3, LENGTH =   91.00000    
                            -----------------------------------------------

                              NUMBER OF TIME STEPS =     1

                               MULTIPLIER FOR DELT =     1.500

                            INITIAL TIME STEP SIZE =   91.00000    

 WELL NO.  LAYER   ROW   COL   STRESS RATE         
 --------------------------------------------------
      1      1     14      6       0.000    
      2      1      3      9       0.000    
      3      1     20     10       0.000    
      4      1     14     20       0.000    
      5      1     12     22      -9012.    
      6      1     10     16      -9566.    
      7      1      6     24      -8299.    
      8      1      6     17      -7129.    

      8 WELLS

                 RECHARGE =   0.00000    

 REUSING STREAM SEGMENT DATA FROM LAST STRESS PERIOD
 
 SOLVING FOR HEAD 


     7 CALLS TO PCG ROUTINE FOR TIME STEP   1 IN STRESS PERIOD    3
    27 TOTAL ITERATIONS

 OUTPUT CONTROL FOR STRESS PERIOD    3   TIME STEP    1
    SAVE BUDGET
    SAVE HEAD FOR ALL LAYERS
    PRINT HEAD FOR ALL LAYERS
 UBDSV2 SAVING "STREAMFLOW OUT  " ON UNIT  50 AT TIME STEP  1, STRESS PERIOD   3



 STREAM LISTING     PERIOD      3   STEP        1

 LAYER ROW COL. STREAM  RCH.  FLOW INTO     FLOW TO   FLOW OUT OF   OVRLND.     DIRECT     STREAM       STREAM     STREAM     STREAM   STREAMBED  STREAMBED
                SEG.NO.  NO.  STRM. RCH.    AQUIFER    STRM. RCH.    RUNOFF     PRECIP       ET          HEAD       DEPTH      WIDTH   CONDCTNC.   GRADIENT

   1   13    1     1     1    1.0000E+05 -2.6987E+03   1.0270E+05  0.000E+00  0.000E+00  0.000E+00  4.84072E+01  1.458E-01  2.000E+01  2.000E+04 -1.349E-01
   1   13    2     1     2    1.0270E+05 -3.8027E+03   1.0650E+05  0.000E+00  0.000E+00  0.000E+00  4.79327E+01  1.486E-01  2.000E+01  2.000E+04 -1.901E-01
   1   14    3     1     3    1.0650E+05 -6.5154E+02   1.0715E+05  0.000E+00  0.000E+00  0.000E+00  4.74573E+01  1.505E-01  2.000E+01  2.000E+04 -3.258E-02
   1   15    4     1     4    1.0715E+05 -6.3723E+02   1.0779E+05  0.000E+00  0.000E+00  0.000E+00  4.69806E+01  1.510E-01  2.000E+01  2.000E+04 -3.186E-02
   1   16    5     1     5    1.0779E+05 -2.4697E+03   1.1026E+05  0.000E+00  0.000E+00  0.000E+00  4.65046E+01  1.523E-01  2.000E+01  2.000E+04 -1.235E-01
   1   16    6     1     6    1.1026E+05 -1.5104E+03   1.1177E+05  0.000E+00  0.000E+00  0.000E+00  4.60290E+01  1.540E-01  2.000E+01  2.000E+04 -7.552E-02
   1   16    7     1     7    1.1177E+05 -1.4742E+03   1.1324E+05  0.000E+00  0.000E+00  0.000E+00  4.55530E+01  1.553E-01  2.000E+01  2.000E+04 -7.371E-02
   1   16    8     1     8    1.1324E+05 -1.4632E+03   1.1471E+05  0.000E+00  0.000E+00  0.000E+00  4.50769E+01  1.565E-01  2.000E+01  2.000E+04 -7.316E-02
   1   16    9     1     9    1.1471E+05 -1.4471E+03   1.1615E+05  0.000E+00  0.000E+00  0.000E+00  4.46008E+01  1.577E-01  2.000E+01  2.000E+04 -7.235E-02
   1   16   10     1    10    1.1615E+05 -1.4235E+03   1.1758E+05  0.000E+00  0.000E+00  0.000E+00  4.41247E+01  1.588E-01  2.000E+01  2.000E+04 -7.117E-02
   1   16   11     1    11    1.1758E+05 -1.4240E+03   1.1900E+05  0.000E+00  0.000E+00  0.000E+00  4.36486E+01  1.600E-01  2.000E+01  2.000E+04 -7.120E-02
   1   16   12     1    12    1.1900E+05 -2.4668E+03   1.2147E+05  0.000E+00  0.000E+00  0.000E+00  4.31729E+01  1.616E-01  2.000E+01  2.000E+04 -1.233E-01
   1   15   13     1    13    1.2147E+05 -2.1815E+03   1.2365E+05  0.000E+00  0.000E+00  0.000E+00  4.26975E+01  1.634E-01  2.000E+01  2.000E+04 -1.091E-01
   1   14   14     1    14    1.2365E+05 -2.2270E+03   1.2588E+05  0.000E+00  0.000E+00  0.000E+00  4.22220E+01  1.652E-01  2.000E+01  2.000E+04 -1.114E-01
   1   13   15     1    15    1.2588E+05 -2.0086E+03   1.2789E+05  0.000E+00  0.000E+00  0.000E+00  4.17464E+01  1.669E-01  2.000E+01  2.000E+04 -1.004E-01
   1   12   16     1    16    1.2789E+05 -8.8284E+02   1.2877E+05  0.000E+00  0.000E+00  0.000E+00  4.12703E+01  1.680E-01  2.000E+01  2.000E+04 -4.414E-02
   1   12   17     1    17    1.2877E+05 -7.1648E+02   1.2949E+05  0.000E+00  0.000E+00  0.000E+00  4.07936E+01  1.686E-01  2.000E+01  2.000E+04 -3.582E-02
   1   12   18     1    18    1.2949E+05 -9.5313E+02   1.3044E+05  0.000E+00  0.000E+00  0.000E+00  4.03170E+01  1.693E-01  2.000E+01  2.000E+04 -4.766E-02
   1   12   19     1    19    1.3044E+05 -8.3242E+02   1.3127E+05  0.000E+00  0.000E+00  0.000E+00  3.98404E+01  1.700E-01  2.000E+01  2.000E+04 -4.162E-02
   1   13   20     1    20    1.3127E+05 -4.9950E+02   1.3177E+05  0.000E+00  0.000E+00  0.000E+00  3.93637E+01  1.705E-01  2.000E+01  2.000E+04 -2.498E-02
   1   14   21     1    21    1.3177E+05 -1.3869E+03   1.3316E+05  0.000E+00  0.000E+00  0.000E+00  3.88871E+01  1.712E-01  2.000E+01  2.000E+04 -6.934E-02
   1   14   22     1    22    1.3316E+05  5.3283E+03   1.2783E+05  0.000E+00  0.000E+00  0.000E+00  3.84083E+01  1.697E-01  2.000E+01  2.000E+04  2.664E-01
   1    9   30     2     1    5.0000E+04 -4.8397E+02   5.0484E+04  0.000E+00  0.000E+00  0.000E+00  4.02412E+01  1.162E-01  2.000E+01  2.000E+04 -2.420E-02
   1    9   29     2     2    5.0484E+04 -7.3243E+02   5.1216E+04  0.000E+00  0.000E+00  0.000E+00  3.99920E+01  1.170E-01  2.000E+01  2.000E+04 -3.662E-02
   1    9   28     2     3    5.1216E+04 -8.6257E+02   5.2079E+04  0.000E+00  0.000E+00  0.000E+00  3.97431E+01  1.181E-01  2.000E+01  2.000E+04 -4.313E-02
   1    9   27     2     4    5.2079E+04 -1.4985E+03   5.3577E+04  0.000E+00  0.000E+00  0.000E+00  3.94948E+01  1.198E-01  2.000E+01  2.000E+04 -7.492E-02
   1   10   26     2     5    5.3577E+04 -7.1983E+02   5.4297E+04  0.000E+00  0.000E+00  0.000E+00  3.92463E+01  1.213E-01  2.000E+01  2.000E+04 -3.599E-02
   1   11   25     2     6    5.4297E+04 -3.4091E+02   5.4638E+04  0.000E+00  0.000E+00  0.000E+00  3.89970E+01  1.220E-01  2.000E+01  2.000E+04 -1.705E-02
   1   12   24     2     7    5.4638E+04  8.2221E+02   5.3816E+04  0.000E+00  0.000E+00  0.000E+00  3.87466E+01  1.216E-01  2.000E+01  2.000E+04  4.111E-02
   1   13   23     2     8    5.3816E+04  3.9026E+02   5.3426E+04  0.000E+00  0.000E+00  0.000E+00  3.84958E+01  1.208E-01  2.000E+01  2.000E+04  1.951E-02
   1   14   22     2     9    5.3426E+04  2.0451E+03   5.1381E+04  0.000E+00  0.000E+00  0.000E+00  3.82442E+01  1.192E-01  2.000E+01  2.000E+04  1.023E-01
   1   14   22     3     1    1.7921E+05 -8.2735E+03   1.8748E+05  0.000E+00  0.000E+00  0.000E+00  3.77282E+01  1.727E-01  2.000E+01  2.000E+04 -4.137E-01
   1   15   23     3     2    1.8748E+05 -6.6671E+02   1.8815E+05  0.000E+00  0.000E+00  0.000E+00  3.68419E+01  1.752E-01  2.000E+01  2.000E+04 -3.334E-02
   1   15   24     3     3    1.8815E+05 -3.4430E+02   1.8849E+05  0.000E+00  0.000E+00  0.000E+00  3.59533E+01  1.755E-01  2.000E+01  2.000E+04 -1.722E-02
   1   15   25     3     4    1.8849E+05 -3.3335E+02   1.8883E+05  0.000E+00  0.000E+00  0.000E+00  3.50646E+01  1.757E-01  2.000E+01  2.000E+04 -1.667E-02
   1   15   26     3     5    1.8883E+05 -3.6935E+02   1.8920E+05  0.000E+00  0.000E+00  0.000E+00  3.41759E+01  1.759E-01  2.000E+01  2.000E+04 -1.847E-02
   1   16   27     3     6    1.8920E+05 -4.3479E+02   1.8963E+05  0.000E+00  0.000E+00  0.000E+00  3.32872E+01  1.761E-01  2.000E+01  2.000E+04 -2.174E-02
   1   17   28     3     7    1.8963E+05 -1.8521E+03   1.9148E+05  0.000E+00  0.000E+00  0.000E+00  3.23990E+01  1.767E-01  2.000E+01  2.000E+04 -9.261E-02
   1   18   29     3     8    1.9148E+05 -3.5555E+03   1.9504E+05  0.000E+00  0.000E+00  0.000E+00  3.15116E+01  1.782E-01  2.000E+01  2.000E+04 -1.778E-01
   1   18   30     3     9    1.9504E+05 -3.5576E+03   1.9860E+05  0.000E+00  0.000E+00  0.000E+00  3.06246E+01  1.802E-01  2.000E+01  2.000E+04 -1.779E-01



1
              HEAD IN LAYER   1 AT END OF TIME STEP   1 IN STRESS PERIOD    3
  ---------------------------------------------------------------------------

          1      2      3      4      5      6      7      8      9     10
         11     12     13     14     15     16     17     18     19     20
         21     22     23     24     25     26     27     28     29     30
 .........................................................................
   1  ****** ****** ****** ****** ****** ****** ****** ****** ****** ******
      ****** ****** ****** ****** ****** ****** ****** ****** ****** ******
      ****** ****** ****** ****** ****** ****** ****** ****** ****** ******
   2  ****** ****** ****** ****** ****** ****** ****** ****** ****** ******
      ****** ****** ****** ****** ****** ****** ****** ****** ****** ******
      ****** ****** ****** ****** ****** ****** ****** ****** ****** ******
   3  ****** ****** ****** ****** ****** ****** ****** ****** ****** ******
      ****** ****** ****** ****** ****** ****** ****** ****** ****** ******
      ****** ****** ****** ****** ****** ****** ****** ****** ****** ******
   4  ****** ****** ****** ****** ****** ****** ****** ****** ****** ******
      ****** ****** ****** ****** ****** ****** ****** ****** ****** ******
      ****** ****** ****** ****** ****** ****** ****** ****** ****** ******
   5  ****** ****** ****** ****** ****** ****** ****** ****** ****** ******
      ****** ****** ****** ****** ****** ****** ****** ****** ****** ******
      ****** ****** ****** ****** ****** ****** ****** ****** ****** ******
   6  ****** ****** ****** ****** ****** ****** ****** ****** ****** ******
      ****** ****** ****** ****** ****** ****** ****** ****** ****** ******
      ****** ****** ****** ****** ****** ****** ****** ****** ****** ******
   7  ****** ****** ****** ****** ****** ****** ****** ****** ****** ******
      ****** ****** ****** ****** ****** ****** ****** ****** ****** ******
      ****** ****** ****** ****** ****** ****** ****** ****** ****** ******
   8  ****** ****** ****** ****** ****** ****** ****** ****** ****** ******
      ****** ****** ****** ****** ****** ****** ****** ****** ****** ******
      ****** ****** ****** ****** ****** ****** ****** ****** ****** ******
   9  ****** ****** ****** ****** ****** ****** ****** ****** ****** ******
      ****** ****** ****** ****** ****** ****** ****** ****** ****** ******
      ****** ****** ****** ****** ****** ****** ****** ****** ****** ******
  10  ****** ****** ****** ****** ****** ****** ****** ****** ****** ******
      ****** ****** ****** ****** ****** ****** ****** ****** ****** ******
      ****** ****** ****** ****** ****** ****** ****** ****** ****** ******
  11  ****** ****** ****** ****** ****** ****** ****** ****** ****** ******
      ****** ****** ****** ****** ****** ****** ****** ****** ****** ******
      ****** ****** ****** ****** ****** ****** ****** ****** ****** ******
  12  ****** ****** ****** ****** ****** ****** ****** ****** ****** ******
      ****** ****** ****** ****** ****** ****** ****** ****** ****** ******
      ****** ****** ****** ****** ****** ****** ****** ****** ****** ******
  13  ****** ****** ****** ****** ****** ****** ****** ****** ****** ******
      ****** ****** ****** ****** ****** ****** ****** ****** ****** ******
      ****** ****** ****** ****** ****** ****** ****** ****** ****** ******
  14  ****** ****** ****** ****** ****** ****** ****** ****** ****** ******
      ****** ****** ****** ****** ****** ****** ****** ****** ****** ******
      ****** ****** ****** ****** ****** ****** ****** ****** ****** ******
  15  ****** ****** ****** ****** ****** ****** ****** ****** ****** ******
      ****** ****** ****** ****** ****** ****** ****** ****** ****** ******
      ****** ****** ****** ****** ****** ****** ****** ****** ****** ******
  16  ****** ****** ****** ****** ****** ****** ****** ****** ****** ******
      ****** ****** ****** ****** ****** ****** ****** ****** ****** ******
      ****** ****** ****** ****** ****** ****** ****** ****** ****** ******
  17  ****** ****** ****** ****** ****** ****** ****** ****** ****** ******
      ****** ****** ****** ****** ****** ****** ****** ****** ****** ******
      ****** ****** ****** ****** ****** ****** ****** ****** ****** ******
  18  ****** ****** ****** ****** ****** ****** ****** ****** ****** ******
      ****** ****** ****** ****** ****** ****** ****** ****** ****** ******
      ****** ****** ****** ****** ****** ****** ****** ****** ****** ******
  19  ****** ****** ****** ****** ****** ****** ****** ****** ****** ******
      ****** ****** ****** ****** ****** ****** ****** ****** ****** ******
      ****** ****** ****** ****** ****** ****** ****** ****** ****** ******
  20  ****** ****** ****** ****** ****** ****** ****** ****** ****** ******
      ****** ****** ****** ****** ****** ****** ****** ****** ****** ******
      ****** ****** ****** ****** ****** ****** ****** ****** ****** ******
  21  ****** ****** ****** ****** ****** ****** ****** ****** ****** ******
      ****** ****** ****** ****** ****** ****** ****** ****** ****** ******
      ****** ****** ****** ****** ****** ****** ****** ****** ****** ******
  22  ****** ****** ****** ****** ****** ****** ****** ****** ****** ******
      ****** ****** ****** ****** ****** ****** ****** ****** ****** ******
      ****** ****** ****** ****** ****** ****** ****** ****** ****** ******
  23  ****** ****** ****** ****** ****** ****** ****** ****** ****** ******
      ****** ****** ****** ****** ****** ****** ****** ****** ****** ******
      ****** ****** ****** ****** ****** ****** ****** ****** ****** ******
  24  ****** ****** ****** ****** ****** ****** ****** ****** ****** ******
      ****** ****** ****** ****** ****** ****** ****** ****** ****** ******
      ****** ****** ****** ****** ****** ****** ****** ****** ****** ******
  25  ****** ****** ****** ****** ****** ****** ****** ****** ****** ******
      ****** ****** ****** ****** ****** ****** ****** ****** ****** ******
      ****** ****** ****** ****** ****** ****** ****** ****** ****** ******

 HEAD WILL BE SAVED ON UNIT   51 AT END OF TIME STEP    1, STRESS PERIOD    3
1
  VOLUMETRIC BUDGET FOR ENTIRE MODEL AT END OF TIME STEP    1, STRESS PERIOD   3
  ------------------------------------------------------------------------------

     CUMULATIVE VOLUMES      L**3       RATES FOR THIS TIME STEP      L**3/T
     ------------------                 ------------------------

           IN:                                      IN:
           ---                                      ---
             STORAGE =    28108819.1728               STORAGE =       56300.3768
       CONSTANT HEAD =     5169249.7085         CONSTANT HEAD =       26302.3629
               WELLS =           0.0000                 WELLS =           0.0000
            RECHARGE =     6292800.0000              RECHARGE =           0.0000
      STREAM LEAKAGE =     1817790.5661        STREAM LEAKAGE =        8585.9060

            TOTAL IN =    41388659.4473              TOTAL IN =       91188.6458

          OUT:                                     OUT:
          ----                                     ----
             STORAGE =           0.0000               STORAGE =           0.0000
       CONSTANT HEAD =           0.0000         CONSTANT HEAD =           0.0000
               WELLS =     9317617.5991                 WELLS =       34005.9036
            RECHARGE =           0.0000              RECHARGE =           0.0000
      STREAM LEAKAGE =    32071043.7697        STREAM LEAKAGE =       57182.7496

           TOTAL OUT =    41388661.3689             TOTAL OUT =       91188.6533

            IN - OUT =          -1.9215              IN - OUT =      -7.5263E-03

 PERCENT DISCREPANCY =          -0.00     PERCENT DISCREPANCY =          -0.00






         TIME SUMMARY AT END OF TIME STEP    1 IN STRESS PERIOD    3
                    SECONDS     MINUTES      HOURS       DAYS        YEARS
                    -----------------------------------------------------------
   TIME STEP LENGTH 7.86240E+06 1.31040E+05  2184.0      91.000     0.24914    
 STRESS PERIOD TIME 7.86240E+06 1.31040E+05  2184.0      91.000     0.24914    
         TOTAL TIME 2.36736E+07 3.94560E+05  6576.0      274.00     0.75017    
1
1
                            STRESS PERIOD NO.    4, LENGTH =   91.00000    
                            -----------------------------------------------

                              NUMBER OF TIME STEPS =     1

                               MULTIPLIER FOR DELT =     1.500

                            INITIAL TIME STEP SIZE =   91.00000    

 WELL NO.  LAYER   ROW   COL   STRESS RATE         
 --------------------------------------------------
      1      1     14      6       0.000    
      2      1      3      9       0.000    
      3      1     20     10       0.000    
      4      1     14     20       0.000    
      5      1     12     22      -9012.    
      6      1     10     16      -9566.    
      7      1      6     24      -8299.    
      8      1      6     17      -7129.    

      8 WELLS

                 RECHARGE =  1.000000E-03

 REUSING STREAM SEGMENT DATA FROM LAST STRESS PERIOD
 
 SOLVING FOR HEAD 


     6 CALLS TO PCG ROUTINE FOR TIME STEP   1 IN STRESS PERIOD    4
    23 TOTAL ITERATIONS

 OUTPUT CONTROL FOR STRESS PERIOD    4   TIME STEP    1
    SAVE BUDGET
    SAVE HEAD FOR ALL LAYERS
    PRINT HEAD FOR ALL LAYERS
 UBDSV2 SAVING "STREAMFLOW OUT  " ON UNIT  50 AT TIME STEP  1, STRESS PERIOD   4



 STREAM LISTING     PERIOD      4   STEP        1

 LAYER ROW COL. STREAM  RCH.  FLOW INTO     FLOW TO   FLOW OUT OF   OVRLND.     DIRECT     STREAM       STREAM     STREAM     STREAM   STREAMBED  STREAMBED
                SEG.NO.  NO.  STRM. RCH.    AQUIFER    STRM. RCH.    RUNOFF     PRECIP       ET          HEAD       DEPTH      WIDTH   CONDCTNC.   GRADIENT

   1   13    1     1     1    1.0000E+05 -2.4416E+03   1.0244E+05  0.000E+00  0.000E+00  0.000E+00  4.84071E+01  1.457E-01  2.000E+01  2.000E+04 -1.221E-01
   1   13    2     1     2    1.0244E+05 -3.5049E+03   1.0595E+05  0.000E+00  0.000E+00  0.000E+00  4.79324E+01  1.483E-01  2.000E+01  2.000E+04 -1.752E-01
   1   14    3     1     3    1.0595E+05 -6.2111E+02   1.0657E+05  0.000E+00  0.000E+00  0.000E+00  4.74568E+01  1.500E-01  2.000E+01  2.000E+04 -3.106E-02
   1   15    4     1     4    1.0657E+05 -5.9796E+02   1.0717E+05  0.000E+00  0.000E+00  0.000E+00  4.69801E+01  1.505E-01  2.000E+01  2.000E+04 -2.990E-02
   1   16    5     1     5    1.0717E+05 -2.1736E+03   1.0934E+05  0.000E+00  0.000E+00  0.000E+00  4.65040E+01  1.517E-01  2.000E+01  2.000E+04 -1.087E-01
   1   16    6     1     6    1.0934E+05 -1.3645E+03   1.1070E+05  0.000E+00  0.000E+00  0.000E+00  4.60282E+01  1.532E-01  2.000E+01  2.000E+04 -6.822E-02
   1   16    7     1     7    1.1070E+05 -1.3394E+03   1.1204E+05  0.000E+00  0.000E+00  0.000E+00  4.55520E+01  1.543E-01  2.000E+01  2.000E+04 -6.697E-02
   1   16    8     1     8    1.1204E+05 -1.3328E+03   1.1338E+05  0.000E+00  0.000E+00  0.000E+00  4.50759E+01  1.554E-01  2.000E+01  2.000E+04 -6.664E-02
   1   16    9     1     9    1.1338E+05 -1.3201E+03   1.1470E+05  0.000E+00  0.000E+00  0.000E+00  4.45997E+01  1.565E-01  2.000E+01  2.000E+04 -6.601E-02
   1   16   10     1    10    1.1470E+05 -1.3011E+03   1.1600E+05  0.000E+00  0.000E+00  0.000E+00  4.41235E+01  1.576E-01  2.000E+01  2.000E+04 -6.506E-02
   1   16   11     1    11    1.1600E+05 -1.3037E+03   1.1730E+05  0.000E+00  0.000E+00  0.000E+00  4.36473E+01  1.587E-01  2.000E+01  2.000E+04 -6.519E-02
   1   16   12     1    12    1.1730E+05 -2.2099E+03   1.1951E+05  0.000E+00  0.000E+00  0.000E+00  4.31714E+01  1.601E-01  2.000E+01  2.000E+04 -1.105E-01
   1   15   13     1    13    1.1951E+05 -1.9231E+03   1.2143E+05  0.000E+00  0.000E+00  0.000E+00  4.26958E+01  1.618E-01  2.000E+01  2.000E+04 -9.615E-02
   1   14   14     1    14    1.2143E+05 -1.9291E+03   1.2336E+05  0.000E+00  0.000E+00  0.000E+00  4.22201E+01  1.633E-01  2.000E+01  2.000E+04 -9.645E-02
   1   13   15     1    15    1.2336E+05 -1.6659E+03   1.2503E+05  0.000E+00  0.000E+00  0.000E+00  4.17443E+01  1.647E-01  2.000E+01  2.000E+04 -8.330E-02
   1   12   16     1    16    1.2503E+05 -4.0319E+02   1.2543E+05  0.000E+00  0.000E+00  0.000E+00  4.12678E+01  1.656E-01  2.000E+01  2.000E+04 -2.016E-02
   1   12   17     1    17    1.2543E+05 -4.3222E+02   1.2586E+05  0.000E+00  0.000E+00  0.000E+00  4.07909E+01  1.659E-01  2.000E+01  2.000E+04 -2.161E-02
   1   12   18     1    18    1.2586E+05 -6.8830E+02   1.2655E+05  0.000E+00  0.000E+00  0.000E+00  4.03141E+01  1.663E-01  2.000E+01  2.000E+04 -3.442E-02
   1   12   19     1    19    1.2655E+05 -4.9166E+02   1.2704E+05  0.000E+00  0.000E+00  0.000E+00  3.98373E+01  1.668E-01  2.000E+01  2.000E+04 -2.458E-02
   1   13   20     1    20    1.2704E+05 -3.0423E+02   1.2735E+05  0.000E+00  0.000E+00  0.000E+00  3.93603E+01  1.671E-01  2.000E+01  2.000E+04 -1.521E-02
   1   14   21     1    21    1.2735E+05 -1.1666E+03   1.2851E+05  0.000E+00  0.000E+00  0.000E+00  3.88836E+01  1.677E-01  2.000E+01  2.000E+04 -5.833E-02
   1   14   22     1    22    1.2851E+05  5.3656E+03   1.2315E+05  0.000E+00  0.000E+00  0.000E+00  3.84047E+01  1.660E-01  2.000E+01  2.000E+04  2.683E-01
   1    9   30     2     1    5.0000E+04 -3.5939E+02   5.0359E+04  0.000E+00  0.000E+00  0.000E+00  4.02411E+01  1.161E-01  2.000E+01  2.000E+04 -1.797E-02
   1    9   29     2     2    5.0359E+04 -5.9864E+02   5.0958E+04  0.000E+00  0.000E+00  0.000E+00  3.99918E+01  1.168E-01  2.000E+01  2.000E+04 -2.993E-02
   1    9   28     2     3    5.0958E+04 -7.0261E+02   5.1661E+04  0.000E+00  0.000E+00  0.000E+00  3.97427E+01  1.177E-01  2.000E+01  2.000E+04 -3.513E-02
   1    9   27     2     4    5.1661E+04 -1.1459E+03   5.2807E+04  0.000E+00  0.000E+00  0.000E+00  3.94939E+01  1.189E-01  2.000E+01  2.000E+04 -5.730E-02
   1   10   26     2     5    5.2807E+04 -4.9881E+02   5.3305E+04  0.000E+00  0.000E+00  0.000E+00  3.92451E+01  1.201E-01  2.000E+01  2.000E+04 -2.494E-02
   1   11   25     2     6    5.3305E+04 -1.6824E+02   5.3474E+04  0.000E+00  0.000E+00  0.000E+00  3.89955E+01  1.205E-01  2.000E+01  2.000E+04 -8.412E-03
   1   12   24     2     7    5.3474E+04  9.7412E+02   5.2500E+04  0.000E+00  0.000E+00  0.000E+00  3.87450E+01  1.200E-01  2.000E+01  2.000E+04  4.871E-02
   1   13   23     2     8    5.2500E+04  3.7271E+02   5.2127E+04  0.000E+00  0.000E+00  0.000E+00  3.84941E+01  1.191E-01  2.000E+01  2.000E+04  1.864E-02
   1   14   22     2     9    5.2127E+04  2.1191E+03   5.0008E+04  0.000E+00  0.000E+00  0.000E+00  3.82423E+01  1.173E-01  2.000E+01  2.000E+04  1.060E-01
   1   14   22     3     1    1.7316E+05 -8.2320E+03   1.8139E+05  0.000E+00  0.000E+00  0.000E+00  3.77248E+01  1.692E-01  2.000E+01  2.000E+04 -4.116E-01
   1   15   23     3     2    1.8139E+05 -6.4822E+02   1.8204E+05  0.000E+00  0.000E+00  0.000E+00  3.68384E+01  1.718E-01  2.000E+01  2.000E+04 -3.241E-02
   1   15   24     3     3    1.8204E+05 -3.4594E+02   1.8238E+05  0.000E+00  0.000E+00  0.000E+00  3.59498E+01  1.720E-01  2.000E+01  2.000E+04 -1.730E-02
   1   15   25     3     4    1.8238E+05 -3.3439E+02   1.8272E+05  0.000E+00  0.000E+00  0.000E+00  3.50611E+01  1.722E-01  2.000E+01  2.000E+04 -1.672E-02
   1   15   26     3     5    1.8272E+05 -3.7952E+02   1.8310E+05  0.000E+00  0.000E+00  0.000E+00  3.41724E+01  1.724E-01  2.000E+01  2.000E+04 -1.898E-02
   1   16   27     3     6    1.8310E+05 -4.3714E+02   1.8353E+05  0.000E+00  0.000E+00  0.000E+00  3.32838E+01  1.727E-01  2.000E+01  2.000E+04 -2.186E-02
   1   17   28     3     7    1.8353E+05 -1.7960E+03   1.8533E+05  0.000E+00  0.000E+00  0.000E+00  3.23955E+01  1.733E-01  2.000E+01  2.000E+04 -8.980E-02
   1   18   29     3     8    1.8533E+05 -3.3543E+03   1.8868E+05  0.000E+00  0.000E+00  0.000E+00  3.15081E+01  1.747E-01  2.000E+01  2.000E+04 -1.677E-01
   1   18   30     3     9    1.8868E+05 -3.4595E+03   1.9214E+05  0.000E+00  0.000E+00  0.000E+00  3.06211E+01  1.767E-01  2.000E+01  2.000E+04 -1.730E-01



1
              HEAD IN LAYER   1 AT END OF TIME STEP   1 IN STRESS PERIOD    4
  ---------------------------------------------------------------------------

          1      2      3      4      5      6      7      8      9     10
         11     12     13     14     15     16     17     18     19     20
         21     22     23     24     25     26     27     28     29     30
 .........................................................................
   1  ****** ****** ****** ****** ****** ****** ****** ****** ****** ******
      ****** ****** ****** ****** ****** ****** ****** ****** ****** ******
      ****** ****** ****** ****** ****** ****** ****** ****** ****** ******
   2  ****** ****** ****** ****** ****** ****** ****** ****** ****** ******
      ****** ****** ****** ****** ****** ****** ****** ****** ****** ******
      ****** ****** ****** ****** ****** ****** ****** ****** ****** ******
   3  ****** ****** ****** ****** ****** ****** ****** ****** ****** ******
      ****** ****** ****** ****** ****** ****** ****** ****** ****** ******
      ****** ****** ****** ****** ****** ****** ****** ****** ****** ******
   4  ****** ****** ****** ****** ****** ****** ****** ****** ****** ******
      ****** ****** ****** ****** ****** ****** ****** ****** ****** ******
      ****** ****** ****** ****** ****** ****** ****** ****** ****** ******
   5  ****** ****** ****** ****** ****** ****** ****** ****** ****** ******
      ****** ****** ****** ****** ****** ****** ****** ****** ****** ******
      ****** ****** ****** ****** ****** ****** ****** ****** ****** ******
   6  ****** ****** ****** ****** ****** ****** ****** ****** ****** ******
      ****** ****** ****** ****** ****** ****** ****** ****** ****** ******
      ****** ****** ****** ****** ****** ****** ****** ****** ****** ******
   7  ****** ****** ****** ****** ****** ****** ****** ****** ****** ******
      ****** ****** ****** ****** ****** ****** ****** ****** ****** ******
      ****** ****** ****** ****** ****** ****** ****** ****** ****** ******
   8  ****** ****** ****** ****** ****** ****** ****** ****** ****** ******
      ****** ****** ****** ****** ****** ****** ****** ****** ****** ******
      ****** ****** ****** ****** ****** ****** ****** ****** ****** ******
   9  ****** ****** ****** ****** ****** ****** ****** ****** ****** ******
      ****** ****** ****** ****** ****** ****** ****** ****** ****** ******
      ****** ****** ****** ****** ****** ****** ****** ****** ****** ******
  10  ****** ****** ****** ****** ****** ****** ****** ****** ****** ******
      ****** ****** ****** ****** ****** ****** ****** ****** ****** ******
      ****** ****** ****** ****** ****** ****** ****** ****** ****** ******
  11  ****** ****** ****** ****** ****** ****** ****** ****** ****** ******
      ****** ****** ****** ****** ****** ****** ****** ****** ****** ******
      ****** ****** ****** ****** ****** ****** ****** ****** ****** ******
  12  ****** ****** ****** ****** ****** ****** ****** ****** ****** ******
      ****** ****** ****** ****** ****** ****** ****** ****** ****** ******
      ****** ****** ****** ****** ****** ****** ****** ****** ****** ******
  13  ****** ****** ****** ****** ****** ****** ****** ****** ****** ******
      ****** ****** ****** ****** ****** ****** ****** ****** ****** ******
      ****** ****** ****** ****** ****** ****** ****** ****** ****** ******
  14  ****** ****** ****** ****** ****** ****** ****** ****** ****** ******
      ****** ****** ****** ****** ****** ****** ****** ****** ****** ******
      ****** ****** ****** ****** ****** ****** ****** ****** ****** ******
  15  ****** ****** ****** ****** ****** ****** ****** ****** ****** ******
      ****** ****** ****** ****** ****** ****** ****** ****** ****** ******
      ****** ****** ****** ****** ****** ****** ****** ****** ****** ******
  16  ****** ****** ****** ****** ****** ****** ****** ****** ****** ******
      ****** ****** ****** ****** ****** ****** ****** ****** ****** ******
      ****** ****** ****** ****** ****** ****** ****** ****** ****** ******
  17  ****** ****** ****** ****** ****** ****** ****** ****** ****** ******
      ****** ****** ****** ****** ****** ****** ****** ****** ****** ******
      ****** ****** ****** ****** ****** ****** ****** ****** ****** ******
  18  ****** ****** ****** ****** ****** ****** ****** ****** ****** ******
      ****** ****** ****** ****** ****** ****** ****** ****** ****** ******
      ****** ****** ****** ****** ****** ****** ****** ****** ****** ******
  19  ****** ****** ****** ****** ****** ****** ****** ****** ****** ******
      ****** ****** ****** ****** ****** ****** ****** ****** ****** ******
      ****** ****** ****** ****** ****** ****** ****** ****** ****** ******
  20  ****** ****** ****** ****** ****** ****** ****** ****** ****** ******
      ****** ****** ****** ****** ****** ****** ****** ****** ****** ******
      ****** ****** ****** ****** ****** ****** ****** ****** ****** ******
  21  ****** ****** ****** ****** ****** ****** ****** ****** ****** ******
      ****** ****** ****** ****** ****** ****** ****** ****** ****** ******
      ****** ****** ****** ****** ****** ****** ****** ****** ****** ******
  22  ****** ****** ****** ****** ****** ****** ****** ****** ****** ******
      ****** ****** ****** ****** ****** ****** ****** ****** ****** ******
      ****** ****** ****** ****** ****** ****** ****** ****** ****** ******
  23  ****** ****** ****** ****** ****** ****** ****** ****** ****** ******
      ****** ****** ****** ****** ****** ****** ****** ****** ****** ******
      ****** ****** ****** ****** ****** ****** ****** ****** ****** ******
  24  ****** ****** ****** ****** ****** ****** ****** ****** ****** ******
      ****** ****** ****** ****** ****** ****** ****** ****** ****** ******
      ****** ****** ****** ****** ****** ****** ****** ****** ****** ******
  25  ****** ****** ****** ****** ****** ****** ****** ****** ****** ******
      ****** ****** ****** ****** ****** ****** ****** ****** ****** ******
      ****** ****** ****** ****** ****** ****** ****** ****** ****** ******

 HEAD WILL BE SAVED ON UNIT   51 AT END OF TIME STEP    1, STRESS PERIOD    4
1
  VOLUMETRIC BUDGET FOR ENTIRE MODEL AT END OF TIME STEP    1, STRESS PERIOD   4
  ------------------------------------------------------------------------------

     CUMULATIVE VOLUMES      L**3       RATES FOR THIS TIME STEP      L**3/T
     ------------------                 ------------------------

           IN:                                      IN:
           ---                                      ---
             STORAGE =    29885299.2293               STORAGE =       19521.7589
       CONSTANT HEAD =     7811950.5093         CONSTANT HEAD =       29040.6681
               WELLS =           0.0000                 WELLS =           0.0000
            RECHARGE =     8804400.0000              RECHARGE =       27600.0000
      STREAM LEAKAGE =     2621459.3720        STREAM LEAKAGE =        8831.5253

            TOTAL IN =    49123109.1106              TOTAL IN =       84993.9523

          OUT:                                     OUT:
          ----                                     ----
             STORAGE =        1125.5530               STORAGE =          12.3687
       CONSTANT HEAD =           0.0000         CONSTANT HEAD =           0.0000
               WELLS =    12412154.8309                 WELLS =       34005.9036
            RECHARGE =           0.0000              RECHARGE =           0.0000
      STREAM LEAKAGE =    36709830.7237        STREAM LEAKAGE =       50975.6808

           TOTAL OUT =    49123111.1076             TOTAL OUT =       84993.9532

            IN - OUT =          -1.9971              IN - OUT =      -8.3011E-04

 PERCENT DISCREPANCY =          -0.00     PERCENT DISCREPANCY =          -0.00






         TIME SUMMARY AT END OF TIME STEP    1 IN STRESS PERIOD    4
                    SECONDS     MINUTES      HOURS       DAYS        YEARS
                    -----------------------------------------------------------
   TIME STEP LENGTH 7.86240E+06 1.31040E+05  2184.0      91.000     0.24914    
 STRESS PERIOD TIME 7.86240E+06 1.31040E+05  2184.0      91.000     0.24914    
         TOTAL TIME 3.15360E+07 5.25600E+05  8760.0      365.00     0.99932    
1
1
                            STRESS PERIOD NO.    5, LENGTH =   92.00000    
                            -----------------------------------------------

                              NUMBER OF TIME STEPS =     1

                               MULTIPLIER FOR DELT =     1.500

                            INITIAL TIME STEP SIZE =   92.00000    

 WELL NO.  LAYER   ROW   COL   STRESS RATE         
 --------------------------------------------------
      1      1     14      6       0.000    
      2      1      3      9       0.000    
      3      1     20     10       0.000    
      4      1     14     20       0.000    
      5      1     12     22      -9012.    
      6      1     10     16      -9566.    
      7      1      6     24      -8299.    
      8      1      6     17      -7129.    

      8 WELLS

                 RECHARGE =  5.000000E-04

 REUSING STREAM SEGMENT DATA FROM LAST STRESS PERIOD
 
 SOLVING FOR HEAD 


     7 CALLS TO PCG ROUTINE FOR TIME STEP   1 IN STRESS PERIOD    5
    26 TOTAL ITERATIONS

 OUTPUT CONTROL FOR STRESS PERIOD    5   TIME STEP    1
    SAVE BUDGET
    SAVE HEAD FOR ALL LAYERS
    PRINT HEAD FOR ALL LAYERS
 UBDSV2 SAVING "STREAMFLOW OUT  " ON UNIT  50 AT TIME STEP  1, STRESS PERIOD   5



 STREAM LISTING     PERIOD      5   STEP        1

 LAYER ROW COL. STREAM  RCH.  FLOW INTO     FLOW TO   FLOW OUT OF   OVRLND.     DIRECT     STREAM       STREAM     STREAM     STREAM   STREAMBED  STREAMBED
                SEG.NO.  NO.  STRM. RCH.    AQUIFER    STRM. RCH.    RUNOFF     PRECIP       ET          HEAD       DEPTH      WIDTH   CONDCTNC.   GRADIENT

   1   13    1     1     1    1.0000E+05 -2.0073E+03   1.0201E+05  0.000E+00  0.000E+00  0.000E+00  4.84069E+01  1.455E-01  2.000E+01  2.000E+04 -1.004E-01
   1   13    2     1     2    1.0201E+05 -3.0140E+03   1.0502E+05  0.000E+00  0.000E+00  0.000E+00  4.79318E+01  1.477E-01  2.000E+01  2.000E+04 -1.507E-01
   1   14    3     1     3    1.0502E+05 -4.9684E+02   1.0552E+05  0.000E+00  0.000E+00  0.000E+00  4.74560E+01  1.492E-01  2.000E+01  2.000E+04 -2.484E-02
   1   15    4     1     4    1.0552E+05 -4.6802E+02   1.0599E+05  0.000E+00  0.000E+00  0.000E+00  4.69791E+01  1.496E-01  2.000E+01  2.000E+04 -2.340E-02
   1   16    5     1     5    1.0599E+05 -1.7468E+03   1.0773E+05  0.000E+00  0.000E+00  0.000E+00  4.65028E+01  1.505E-01  2.000E+01  2.000E+04 -8.734E-02
   1   16    6     1     6    1.0773E+05 -1.1137E+03   1.0885E+05  0.000E+00  0.000E+00  0.000E+00  4.60267E+01  1.517E-01  2.000E+01  2.000E+04 -5.569E-02
   1   16    7     1     7    1.0885E+05 -1.0988E+03   1.0995E+05  0.000E+00  0.000E+00  0.000E+00  4.55504E+01  1.527E-01  2.000E+01  2.000E+04 -5.494E-02
   1   16    8     1     8    1.0995E+05 -1.0960E+03   1.1104E+05  0.000E+00  0.000E+00  0.000E+00  4.50740E+01  1.536E-01  2.000E+01  2.000E+04 -5.480E-02
   1   16    9     1     9    1.1104E+05 -1.0867E+03   1.1213E+05  0.000E+00  0.000E+00  0.000E+00  4.45977E+01  1.545E-01  2.000E+01  2.000E+04 -5.433E-02
   1   16   10     1    10    1.1213E+05 -1.0720E+03   1.1320E+05  0.000E+00  0.000E+00  0.000E+00  4.41213E+01  1.554E-01  2.000E+01  2.000E+04 -5.360E-02
   1   16   11     1    11    1.1320E+05 -1.0757E+03   1.1428E+05  0.000E+00  0.000E+00  0.000E+00  4.36449E+01  1.563E-01  2.000E+01  2.000E+04 -5.379E-02
   1   16   12     1    12    1.1428E+05 -1.8005E+03   1.1608E+05  0.000E+00  0.000E+00  0.000E+00  4.31688E+01  1.574E-01  2.000E+01  2.000E+04 -9.002E-02
   1   15   13     1    13    1.1608E+05 -1.4788E+03   1.1756E+05  0.000E+00  0.000E+00  0.000E+00  4.26929E+01  1.588E-01  2.000E+01  2.000E+04 -7.394E-02
   1   14   14     1    14    1.1756E+05 -1.4470E+03   1.1900E+05  0.000E+00  0.000E+00  0.000E+00  4.22168E+01  1.600E-01  2.000E+01  2.000E+04 -7.235E-02
   1   13   15     1    15    1.1900E+05 -1.1555E+03   1.2016E+05  0.000E+00  0.000E+00  0.000E+00  4.17406E+01  1.610E-01  2.000E+01  2.000E+04 -5.778E-02
   1   12   16     1    16    1.2016E+05  1.7504E+02   1.1998E+05  0.000E+00  0.000E+00  0.000E+00  4.12637E+01  1.614E-01  2.000E+01  2.000E+04  8.752E-03
   1   12   17     1    17    1.1998E+05 -5.0475E+01   1.2003E+05  0.000E+00  0.000E+00  0.000E+00  4.07864E+01  1.614E-01  2.000E+01  2.000E+04 -2.524E-03
   1   12   18     1    18    1.2003E+05 -3.2589E+02   1.2036E+05  0.000E+00  0.000E+00  0.000E+00  4.03093E+01  1.615E-01  2.000E+01  2.000E+04 -1.629E-02
   1   12   19     1    19    1.2036E+05 -4.6519E+01   1.2041E+05  0.000E+00  0.000E+00  0.000E+00  3.98321E+01  1.617E-01  2.000E+01  2.000E+04 -2.326E-03
   1   13   20     1    20    1.2041E+05  6.2446E+01   1.2034E+05  0.000E+00  0.000E+00  0.000E+00  3.93549E+01  1.617E-01  2.000E+01  2.000E+04  3.122E-03
   1   14   21     1    21    1.2034E+05 -7.9433E+02   1.2114E+05  0.000E+00  0.000E+00  0.000E+00  3.88779E+01  1.620E-01  2.000E+01  2.000E+04 -3.972E-02
   1   14   22     1    22    1.2114E+05  5.4458E+03   1.1569E+05  0.000E+00  0.000E+00  0.000E+00  3.83987E+01  1.601E-01  2.000E+01  2.000E+04  2.723E-01
   1    9   30     2     1    5.0000E+04 -1.1020E+02   5.0110E+04  0.000E+00  0.000E+00  0.000E+00  4.02409E+01  1.159E-01  2.000E+01  2.000E+04 -5.510E-03
   1    9   29     2     2    5.0110E+04 -3.4490E+02   5.0455E+04  0.000E+00  0.000E+00  0.000E+00  3.99913E+01  1.163E-01  2.000E+01  2.000E+04 -1.724E-02
   1    9   28     2     3    5.0455E+04 -4.3427E+02   5.0889E+04  0.000E+00  0.000E+00  0.000E+00  3.97418E+01  1.168E-01  2.000E+01  2.000E+04 -2.171E-02
   1    9   27     2     4    5.0889E+04 -7.1546E+02   5.1605E+04  0.000E+00  0.000E+00  0.000E+00  3.94926E+01  1.176E-01  2.000E+01  2.000E+04 -3.577E-02
   1   10   26     2     5    5.1605E+04 -1.2781E+02   5.1733E+04  0.000E+00  0.000E+00  0.000E+00  3.92432E+01  1.182E-01  2.000E+01  2.000E+04 -6.390E-03
   1   11   25     2     6    5.1733E+04  1.7089E+02   5.1562E+04  0.000E+00  0.000E+00  0.000E+00  3.89931E+01  1.181E-01  2.000E+01  2.000E+04  8.544E-03
   1   12   24     2     7    5.1562E+04  1.2845E+03   5.0277E+04  0.000E+00  0.000E+00  0.000E+00  3.87421E+01  1.171E-01  2.000E+01  2.000E+04  6.423E-02
   1   13   23     2     8    5.0277E+04  4.4505E+02   4.9832E+04  0.000E+00  0.000E+00  0.000E+00  3.84909E+01  1.159E-01  2.000E+01  2.000E+04  2.225E-02
   1   14   22     2     9    4.9832E+04  2.2524E+03   4.7580E+04  0.000E+00  0.000E+00  0.000E+00  3.82391E+01  1.141E-01  2.000E+01  2.000E+04  1.126E-01
   1   14   22     3     1    1.6327E+05 -8.1480E+03   1.7142E+05  0.000E+00  0.000E+00  0.000E+00  3.77190E+01  1.635E-01  2.000E+01  2.000E+04 -4.074E-01
   1   15   23     3     2    1.7142E+05 -5.5230E+02   1.7197E+05  0.000E+00  0.000E+00  0.000E+00  3.68327E+01  1.660E-01  2.000E+01  2.000E+04 -2.762E-02
   1   15   24     3     3    1.7197E+05 -2.7505E+02   1.7225E+05  0.000E+00  0.000E+00  0.000E+00  3.59440E+01  1.663E-01  2.000E+01  2.000E+04 -1.375E-02
   1   15   25     3     4    1.7225E+05 -2.6391E+02   1.7251E+05  0.000E+00  0.000E+00  0.000E+00  3.50553E+01  1.664E-01  2.000E+01  2.000E+04 -1.320E-02
   1   15   26     3     5    1.7251E+05 -3.0789E+02   1.7282E+05  0.000E+00  0.000E+00  0.000E+00  3.41666E+01  1.666E-01  2.000E+01  2.000E+04 -1.539E-02
   1   16   27     3     6    1.7282E+05 -3.4753E+02   1.7317E+05  0.000E+00  0.000E+00  0.000E+00  3.32779E+01  1.668E-01  2.000E+01  2.000E+04 -1.738E-02
   1   17   28     3     7    1.7317E+05 -1.5314E+03   1.7470E+05  0.000E+00  0.000E+00  0.000E+00  3.23895E+01  1.673E-01  2.000E+01  2.000E+04 -7.657E-02
   1   18   29     3     8    1.7470E+05 -2.9876E+03   1.7768E+05  0.000E+00  0.000E+00  0.000E+00  3.15019E+01  1.686E-01  2.000E+01  2.000E+04 -1.494E-01
   1   18   30     3     9    1.7768E+05 -3.2063E+03   1.8089E+05  0.000E+00  0.000E+00  0.000E+00  3.06148E+01  1.704E-01  2.000E+01  2.000E+04 -1.603E-01



1
              HEAD IN LAYER   1 AT END OF TIME STEP   1 IN STRESS PERIOD    5
  ---------------------------------------------------------------------------

          1      2      3      4      5      6      7      8      9     10
         11     12     13     14     15     16     17     18     19     20
         21     22     23     24     25     26     27     28     29     30
 .........................................................................
   1  ****** ****** ****** ****** ****** ****** ****** ****** ****** ******
      ****** ****** ****** ****** ****** ****** ****** ****** ****** ******
      ****** ****** ****** ****** ****** ****** ****** ****** ****** ******
   2  ****** ****** ****** ****** ****** ****** ****** ****** ****** ******
      ****** ****** ****** ****** ****** ****** ****** ****** ****** ******
      ****** ****** ****** ****** ****** ****** ****** ****** ****** ******
   3  ****** ****** ****** ****** ****** ****** ****** ****** ****** ******
      ****** ****** ****** ****** ****** ****** ****** ****** ****** ******
      ****** ****** ****** ****** ****** ****** ****** ****** ****** ******
   4  ****** ****** ****** ****** ****** ****** ****** ****** ****** ******
      ****** ****** ****** ****** ****** ****** ****** ****** ****** ******
      ****** ****** ****** ****** ****** ****** ****** ****** ****** ******
   5  ****** ****** ****** ****** ****** ****** ****** ****** ****** ******
      ****** ****** ****** ****** ****** ****** ****** ****** ****** ******
      ****** ****** ****** ****** ****** ****** ****** ****** ****** ******
   6  ****** ****** ****** ****** ****** ****** ****** ****** ****** ******
      ****** ****** ****** ****** ****** ****** ****** ****** ****** ******
      ****** ****** ****** ****** ****** ****** ****** ****** ****** ******
   7  ****** ****** ****** ****** ****** ****** ****** ****** ****** ******
      ****** ****** ****** ****** ****** ****** ****** ****** ****** ******
      ****** ****** ****** ****** ****** ****** ****** ****** ****** ******
   8  ****** ****** ****** ****** ****** ****** ****** ****** ****** ******
      ****** ****** ****** ****** ****** ****** ****** ****** ****** ******
      ****** ****** ****** ****** ****** ****** ****** ****** ****** ******
   9  ****** ****** ****** ****** ****** ****** ****** ****** ****** ******
      ****** ****** ****** ****** ****** ****** ****** ****** ****** ******
      ****** ****** ****** ****** ****** ****** ****** ****** ****** ******
  10  ****** ****** ****** ****** ****** ****** ****** ****** ****** ******
      ****** ****** ****** ****** ****** ****** ****** ****** ****** ******
      ****** ****** ****** ****** ****** ****** ****** ****** ****** ******
  11  ****** ****** ****** ****** ****** ****** ****** ****** ****** ******
      ****** ****** ****** ****** ****** ****** ****** ****** ****** ******
      ****** ****** ****** ****** ****** ****** ****** ****** ****** ******
  12  ****** ****** ****** ****** ****** ****** ****** ****** ****** ******
      ****** ****** ****** ****** ****** ****** ****** ****** ****** ******
      ****** ****** ****** ****** ****** ****** ****** ****** ****** ******
  13  ****** ****** ****** ****** ****** ****** ****** ****** ****** ******
      ****** ****** ****** ****** ****** ****** ****** ****** ****** ******
      ****** ****** ****** ****** ****** ****** ****** ****** ****** ******
  14  ****** ****** ****** ****** ****** ****** ****** ****** ****** ******
      ****** ****** ****** ****** ****** ****** ****** ****** ****** ******
      ****** ****** ****** ****** ****** ****** ****** ****** ****** ******
  15  ****** ****** ****** ****** ****** ****** ****** ****** ****** ******
      ****** ****** ****** ****** ****** ****** ****** ****** ****** ******
      ****** ****** ****** ****** ****** ****** ****** ****** ****** ******
  16  ****** ****** ****** ****** ****** ****** ****** ****** ****** ******
      ****** ****** ****** ****** ****** ****** ****** ****** ****** ******
      ****** ****** ****** ****** ****** ****** ****** ****** ****** ******
  17  ****** ****** ****** ****** ****** ****** ****** ****** ****** ******
      ****** ****** ****** ****** ****** ****** ****** ****** ****** ******
      ****** ****** ****** ****** ****** ****** ****** ****** ****** ******
  18  ****** ****** ****** ****** ****** ****** ****** ****** ****** ******
      ****** ****** ****** ****** ****** ****** ****** ****** ****** ******
      ****** ****** ****** ****** ****** ****** ****** ****** ****** ******
  19  ****** ****** ****** ****** ****** ****** ****** ****** ****** ******
      ****** ****** ****** ****** ****** ****** ****** ****** ****** ******
      ****** ****** ****** ****** ****** ****** ****** ****** ****** ******
  20  ****** ****** ****** ****** ****** ****** ****** ****** ****** ******
      ****** ****** ****** ****** ****** ****** ****** ****** ****** ******
      ****** ****** ****** ****** ****** ****** ****** ****** ****** ******
  21  ****** ****** ****** ****** ****** ****** ****** ****** ****** ******
      ****** ****** ****** ****** ****** ****** ****** ****** ****** ******
      ****** ****** ****** ****** ****** ****** ****** ****** ****** ******
  22  ****** ****** ****** ****** ****** ****** ****** ****** ****** ******
      ****** ****** ****** ****** ****** ****** ****** ****** ****** ******
      ****** ****** ****** ****** ****** ****** ****** ****** ****** ******
  23  ****** ****** ****** ****** ****** ****** ****** ****** ****** ******
      ****** ****** ****** ****** ****** ****** ****** ****** ****** ******
      ****** ****** ****** ****** ****** ****** ****** ****** ****** ******
  24  ****** ****** ****** ****** ****** ****** ****** ****** ****** ******
      ****** ****** ****** ****** ****** ****** ****** ****** ****** ******
      ****** ****** ****** ****** ****** ****** ****** ****** ****** ******
  25  ****** ****** ****** ****** ****** ****** ****** ****** ****** ******
      ****** ****** ****** ****** ****** ****** ****** ****** ****** ******
      ****** ****** ****** ****** ****** ****** ****** ****** ****** ******

 HEAD WILL BE SAVED ON UNIT   51 AT END OF TIME STEP    1, STRESS PERIOD    5
1
  VOLUMETRIC BUDGET FOR ENTIRE MODEL AT END OF TIME STEP    1, STRESS PERIOD   5
  ------------------------------------------------------------------------------

     CUMULATIVE VOLUMES      L**3       RATES FOR THIS TIME STEP      L**3/T
     ------------------                 ------------------------

           IN:                                      IN:
           ---                                      ---
             STORAGE =    31636819.5386               STORAGE =       19038.2642
       CONSTANT HEAD =    10761370.6644         CONSTANT HEAD =       32058.9147
               WELLS =           0.0000                 WELLS =           0.0000
            RECHARGE =    10074000.0000              RECHARGE =       13800.0000
      STREAM LEAKAGE =     3526389.9915        STREAM LEAKAGE =        9836.2024

            TOTAL IN =    55998580.1945              TOTAL IN =       74733.3813

          OUT:                                     OUT:
          ----                                     ----
             STORAGE =        1125.5530               STORAGE =           0.0000
       CONSTANT HEAD =           0.0000         CONSTANT HEAD =           0.0000
               WELLS =    15540697.9664                 WELLS =       34005.9036
            RECHARGE =           0.0000              RECHARGE =           0.0000
      STREAM LEAKAGE =    40456758.9666        STREAM LEAKAGE =       40727.4809

           TOTAL OUT =    55998582.4860             TOTAL OUT =       74733.3845

            IN - OUT =          -2.2915              IN - OUT =      -3.2000E-03

 PERCENT DISCREPANCY =          -0.00     PERCENT DISCREPANCY =          -0.00






         TIME SUMMARY AT END OF TIME STEP    1 IN STRESS PERIOD    5
                    SECONDS     MINUTES      HOURS       DAYS        YEARS
                    -----------------------------------------------------------
   TIME STEP LENGTH 7.94880E+06 1.32480E+05  2208.0      92.000     0.25188    
 STRESS PERIOD TIME 7.94880E+06 1.32480E+05  2208.0      92.000     0.25188    
         TOTAL TIME 3.94848E+07 6.58080E+05  10968.      457.00      1.2512    
1
1
                            STRESS PERIOD NO.    6, LENGTH =   91.00000    
                            -----------------------------------------------

                              NUMBER OF TIME STEPS =     1

                               MULTIPLIER FOR DELT =     1.500

                            INITIAL TIME STEP SIZE =   91.00000    

 WELL NO.  LAYER   ROW   COL   STRESS RATE         
 --------------------------------------------------
      1      1     14      6       0.000    
      2      1      3      9       0.000    
      3      1     20     10       0.000    
      4      1     14     20       0.000    
      5      1     12     22      -9012.    
      6      1     10     16      -9566.    
      7      1      6     24      -8299.    
      8      1      6     17      -7129.    

      8 WELLS

                 RECHARGE =  2.000000E-03

 REUSING STREAM SEGMENT DATA FROM LAST STRESS PERIOD
 
 SOLVING FOR HEAD 


     7 CALLS TO PCG ROUTINE FOR TIME STEP   1 IN STRESS PERIOD    6
    26 TOTAL ITERATIONS

 OUTPUT CONTROL FOR STRESS PERIOD    6   TIME STEP    1
    SAVE BUDGET
    SAVE HEAD FOR ALL LAYERS
    PRINT HEAD FOR ALL LAYERS
 UBDSV2 SAVING "STREAMFLOW OUT  " ON UNIT  50 AT TIME STEP  1, STRESS PERIOD   6



 STREAM LISTING     PERIOD      6   STEP        1

 LAYER ROW COL. STREAM  RCH.  FLOW INTO     FLOW TO   FLOW OUT OF   OVRLND.     DIRECT     STREAM       STREAM     STREAM     STREAM   STREAMBED  STREAMBED
                SEG.NO.  NO.  STRM. RCH.    AQUIFER    STRM. RCH.    RUNOFF     PRECIP       ET          HEAD       DEPTH      WIDTH   CONDCTNC.   GRADIENT

   1   13    1     1     1    1.0000E+05 -2.3067E+03   1.0231E+05  0.000E+00  0.000E+00  0.000E+00  4.84070E+01  1.457E-01  2.000E+01  2.000E+04 -1.153E-01
   1   13    2     1     2    1.0231E+05 -3.3411E+03   1.0565E+05  0.000E+00  0.000E+00  0.000E+00  4.79322E+01  1.481E-01  2.000E+01  2.000E+04 -1.671E-01
   1   14    3     1     3    1.0565E+05 -6.4986E+02   1.0630E+05  0.000E+00  0.000E+00  0.000E+00  4.74566E+01  1.498E-01  2.000E+01  2.000E+04 -3.249E-02
   1   15    4     1     4    1.0630E+05 -6.3318E+02   1.0693E+05  0.000E+00  0.000E+00  0.000E+00  4.69799E+01  1.503E-01  2.000E+01  2.000E+04 -3.166E-02
   1   16    5     1     5    1.0693E+05 -2.2456E+03   1.0918E+05  0.000E+00  0.000E+00  0.000E+00  4.65038E+01  1.515E-01  2.000E+01  2.000E+04 -1.123E-01
   1   16    6     1     6    1.0918E+05 -1.4054E+03   1.1058E+05  0.000E+00  0.000E+00  0.000E+00  4.60281E+01  1.531E-01  2.000E+01  2.000E+04 -7.027E-02
   1   16    7     1     7    1.1058E+05 -1.3750E+03   1.1196E+05  0.000E+00  0.000E+00  0.000E+00  4.55520E+01  1.542E-01  2.000E+01  2.000E+04 -6.875E-02
   1   16    8     1     8    1.1196E+05 -1.3677E+03   1.1332E+05  0.000E+00  0.000E+00  0.000E+00  4.50758E+01  1.554E-01  2.000E+01  2.000E+04 -6.839E-02
   1   16    9     1     9    1.1332E+05 -1.3583E+03   1.1468E+05  0.000E+00  0.000E+00  0.000E+00  4.45997E+01  1.565E-01  2.000E+01  2.000E+04 -6.791E-02
   1   16   10     1    10    1.1468E+05 -1.3458E+03   1.1603E+05  0.000E+00  0.000E+00  0.000E+00  4.41235E+01  1.576E-01  2.000E+01  2.000E+04 -6.729E-02
   1   16   11     1    11    1.1603E+05 -1.3538E+03   1.1738E+05  0.000E+00  0.000E+00  0.000E+00  4.36473E+01  1.587E-01  2.000E+01  2.000E+04 -6.769E-02
   1   16   12     1    12    1.1738E+05 -2.2492E+03   1.1963E+05  0.000E+00  0.000E+00  0.000E+00  4.31715E+01  1.602E-01  2.000E+01  2.000E+04 -1.125E-01
   1   15   13     1    13    1.1963E+05 -1.9295E+03   1.2156E+05  0.000E+00  0.000E+00  0.000E+00  4.26959E+01  1.619E-01  2.000E+01  2.000E+04 -9.648E-02
   1   14   14     1    14    1.2156E+05 -1.8867E+03   1.2345E+05  0.000E+00  0.000E+00  0.000E+00  4.22202E+01  1.634E-01  2.000E+01  2.000E+04 -9.434E-02
   1   13   15     1    15    1.2345E+05 -1.5697E+03   1.2502E+05  0.000E+00  0.000E+00  0.000E+00  4.17443E+01  1.648E-01  2.000E+01  2.000E+04 -7.848E-02
   1   12   16     1    16    1.2502E+05 -1.8098E+02   1.2520E+05  0.000E+00  0.000E+00  0.000E+00  4.12677E+01  1.655E-01  2.000E+01  2.000E+04 -9.049E-03
   1   12   17     1    17    1.2520E+05 -3.4913E+02   1.2555E+05  0.000E+00  0.000E+00  0.000E+00  4.07907E+01  1.657E-01  2.000E+01  2.000E+04 -1.746E-02
   1   12   18     1    18    1.2555E+05 -6.2995E+02   1.2618E+05  0.000E+00  0.000E+00  0.000E+00  4.03138E+01  1.661E-01  2.000E+01  2.000E+04 -3.150E-02
   1   12   19     1    19    1.2618E+05 -4.2205E+02   1.2660E+05  0.000E+00  0.000E+00  0.000E+00  3.98369E+01  1.665E-01  2.000E+01  2.000E+04 -2.110E-02
   1   13   20     1    20    1.2660E+05 -3.5438E+02   1.2695E+05  0.000E+00  0.000E+00  0.000E+00  3.93600E+01  1.668E-01  2.000E+01  2.000E+04 -1.772E-02
   1   14   21     1    21    1.2695E+05 -1.2107E+03   1.2816E+05  0.000E+00  0.000E+00  0.000E+00  3.88833E+01  1.674E-01  2.000E+01  2.000E+04 -6.054E-02
   1   14   22     1    22    1.2816E+05  5.3373E+03   1.2283E+05  0.000E+00  0.000E+00  0.000E+00  3.84044E+01  1.658E-01  2.000E+01  2.000E+04  2.669E-01
   1    9   30     2     1    5.0000E+04 -4.6527E+02   5.0465E+04  0.000E+00  0.000E+00  0.000E+00  4.02412E+01  1.162E-01  2.000E+01  2.000E+04 -2.326E-02
   1    9   29     2     2    5.0465E+04 -6.9511E+02   5.1160E+04  0.000E+00  0.000E+00  0.000E+00  3.99920E+01  1.170E-01  2.000E+01  2.000E+04 -3.476E-02
   1    9   28     2     3    5.1160E+04 -7.7641E+02   5.1937E+04  0.000E+00  0.000E+00  0.000E+00  3.97430E+01  1.180E-01  2.000E+01  2.000E+04 -3.882E-02
   1    9   27     2     4    5.1937E+04 -1.1411E+03   5.3078E+04  0.000E+00  0.000E+00  0.000E+00  3.94943E+01  1.193E-01  2.000E+01  2.000E+04 -5.705E-02
   1   10   26     2     5    5.3078E+04 -5.8237E+02   5.3660E+04  0.000E+00  0.000E+00  0.000E+00  3.92455E+01  1.205E-01  2.000E+01  2.000E+04 -2.912E-02
   1   11   25     2     6    5.3660E+04 -2.7090E+02   5.3931E+04  0.000E+00  0.000E+00  0.000E+00  3.89961E+01  1.211E-01  2.000E+01  2.000E+04 -1.355E-02
   1   12   24     2     7    5.3931E+04  8.8680E+02   5.3044E+04  0.000E+00  0.000E+00  0.000E+00  3.87456E+01  1.206E-01  2.000E+01  2.000E+04  4.434E-02
   1   13   23     2     8    5.3044E+04  3.0903E+02   5.2735E+04  0.000E+00  0.000E+00  0.000E+00  3.84948E+01  1.198E-01  2.000E+01  2.000E+04  1.545E-02
   1   14   22     2     9    5.2735E+04  2.1129E+03   5.0622E+04  0.000E+00  0.000E+00  0.000E+00  3.82432E+01  1.182E-01  2.000E+01  2.000E+04  1.056E-01
   1   14   22     3     1    1.7345E+05 -8.2515E+03   1.8170E+05  0.000E+00  0.000E+00  0.000E+00  3.77250E+01  1.694E-01  2.000E+01  2.000E+04 -4.126E-01
   1   15   23     3     2    1.8170E+05 -6.9151E+02   1.8239E+05  0.000E+00  0.000E+00  0.000E+00  3.68386E+01  1.720E-01  2.000E+01  2.000E+04 -3.458E-02
   1   15   24     3     3    1.8239E+05 -3.9803E+02   1.8279E+05  0.000E+00  0.000E+00  0.000E+00  3.59500E+01  1.723E-01  2.000E+01  2.000E+04 -1.990E-02
   1   15   25     3     4    1.8279E+05 -3.9122E+02   1.8318E+05  0.000E+00  0.000E+00  0.000E+00  3.50614E+01  1.725E-01  2.000E+01  2.000E+04 -1.956E-02
   1   15   26     3     5    1.8318E+05 -4.5985E+02   1.8364E+05  0.000E+00  0.000E+00  0.000E+00  3.41727E+01  1.727E-01  2.000E+01  2.000E+04 -2.299E-02
   1   16   27     3     6    1.8364E+05 -5.1732E+02   1.8416E+05  0.000E+00  0.000E+00  0.000E+00  3.32841E+01  1.730E-01  2.000E+01  2.000E+04 -2.587E-02
   1   17   28     3     7    1.8416E+05 -1.9981E+03   1.8616E+05  0.000E+00  0.000E+00  0.000E+00  3.23959E+01  1.737E-01  2.000E+01  2.000E+04 -9.991E-02
   1   18   29     3     8    1.8616E+05 -3.4360E+03   1.8959E+05  0.000E+00  0.000E+00  0.000E+00  3.15086E+01  1.752E-01  2.000E+01  2.000E+04 -1.718E-01
   1   18   30     3     9    1.8959E+05 -3.5680E+03   1.9316E+05  0.000E+00  0.000E+00  0.000E+00  3.06216E+01  1.772E-01  2.000E+01  2.000E+04 -1.784E-01



1
              HEAD IN LAYER   1 AT END OF TIME STEP   1 IN STRESS PERIOD    6
  ---------------------------------------------------------------------------

          1      2      3      4      5      6      7      8      9     10
         11     12     13     14     15     16     17     18     19     20
         21     22     23     24     25     26     27     28     29     30
 .........................................................................
   1  ****** ****** ****** ****** ****** ****** ****** ****** ****** ******
      ****** ****** ****** ****** ****** ****** ****** ****** ****** ******
      ****** ****** ****** ****** ****** ****** ****** ****** ****** ******
   2  ****** ****** ****** ****** ****** ****** ****** ****** ****** ******
      ****** ****** ****** ****** ****** ****** ****** ****** ****** ******
      ****** ****** ****** ****** ****** ****** ****** ****** ****** ******
   3  ****** ****** ****** ****** ****** ****** ****** ****** ****** ******
      ****** ****** ****** ****** ****** ****** ****** ****** ****** ******
      ****** ****** ****** ****** ****** ****** ****** ****** ****** ******
   4  ****** ****** ****** ****** ****** ****** ****** ****** ****** ******
      ****** ****** ****** ****** ****** ****** ****** ****** ****** ******
      ****** ****** ****** ****** ****** ****** ****** ****** ****** ******
   5  ****** ****** ****** ****** ****** ****** ****** ****** ****** ******
      ****** ****** ****** ****** ****** ****** ****** ****** ****** ******
      ****** ****** ****** ****** ****** ****** ****** ****** ****** ******
   6  ****** ****** ****** ****** ****** ****** ****** ****** ****** ******
      ****** ****** ****** ****** ****** ****** ****** ****** ****** ******
      ****** ****** ****** ****** ****** ****** ****** ****** ****** ******
   7  ****** ****** ****** ****** ****** ****** ****** ****** ****** ******
      ****** ****** ****** ****** ****** ****** ****** ****** ****** ******
      ****** ****** ****** ****** ****** ****** ****** ****** ****** ******
   8  ****** ****** ****** ****** ****** ****** ****** ****** ****** ******
      ****** ****** ****** ****** ****** ****** ****** ****** ****** ******
      ****** ****** ****** ****** ****** ****** ****** ****** ****** ******
   9  ****** ****** ****** ****** ****** ****** ****** ****** ****** ******
      ****** ****** ****** ****** ****** ****** ****** ****** ****** ******
      ****** ****** ****** ****** ****** ****** ****** ****** ****** ******
  10  ****** ****** ****** ****** ****** ****** ****** ****** ****** ******
      ****** ****** ****** ****** ****** ****** ****** ****** ****** ******
      ****** ****** ****** ****** ****** ****** ****** ****** ****** ******
  11  ****** ****** ****** ****** ****** ****** ****** ****** ****** ******
      ****** ****** ****** ****** ****** ****** ****** ****** ****** ******
      ****** ****** ****** ****** ****** ****** ****** ****** ****** ******
  12  ****** ****** ****** ****** ****** ****** ****** ****** ****** ******
      ****** ****** ****** ****** ****** ****** ****** ****** ****** ******
      ****** ****** ****** ****** ****** ****** ****** ****** ****** ******
  13  ****** ****** ****** ****** ****** ****** ****** ****** ****** ******
      ****** ****** ****** ****** ****** ****** ****** ****** ****** ******
      ****** ****** ****** ****** ****** ****** ****** ****** ****** ******
  14  ****** ****** ****** ****** ****** ****** ****** ****** ****** ******
      ****** ****** ****** ****** ****** ****** ****** ****** ****** ******
      ****** ****** ****** ****** ****** ****** ****** ****** ****** ******
  15  ****** ****** ****** ****** ****** ****** ****** ****** ****** ******
      ****** ****** ****** ****** ****** ****** ****** ****** ****** ******
      ****** ****** ****** ****** ****** ****** ****** ****** ****** ******
  16  ****** ****** ****** ****** ****** ****** ****** ****** ****** ******
      ****** ****** ****** ****** ****** ****** ****** ****** ****** ******
      ****** ****** ****** ****** ****** ****** ****** ****** ****** ******
  17  ****** ****** ****** ****** ****** ****** ****** ****** ****** ******
      ****** ****** ****** ****** ****** ****** ****** ****** ****** ******
      ****** ****** ****** ****** ****** ****** ****** ****** ****** ******
  18  ****** ****** ****** ****** ****** ****** ****** ****** ****** ******
      ****** ****** ****** ****** ****** ****** ****** ****** ****** ******
      ****** ****** ****** ****** ****** ****** ****** ****** ****** ******
  19  ****** ****** ****** ****** ****** ****** ****** ****** ****** ******
      ****** ****** ****** ****** ****** ****** ****** ****** ****** ******
      ****** ****** ****** ****** ****** ****** ****** ****** ****** ******
  20  ****** ****** ****** ****** ****** ****** ****** ****** ****** ******
      ****** ****** ****** ****** ****** ****** ****** ****** ****** ******
      ****** ****** ****** ****** ****** ****** ****** ****** ****** ******
  21  ****** ****** ****** ****** ****** ****** ****** ****** ****** ******
      ****** ****** ****** ****** ****** ****** ****** ****** ****** ******
      ****** ****** ****** ****** ****** ****** ****** ****** ****** ******
  22  ****** ****** ****** ****** ****** ****** ****** ****** ****** ******
      ****** ****** ****** ****** ****** ****** ****** ****** ****** ******
      ****** ****** ****** ****** ****** ****** ****** ****** ****** ******
  23  ****** ****** ****** ****** ****** ****** ****** ****** ****** ******
      ****** ****** ****** ****** ****** ****** ****** ****** ****** ******
      ****** ****** ****** ****** ****** ****** ****** ****** ****** ******
  24  ****** ****** ****** ****** ****** ****** ****** ****** ****** ******
      ****** ****** ****** ****** ****** ****** ****** ****** ****** ******
      ****** ****** ****** ****** ****** ****** ****** ****** ****** ******
  25  ****** ****** ****** ****** ****** ****** ****** ****** ****** ******
      ****** ****** ****** ****** ****** ****** ****** ****** ****** ******
      ****** ****** ****** ****** ****** ****** ****** ****** ****** ******

 HEAD WILL BE SAVED ON UNIT   51 AT END OF TIME STEP    1, STRESS PERIOD    6
1
  VOLUMETRIC BUDGET FOR ENTIRE MODEL AT END OF TIME STEP    1, STRESS PERIOD   6
  ------------------------------------------------------------------------------

     CUMULATIVE VOLUMES      L**3       RATES FOR THIS TIME STEP      L**3/T
     ------------------                 ------------------------

           IN:                                      IN:
           ---                                      ---
             STORAGE =    31637463.0070               STORAGE =           7.0711
       CONSTANT HEAD =    13511131.1258         CONSTANT HEAD =       30217.1479
               WELLS =           0.0000                 WELLS =           0.0000
            RECHARGE =    15097200.0000              RECHARGE =       55200.0000
      STREAM LEAKAGE =     4313185.2987        STREAM LEAKAGE =        8646.1023

            TOTAL IN =    64558979.4314              TOTAL IN =       94070.3213

          OUT:                                     OUT:
          ----                                     ----
             STORAGE =      752492.8712               STORAGE =        8256.7837
       CONSTANT HEAD =           0.0000         CONSTANT HEAD =           0.0000
               WELLS =    18635235.1982                 WELLS =       34005.9036
            RECHARGE =           0.0000              RECHARGE =           0.0000
      STREAM LEAKAGE =    45171253.3949        STREAM LEAKAGE =       51807.6311

           TOTAL OUT =    64558981.4643             TOTAL OUT =       94070.3184

            IN - OUT =          -2.0329              IN - OUT =       2.8416E-03

 PERCENT DISCREPANCY =          -0.00     PERCENT DISCREPANCY =           0.00






         TIME SUMMARY AT END OF TIME STEP    1 IN STRESS PERIOD    6
                    SECONDS     MINUTES      HOURS       DAYS        YEARS
                    -----------------------------------------------------------
   TIME STEP LENGTH 7.86240E+06 1.31040E+05  2184.0      91.000     0.24914    
 STRESS PERIOD TIME 7.86240E+06 1.31040E+05  2184.0      91.000     0.24914    
         TOTAL TIME 4.73472E+07 7.89120E+05  13152.      548.00      1.5003    
1
1
                            STRESS PERIOD NO.    7, LENGTH =   91.00000    
                            -----------------------------------------------

                              NUMBER OF TIME STEPS =     1

                               MULTIPLIER FOR DELT =     1.500

                            INITIAL TIME STEP SIZE =   91.00000    

 WELL NO.  LAYER   ROW   COL   STRESS RATE         
 --------------------------------------------------
      1      1     14      6       0.000    
      2      1      3      9       0.000    
      3      1     20     10       0.000    
      4      1     14     20       0.000    
      5      1     12     22      -9012.    
      6      1     10     16      -9566.    
      7      1      6     24      -8299.    
      8      1      6     17      -7129.    

      8 WELLS

                 RECHARGE =   0.00000    

 REUSING STREAM SEGMENT DATA FROM LAST STRESS PERIOD
 
 SOLVING FOR HEAD 


     7 CALLS TO PCG ROUTINE FOR TIME STEP   1 IN STRESS PERIOD    7
    26 TOTAL ITERATIONS

 OUTPUT CONTROL FOR STRESS PERIOD    7   TIME STEP    1
    SAVE BUDGET
    SAVE HEAD FOR ALL LAYERS
    PRINT HEAD FOR ALL LAYERS
 UBDSV2 SAVING "STREAMFLOW OUT  " ON UNIT  50 AT TIME STEP  1, STRESS PERIOD   7



 STREAM LISTING     PERIOD      7   STEP        1

 LAYER ROW COL. STREAM  RCH.  FLOW INTO     FLOW TO   FLOW OUT OF   OVRLND.     DIRECT     STREAM       STREAM     STREAM     STREAM   STREAMBED  STREAMBED
                SEG.NO.  NO.  STRM. RCH.    AQUIFER    STRM. RCH.    RUNOFF     PRECIP       ET          HEAD       DEPTH      WIDTH   CONDCTNC.   GRADIENT

   1   13    1     1     1    1.0000E+05 -1.6290E+03   1.0163E+05  0.000E+00  0.000E+00  0.000E+00  4.84067E+01  1.454E-01  2.000E+01  2.000E+04 -8.145E-02
   1   13    2     1     2    1.0163E+05 -2.5824E+03   1.0421E+05  0.000E+00  0.000E+00  0.000E+00  4.79313E+01  1.472E-01  2.000E+01  2.000E+04 -1.291E-01
   1   14    3     1     3    1.0421E+05 -3.9632E+02   1.0461E+05  0.000E+00  0.000E+00  0.000E+00  4.74553E+01  1.484E-01  2.000E+01  2.000E+04 -1.982E-02
   1   15    4     1     4    1.0461E+05 -3.6937E+02   1.0498E+05  0.000E+00  0.000E+00  0.000E+00  4.69783E+01  1.488E-01  2.000E+01  2.000E+04 -1.847E-02
   1   16    5     1     5    1.0498E+05 -1.4935E+03   1.0647E+05  0.000E+00  0.000E+00  0.000E+00  4.65018E+01  1.496E-01  2.000E+01  2.000E+04 -7.468E-02
   1   16    6     1     6    1.0647E+05 -9.5096E+02   1.0742E+05  0.000E+00  0.000E+00  0.000E+00  4.60256E+01  1.506E-01  2.000E+01  2.000E+04 -4.755E-02
   1   16    7     1     7    1.0742E+05 -9.3872E+02   1.0836E+05  0.000E+00  0.000E+00  0.000E+00  4.55491E+01  1.514E-01  2.000E+01  2.000E+04 -4.694E-02
   1   16    8     1     8    1.0836E+05 -9.3739E+02   1.0930E+05  0.000E+00  0.000E+00  0.000E+00  4.50726E+01  1.522E-01  2.000E+01  2.000E+04 -4.687E-02
   1   16    9     1     9    1.0930E+05 -9.3128E+02   1.1023E+05  0.000E+00  0.000E+00  0.000E+00  4.45961E+01  1.530E-01  2.000E+01  2.000E+04 -4.656E-02
   1   16   10     1    10    1.1023E+05 -9.2171E+02   1.1115E+05  0.000E+00  0.000E+00  0.000E+00  4.41196E+01  1.537E-01  2.000E+01  2.000E+04 -4.609E-02
   1   16   11     1    11    1.1115E+05 -9.2920E+02   1.1208E+05  0.000E+00  0.000E+00  0.000E+00  4.36431E+01  1.545E-01  2.000E+01  2.000E+04 -4.646E-02
   1   16   12     1    12    1.1208E+05 -1.5350E+03   1.1361E+05  0.000E+00  0.000E+00  0.000E+00  4.31669E+01  1.555E-01  2.000E+01  2.000E+04 -7.675E-02
   1   15   13     1    13    1.1361E+05 -1.1585E+03   1.1477E+05  0.000E+00  0.000E+00  0.000E+00  4.26907E+01  1.566E-01  2.000E+01  2.000E+04 -5.793E-02
   1   14   14     1    14    1.1477E+05 -1.0843E+03   1.1586E+05  0.000E+00  0.000E+00  0.000E+00  4.22144E+01  1.576E-01  2.000E+01  2.000E+04 -5.422E-02
   1   13   15     1    15    1.1586E+05 -7.6166E+02   1.1662E+05  0.000E+00  0.000E+00  0.000E+00  4.17379E+01  1.583E-01  2.000E+01  2.000E+04 -3.808E-02
   1   12   16     1    16    1.1662E+05  6.2740E+02   1.1599E+05  0.000E+00  0.000E+00  0.000E+00  4.12606E+01  1.584E-01  2.000E+01  2.000E+04  3.137E-02
   1   12   17     1    17    1.1599E+05  2.3519E+02   1.1576E+05  0.000E+00  0.000E+00  0.000E+00  4.07830E+01  1.580E-01  2.000E+01  2.000E+04  1.176E-02
   1   12   18     1    18    1.1576E+05 -6.0690E+01   1.1582E+05  0.000E+00  0.000E+00  0.000E+00  4.03057E+01  1.580E-01  2.000E+01  2.000E+04 -3.034E-03
   1   12   19     1    19    1.1582E+05  2.7460E+02   1.1554E+05  0.000E+00  0.000E+00  0.000E+00  3.98283E+01  1.579E-01  2.000E+01  2.000E+04  1.373E-02
   1   13   20     1    20    1.1554E+05  3.1712E+02   1.1523E+05  0.000E+00  0.000E+00  0.000E+00  3.93508E+01  1.576E-01  2.000E+01  2.000E+04  1.586E-02
   1   14   21     1    21    1.1523E+05 -5.5327E+02   1.1578E+05  0.000E+00  0.000E+00  0.000E+00  3.88736E+01  1.577E-01  2.000E+01  2.000E+04 -2.766E-02
   1   14   22     1    22    1.1578E+05  5.4962E+03   1.1028E+05  0.000E+00  0.000E+00  0.000E+00  3.83943E+01  1.557E-01  2.000E+01  2.000E+04  2.748E-01
   1    9   30     2     1    5.0000E+04  5.2727E+01   4.9947E+04  0.000E+00  0.000E+00  0.000E+00  4.02408E+01  1.158E-01  2.000E+01  2.000E+04  2.636E-03
   1    9   29     2     2    4.9947E+04 -1.7865E+02   5.0126E+04  0.000E+00  0.000E+00  0.000E+00  3.99909E+01  1.159E-01  2.000E+01  2.000E+04 -8.932E-03
   1    9   28     2     3    5.0126E+04 -2.5790E+02   5.0384E+04  0.000E+00  0.000E+00  0.000E+00  3.97412E+01  1.162E-01  2.000E+01  2.000E+04 -1.290E-02
   1    9   27     2     4    5.0384E+04 -4.3350E+02   5.0817E+04  0.000E+00  0.000E+00  0.000E+00  3.94917E+01  1.167E-01  2.000E+01  2.000E+04 -2.168E-02
   1   10   26     2     5    5.0817E+04  1.2468E+02   5.0693E+04  0.000E+00  0.000E+00  0.000E+00  3.92419E+01  1.169E-01  2.000E+01  2.000E+04  6.234E-03
   1   11   25     2     6    5.0693E+04  4.0654E+02   5.0286E+04  0.000E+00  0.000E+00  0.000E+00  3.89915E+01  1.165E-01  2.000E+01  2.000E+04  2.033E-02
   1   12   24     2     7    5.0286E+04  1.5046E+03   4.8782E+04  0.000E+00  0.000E+00  0.000E+00  3.87402E+01  1.152E-01  2.000E+01  2.000E+04  7.523E-02
   1   13   23     2     8    4.8782E+04  5.0183E+02   4.8280E+04  0.000E+00  0.000E+00  0.000E+00  3.84888E+01  1.138E-01  2.000E+01  2.000E+04  2.509E-02
   1   14   22     2     9    4.8280E+04  2.3457E+03   4.5934E+04  0.000E+00  0.000E+00  0.000E+00  3.82368E+01  1.118E-01  2.000E+01  2.000E+04  1.173E-01
   1   14   22     3     1    1.5622E+05 -8.0932E+03   1.6431E+05  0.000E+00  0.000E+00  0.000E+00  3.77148E+01  1.593E-01  2.000E+01  2.000E+04 -4.047E-01
   1   15   23     3     2    1.6431E+05 -4.8662E+02   1.6480E+05  0.000E+00  0.000E+00  0.000E+00  3.68285E+01  1.618E-01  2.000E+01  2.000E+04 -2.433E-02
   1   15   24     3     3    1.6480E+05 -2.2529E+02   1.6502E+05  0.000E+00  0.000E+00  0.000E+00  3.59398E+01  1.620E-01  2.000E+01  2.000E+04 -1.126E-02
   1   15   25     3     4    1.6502E+05 -2.1531E+02   1.6524E+05  0.000E+00  0.000E+00  0.000E+00  3.50511E+01  1.622E-01  2.000E+01  2.000E+04 -1.077E-02
   1   15   26     3     5    1.6524E+05 -2.5918E+02   1.6550E+05  0.000E+00  0.000E+00  0.000E+00  3.41623E+01  1.623E-01  2.000E+01  2.000E+04 -1.296E-02
   1   16   27     3     6    1.6550E+05 -2.8595E+02   1.6578E+05  0.000E+00  0.000E+00  0.000E+00  3.32736E+01  1.625E-01  2.000E+01  2.000E+04 -1.430E-02
   1   17   28     3     7    1.6578E+05 -1.3600E+03   1.6714E+05  0.000E+00  0.000E+00  0.000E+00  3.23852E+01  1.630E-01  2.000E+01  2.000E+04 -6.800E-02
   1   18   29     3     8    1.6714E+05 -2.7569E+03   1.6990E+05  0.000E+00  0.000E+00  0.000E+00  3.14975E+01  1.642E-01  2.000E+01  2.000E+04 -1.378E-01
   1   18   30     3     9    1.6990E+05 -3.0437E+03   1.7294E+05  0.000E+00  0.000E+00  0.000E+00  3.06103E+01  1.659E-01  2.000E+01  2.000E+04 -1.522E-01



1
              HEAD IN LAYER   1 AT END OF TIME STEP   1 IN STRESS PERIOD    7
  ---------------------------------------------------------------------------

          1      2      3      4      5      6      7      8      9     10
         11     12     13     14     15     16     17     18     19     20
         21     22     23     24     25     26     27     28     29     30
 .........................................................................
   1  ****** ****** ****** ****** ****** ****** ****** ****** ****** ******
      ****** ****** ****** ****** ****** ****** ****** ****** ****** ******
      ****** ****** ****** ****** ****** ****** ****** ****** ****** ******
   2  ****** ****** ****** ****** ****** ****** ****** ****** ****** ******
      ****** ****** ****** ****** ****** ****** ****** ****** ****** ******
      ****** ****** ****** ****** ****** ****** ****** ****** ****** ******
   3  ****** ****** ****** ****** ****** ****** ****** ****** ****** ******
      ****** ****** ****** ****** ****** ****** ****** ****** ****** ******
      ****** ****** ****** ****** ****** ****** ****** ****** ****** ******
   4  ****** ****** ****** ****** ****** ****** ****** ****** ****** ******
      ****** ****** ****** ****** ****** ****** ****** ****** ****** ******
      ****** ****** ****** ****** ****** ****** ****** ****** ****** ******
   5  ****** ****** ****** ****** ****** ****** ****** ****** ****** ******
      ****** ****** ****** ****** ****** ****** ****** ****** ****** ******
      ****** ****** ****** ****** ****** ****** ****** ****** ****** ******
   6  ****** ****** ****** ****** ****** ****** ****** ****** ****** ******
      ****** ****** ****** ****** ****** ****** ****** ****** ****** ******
      ****** ****** ****** ****** ****** ****** ****** ****** ****** ******
   7  ****** ****** ****** ****** ****** ****** ****** ****** ****** ******
      ****** ****** ****** ****** ****** ****** ****** ****** ****** ******
      ****** ****** ****** ****** ****** ****** ****** ****** ****** ******
   8  ****** ****** ****** ****** ****** ****** ****** ****** ****** ******
      ****** ****** ****** ****** ****** ****** ****** ****** ****** ******
      ****** ****** ****** ****** ****** ****** ****** ****** ****** ******
   9  ****** ****** ****** ****** ****** ****** ****** ****** ****** ******
      ****** ****** ****** ****** ****** ****** ****** ****** ****** ******
      ****** ****** ****** ****** ****** ****** ****** ****** ****** ******
  10  ****** ****** ****** ****** ****** ****** ****** ****** ****** ******
      ****** ****** ****** ****** ****** ****** ****** ****** ****** ******
      ****** ****** ****** ****** ****** ****** ****** ****** ****** ******
  11  ****** ****** ****** ****** ****** ****** ****** ****** ****** ******
      ****** ****** ****** ****** ****** ****** ****** ****** ****** ******
      ****** ****** ****** ****** ****** ****** ****** ****** ****** ******
  12  ****** ****** ****** ****** ****** ****** ****** ****** ****** ******
      ****** ****** ****** ****** ****** ****** ****** ****** ****** ******
      ****** ****** ****** ****** ****** ****** ****** ****** ****** ******
  13  ****** ****** ****** ****** ****** ****** ****** ****** ****** ******
      ****** ****** ****** ****** ****** ****** ****** ****** ****** ******
      ****** ****** ****** ****** ****** ****** ****** ****** ****** ******
  14  ****** ****** ****** ****** ****** ****** ****** ****** ****** ******
      ****** ****** ****** ****** ****** ****** ****** ****** ****** ******
      ****** ****** ****** ****** ****** ****** ****** ****** ****** ******
  15  ****** ****** ****** ****** ****** ****** ****** ****** ****** ******
      ****** ****** ****** ****** ****** ****** ****** ****** ****** ******
      ****** ****** ****** ****** ****** ****** ****** ****** ****** ******
  16  ****** ****** ****** ****** ****** ****** ****** ****** ****** ******
      ****** ****** ****** ****** ****** ****** ****** ****** ****** ******
      ****** ****** ****** ****** ****** ****** ****** ****** ****** ******
  17  ****** ****** ****** ****** ****** ****** ****** ****** ****** ******
      ****** ****** ****** ****** ****** ****** ****** ****** ****** ******
      ****** ****** ****** ****** ****** ****** ****** ****** ****** ******
  18  ****** ****** ****** ****** ****** ****** ****** ****** ****** ******
      ****** ****** ****** ****** ****** ****** ****** ****** ****** ******
      ****** ****** ****** ****** ****** ****** ****** ****** ****** ******
  19  ****** ****** ****** ****** ****** ****** ****** ****** ****** ******
      ****** ****** ****** ****** ****** ****** ****** ****** ****** ******
      ****** ****** ****** ****** ****** ****** ****** ****** ****** ******
  20  ****** ****** ****** ****** ****** ****** ****** ****** ****** ******
      ****** ****** ****** ****** ****** ****** ****** ****** ****** ******
      ****** ****** ****** ****** ****** ****** ****** ****** ****** ******
  21  ****** ****** ****** ****** ****** ****** ****** ****** ****** ******
      ****** ****** ****** ****** ****** ****** ****** ****** ****** ******
      ****** ****** ****** ****** ****** ****** ****** ****** ****** ******
  22  ****** ****** ****** ****** ****** ****** ****** ****** ****** ******
      ****** ****** ****** ****** ****** ****** ****** ****** ****** ******
      ****** ****** ****** ****** ****** ****** ****** ****** ****** ******
  23  ****** ****** ****** ****** ****** ****** ****** ****** ****** ******
      ****** ****** ****** ****** ****** ****** ****** ****** ****** ******
      ****** ****** ****** ****** ****** ****** ****** ****** ****** ******
  24  ****** ****** ****** ****** ****** ****** ****** ****** ****** ******
      ****** ****** ****** ****** ****** ****** ****** ****** ****** ******
      ****** ****** ****** ****** ****** ****** ****** ****** ****** ******
  25  ****** ****** ****** ****** ****** ****** ****** ****** ****** ******
      ****** ****** ****** ****** ****** ****** ****** ****** ****** ******
      ****** ****** ****** ****** ****** ****** ****** ****** ****** ******

 HEAD WILL BE SAVED ON UNIT   51 AT END OF TIME STEP    1, STRESS PERIOD    7
1
  VOLUMETRIC BUDGET FOR ENTIRE MODEL AT END OF TIME STEP    1, STRESS PERIOD   7
  ------------------------------------------------------------------------------

     CUMULATIVE VOLUMES      L**3       RATES FOR THIS TIME STEP      L**3/T
     ------------------                 ------------------------

           IN:                                      IN:
           ---                                      ---
             STORAGE =    33708604.9776               STORAGE =       22759.8019
       CONSTANT HEAD =    16622322.1294         CONSTANT HEAD =       34188.9121
               WELLS =           0.0000                 WELLS =           0.0000
            RECHARGE =    15097200.0000              RECHARGE =           0.0000
      STREAM LEAKAGE =     5394870.8979        STREAM LEAKAGE =       11886.6549

            TOTAL IN =    70822998.0048              TOTAL IN =       68835.3689

          OUT:                                     OUT:
          ----                                     ----
             STORAGE =      752492.8712               STORAGE =           0.0000
       CONSTANT HEAD =           0.0000         CONSTANT HEAD =           0.0000
               WELLS =    21729772.4301                 WELLS =       34005.9036
            RECHARGE =           0.0000              RECHARGE =           0.0000
      STREAM LEAKAGE =    48340735.2376        STREAM LEAKAGE =       34829.4708

           TOTAL OUT =    70823000.5389             TOTAL OUT =       68835.3744

            IN - OUT =          -2.5341              IN - OUT =      -5.5077E-03

 PERCENT DISCREPANCY =          -0.00     PERCENT DISCREPANCY =          -0.00






         TIME SUMMARY AT END OF TIME STEP    1 IN STRESS PERIOD    7
                    SECONDS     MINUTES      HOURS       DAYS        YEARS
                    -----------------------------------------------------------
   TIME STEP LENGTH 7.86240E+06 1.31040E+05  2184.0      91.000     0.24914    
 STRESS PERIOD TIME 7.86240E+06 1.31040E+05  2184.0      91.000     0.24914    
         TOTAL TIME 5.52096E+07 9.20160E+05  15336.      639.00      1.7495    
1
1
                            STRESS PERIOD NO.    8, LENGTH =   91.00000    
                            -----------------------------------------------

                              NUMBER OF TIME STEPS =     1

                               MULTIPLIER FOR DELT =     1.500

                            INITIAL TIME STEP SIZE =   91.00000    

 WELL NO.  LAYER   ROW   COL   STRESS RATE         
 --------------------------------------------------
      1      1     14      6       0.000    
      2      1      3      9       0.000    
      3      1     20     10       0.000    
      4      1     14     20       0.000    
      5      1     12     22      -9012.    
      6      1     10     16      -9566.    
      7      1      6     24      -8299.    
      8      1      6     17      -7129.    

      8 WELLS

                 RECHARGE =  1.000000E-03

 REUSING STREAM SEGMENT DATA FROM LAST STRESS PERIOD
 
 SOLVING FOR HEAD 


     6 CALLS TO PCG ROUTINE FOR TIME STEP   1 IN STRESS PERIOD    8
    22 TOTAL ITERATIONS

 OUTPUT CONTROL FOR STRESS PERIOD    8   TIME STEP    1
    SAVE BUDGET
    SAVE HEAD FOR ALL LAYERS
    PRINT HEAD FOR ALL LAYERS
 UBDSV2 SAVING "STREAMFLOW OUT  " ON UNIT  50 AT TIME STEP  1, STRESS PERIOD   8



 STREAM LISTING     PERIOD      8   STEP        1

 LAYER ROW COL. STREAM  RCH.  FLOW INTO     FLOW TO   FLOW OUT OF   OVRLND.     DIRECT     STREAM       STREAM     STREAM     STREAM   STREAMBED  STREAMBED
                SEG.NO.  NO.  STRM. RCH.    AQUIFER    STRM. RCH.    RUNOFF     PRECIP       ET          HEAD       DEPTH      WIDTH   CONDCTNC.   GRADIENT

   1   13    1     1     1    1.0000E+05 -1.6935E+03   1.0169E+05  0.000E+00  0.000E+00  0.000E+00  4.84067E+01  1.454E-01  2.000E+01  2.000E+04 -8.468E-02
   1   13    2     1     2    1.0169E+05 -2.6450E+03   1.0434E+05  0.000E+00  0.000E+00  0.000E+00  4.79313E+01  1.473E-01  2.000E+01  2.000E+04 -1.322E-01
   1   14    3     1     3    1.0434E+05 -4.5901E+02   1.0480E+05  0.000E+00  0.000E+00  0.000E+00  4.74554E+01  1.486E-01  2.000E+01  2.000E+04 -2.295E-02
   1   15    4     1     4    1.0480E+05 -4.3707E+02   1.0523E+05  0.000E+00  0.000E+00  0.000E+00  4.69785E+01  1.490E-01  2.000E+01  2.000E+04 -2.185E-02
   1   16    5     1     5    1.0523E+05 -1.6679E+03   1.0690E+05  0.000E+00  0.000E+00  0.000E+00  4.65021E+01  1.499E-01  2.000E+01  2.000E+04 -8.340E-02
   1   16    6     1     6    1.0690E+05 -1.0576E+03   1.0796E+05  0.000E+00  0.000E+00  0.000E+00  4.60260E+01  1.510E-01  2.000E+01  2.000E+04 -5.288E-02
   1   16    7     1     7    1.0796E+05 -1.0402E+03   1.0900E+05  0.000E+00  0.000E+00  0.000E+00  4.55496E+01  1.519E-01  2.000E+01  2.000E+04 -5.201E-02
   1   16    8     1     8    1.0900E+05 -1.0380E+03   1.1004E+05  0.000E+00  0.000E+00  0.000E+00  4.50732E+01  1.528E-01  2.000E+01  2.000E+04 -5.190E-02
   1   16    9     1     9    1.1004E+05 -1.0333E+03   1.1107E+05  0.000E+00  0.000E+00  0.000E+00  4.45968E+01  1.536E-01  2.000E+01  2.000E+04 -5.166E-02
   1   16   10     1    10    1.1107E+05 -1.0265E+03   1.1210E+05  0.000E+00  0.000E+00  0.000E+00  4.41204E+01  1.545E-01  2.000E+01  2.000E+04 -5.133E-02
   1   16   11     1    11    1.1210E+05 -1.0376E+03   1.1314E+05  0.000E+00  0.000E+00  0.000E+00  4.36440E+01  1.553E-01  2.000E+01  2.000E+04 -5.188E-02
   1   16   12     1    12    1.1314E+05 -1.6969E+03   1.1483E+05  0.000E+00  0.000E+00  0.000E+00  4.31678E+01  1.565E-01  2.000E+01  2.000E+04 -8.485E-02
   1   15   13     1    13    1.1483E+05 -1.3238E+03   1.1616E+05  0.000E+00  0.000E+00  0.000E+00  4.26918E+01  1.577E-01  2.000E+01  2.000E+04 -6.619E-02
   1   14   14     1    14    1.1616E+05 -1.2401E+03   1.1740E+05  0.000E+00  0.000E+00  0.000E+00  4.22156E+01  1.588E-01  2.000E+01  2.000E+04 -6.201E-02
   1   13   15     1    15    1.1740E+05 -9.0215E+02   1.1830E+05  0.000E+00  0.000E+00  0.000E+00  4.17392E+01  1.596E-01  2.000E+01  2.000E+04 -4.511E-02
   1   12   16     1    16    1.1830E+05  5.2947E+02   1.1777E+05  0.000E+00  0.000E+00  0.000E+00  4.12621E+01  1.598E-01  2.000E+01  2.000E+04  2.647E-02
   1   12   17     1    17    1.1777E+05  1.3060E+02   1.1764E+05  0.000E+00  0.000E+00  0.000E+00  4.07845E+01  1.595E-01  2.000E+01  2.000E+04  6.530E-03
   1   12   18     1    18    1.1764E+05 -1.7297E+02   1.1781E+05  0.000E+00  0.000E+00  0.000E+00  4.03073E+01  1.595E-01  2.000E+01  2.000E+04 -8.649E-03
   1   12   19     1    19    1.1781E+05  1.3329E+02   1.1768E+05  0.000E+00  0.000E+00  0.000E+00  3.98300E+01  1.595E-01  2.000E+01  2.000E+04  6.664E-03
   1   13   20     1    20    1.1768E+05  1.4119E+02   1.1754E+05  0.000E+00  0.000E+00  0.000E+00  3.93526E+01  1.594E-01  2.000E+01  2.000E+04  7.059E-03
   1   14   21     1    21    1.1754E+05 -7.1329E+02   1.1825E+05  0.000E+00  0.000E+00  0.000E+00  3.88756E+01  1.597E-01  2.000E+01  2.000E+04 -3.566E-02
   1   14   22     1    22    1.1825E+05  5.4476E+03   1.1280E+05  0.000E+00  0.000E+00  0.000E+00  3.83964E+01  1.577E-01  2.000E+01  2.000E+04  2.724E-01
   1    9   30     2     1    5.0000E+04 -1.0770E+02   5.0108E+04  0.000E+00  0.000E+00  0.000E+00  4.02409E+01  1.159E-01  2.000E+01  2.000E+04 -5.385E-03
   1    9   29     2     2    5.0108E+04 -3.3611E+02   5.0444E+04  0.000E+00  0.000E+00  0.000E+00  3.99912E+01  1.162E-01  2.000E+01  2.000E+04 -1.681E-02
   1    9   28     2     3    5.0444E+04 -4.0933E+02   5.0853E+04  0.000E+00  0.000E+00  0.000E+00  3.97418E+01  1.168E-01  2.000E+01  2.000E+04 -2.047E-02
   1    9   27     2     4    5.0853E+04 -6.0475E+02   5.1458E+04  0.000E+00  0.000E+00  0.000E+00  3.94925E+01  1.175E-01  2.000E+01  2.000E+04 -3.024E-02
   1   10   26     2     5    5.1458E+04 -7.5092E+01   5.1533E+04  0.000E+00  0.000E+00  0.000E+00  3.92429E+01  1.179E-01  2.000E+01  2.000E+04 -3.755E-03
   1   11   25     2     6    5.1533E+04  2.0777E+02   5.1325E+04  0.000E+00  0.000E+00  0.000E+00  3.89928E+01  1.178E-01  2.000E+01  2.000E+04  1.039E-02
   1   12   24     2     7    5.1325E+04  1.3245E+03   5.0001E+04  0.000E+00  0.000E+00  0.000E+00  3.87418E+01  1.168E-01  2.000E+01  2.000E+04  6.622E-02
   1   13   23     2     8    5.0001E+04  4.2830E+02   4.9572E+04  0.000E+00  0.000E+00  0.000E+00  3.84906E+01  1.156E-01  2.000E+01  2.000E+04  2.141E-02
   1   14   22     2     9    4.9572E+04  2.2934E+03   4.7279E+04  0.000E+00  0.000E+00  0.000E+00  3.82387E+01  1.137E-01  2.000E+01  2.000E+04  1.147E-01
   1   14   22     3     1    1.6008E+05 -8.1367E+03   1.6822E+05  0.000E+00  0.000E+00  0.000E+00  3.77172E+01  1.616E-01  2.000E+01  2.000E+04 -4.068E-01
   1   15   23     3     2    1.6822E+05 -5.5150E+02   1.6877E+05  0.000E+00  0.000E+00  0.000E+00  3.68308E+01  1.642E-01  2.000E+01  2.000E+04 -2.757E-02
   1   15   24     3     3    1.6877E+05 -2.8618E+02   1.6906E+05  0.000E+00  0.000E+00  0.000E+00  3.59422E+01  1.644E-01  2.000E+01  2.000E+04 -1.431E-02
   1   15   25     3     4    1.6906E+05 -2.7788E+02   1.6933E+05  0.000E+00  0.000E+00  0.000E+00  3.50535E+01  1.646E-01  2.000E+01  2.000E+04 -1.389E-02
   1   15   26     3     5    1.6933E+05 -3.3405E+02   1.6967E+05  0.000E+00  0.000E+00  0.000E+00  3.41647E+01  1.647E-01  2.000E+01  2.000E+04 -1.670E-02
   1   16   27     3     6    1.6967E+05 -3.6818E+02   1.7004E+05  0.000E+00  0.000E+00  0.000E+00  3.32761E+01  1.649E-01  2.000E+01  2.000E+04 -1.841E-02
   1   17   28     3     7    1.7004E+05 -1.5652E+03   1.7160E+05  0.000E+00  0.000E+00  0.000E+00  3.23877E+01  1.655E-01  2.000E+01  2.000E+04 -7.826E-02
   1   18   29     3     8    1.7160E+05 -2.9255E+03   1.7453E+05  0.000E+00  0.000E+00  0.000E+00  3.15001E+01  1.668E-01  2.000E+01  2.000E+04 -1.463E-01
   1   18   30     3     9    1.7453E+05 -3.1923E+03   1.7772E+05  0.000E+00  0.000E+00  0.000E+00  3.06130E+01  1.686E-01  2.000E+01  2.000E+04 -1.596E-01



1
              HEAD IN LAYER   1 AT END OF TIME STEP   1 IN STRESS PERIOD    8
  ---------------------------------------------------------------------------

          1      2      3      4      5      6      7      8      9     10
         11     12     13     14     15     16     17     18     19     20
         21     22     23     24     25     26     27     28     29     30
 .........................................................................
   1  ****** ****** ****** ****** ****** ****** ****** ****** ****** ******
      ****** ****** ****** ****** ****** ****** ****** ****** ****** ******
      ****** ****** ****** ****** ****** ****** ****** ****** ****** ******
   2  ****** ****** ****** ****** ****** ****** ****** ****** ****** ******
      ****** ****** ****** ****** ****** ****** ****** ****** ****** ******
      ****** ****** ****** ****** ****** ****** ****** ****** ****** ******
   3  ****** ****** ****** ****** ****** ****** ****** ****** ****** ******
      ****** ****** ****** ****** ****** ****** ****** ****** ****** ******
      ****** ****** ****** ****** ****** ****** ****** ****** ****** ******
   4  ****** ****** ****** ****** ****** ****** ****** ****** ****** ******
      ****** ****** ****** ****** ****** ****** ****** ****** ****** ******
      ****** ****** ****** ****** ****** ****** ****** ****** ****** ******
   5  ****** ****** ****** ****** ****** ****** ****** ****** ****** ******
      ****** ****** ****** ****** ****** ****** ****** ****** ****** ******
      ****** ****** ****** ****** ****** ****** ****** ****** ****** ******
   6  ****** ****** ****** ****** ****** ****** ****** ****** ****** ******
      ****** ****** ****** ****** ****** ****** ****** ****** ****** ******
      ****** ****** ****** ****** ****** ****** ****** ****** ****** ******
   7  ****** ****** ****** ****** ****** ****** ****** ****** ****** ******
      ****** ****** ****** ****** ****** ****** ****** ****** ****** ******
      ****** ****** ****** ****** ****** ****** ****** ****** ****** ******
   8  ****** ****** ****** ****** ****** ****** ****** ****** ****** ******
      ****** ****** ****** ****** ****** ****** ****** ****** ****** ******
      ****** ****** ****** ****** ****** ****** ****** ****** ****** ******
   9  ****** ****** ****** ****** ****** ****** ****** ****** ****** ******
      ****** ****** ****** ****** ****** ****** ****** ****** ****** ******
      ****** ****** ****** ****** ****** ****** ****** ****** ****** ******
  10  ****** ****** ****** ****** ****** ****** ****** ****** ****** ******
      ****** ****** ****** ****** ****** ****** ****** ****** ****** ******
      ****** ****** ****** ****** ****** ****** ****** ****** ****** ******
  11  ****** ****** ****** ****** ****** ****** ****** ****** ****** ******
      ****** ****** ****** ****** ****** ****** ****** ****** ****** ******
      ****** ****** ****** ****** ****** ****** ****** ****** ****** ******
  12  ****** ****** ****** ****** ****** ****** ****** ****** ****** ******
      ****** ****** ****** ****** ****** ****** ****** ****** ****** ******
      ****** ****** ****** ****** ****** ****** ****** ****** ****** ******
  13  ****** ****** ****** ****** ****** ****** ****** ****** ****** ******
      ****** ****** ****** ****** ****** ****** ****** ****** ****** ******
      ****** ****** ****** ****** ****** ****** ****** ****** ****** ******
  14  ****** ****** ****** ****** ****** ****** ****** ****** ****** ******
      ****** ****** ****** ****** ****** ****** ****** ****** ****** ******
      ****** ****** ****** ****** ****** ****** ****** ****** ****** ******
  15  ****** ****** ****** ****** ****** ****** ****** ****** ****** ******
      ****** ****** ****** ****** ****** ****** ****** ****** ****** ******
      ****** ****** ****** ****** ****** ****** ****** ****** ****** ******
  16  ****** ****** ****** ****** ****** ****** ****** ****** ****** ******
      ****** ****** ****** ****** ****** ****** ****** ****** ****** ******
      ****** ****** ****** ****** ****** ****** ****** ****** ****** ******
  17  ****** ****** ****** ****** ****** ****** ****** ****** ****** ******
      ****** ****** ****** ****** ****** ****** ****** ****** ****** ******
      ****** ****** ****** ****** ****** ****** ****** ****** ****** ******
  18  ****** ****** ****** ****** ****** ****** ****** ****** ****** ******
      ****** ****** ****** ****** ****** ****** ****** ****** ****** ******
      ****** ****** ****** ****** ****** ****** ****** ****** ****** ******
  19  ****** ****** ****** ****** ****** ****** ****** ****** ****** ******
      ****** ****** ****** ****** ****** ****** ****** ****** ****** ******
      ****** ****** ****** ****** ****** ****** ****** ****** ****** ******
  20  ****** ****** ****** ****** ****** ****** ****** ****** ****** ******
      ****** ****** ****** ****** ****** ****** ****** ****** ****** ******
      ****** ****** ****** ****** ****** ****** ****** ****** ****** ******
  21  ****** ****** ****** ****** ****** ****** ****** ****** ****** ******
      ****** ****** ****** ****** ****** ****** ****** ****** ****** ******
      ****** ****** ****** ****** ****** ****** ****** ****** ****** ******
  22  ****** ****** ****** ****** ****** ****** ****** ****** ****** ******
      ****** ****** ****** ****** ****** ****** ****** ****** ****** ******
      ****** ****** ****** ****** ****** ****** ****** ****** ****** ******
  23  ****** ****** ****** ****** ****** ****** ****** ****** ****** ******
      ****** ****** ****** ****** ****** ****** ****** ****** ****** ******
      ****** ****** ****** ****** ****** ****** ****** ****** ****** ******
  24  ****** ****** ****** ****** ****** ****** ****** ****** ****** ******
      ****** ****** ****** ****** ****** ****** ****** ****** ****** ******
      ****** ****** ****** ****** ****** ****** ****** ****** ****** ******
  25  ****** ****** ****** ****** ****** ****** ****** ****** ****** ******
      ****** ****** ****** ****** ****** ****** ****** ****** ****** ******
      ****** ****** ****** ****** ****** ****** ****** ****** ****** ******

 HEAD WILL BE SAVED ON UNIT   51 AT END OF TIME STEP    1, STRESS PERIOD    8
1
  VOLUMETRIC BUDGET FOR ENTIRE MODEL AT END OF TIME STEP    1, STRESS PERIOD   8
  ------------------------------------------------------------------------------

     CUMULATIVE VOLUMES      L**3       RATES FOR THIS TIME STEP      L**3/T
     ------------------                 ------------------------

           IN:                                      IN:
           ---                                      ---
             STORAGE =    33868901.1777               STORAGE =        1761.4967
       CONSTANT HEAD =    19709602.5120         CONSTANT HEAD =       33926.1581
               WELLS =           0.0000                 WELLS =           0.0000
            RECHARGE =    17608800.0000              RECHARGE =       27600.0000
      STREAM LEAKAGE =     6362754.2517        STREAM LEAKAGE =       10636.0808

            TOTAL IN =    77550057.9414              TOTAL IN =       73923.7356

          OUT:                                     OUT:
          ----                                     ----
             STORAGE =      894663.1308               STORAGE =        1562.3105
       CONSTANT HEAD =           0.0000         CONSTANT HEAD =           0.0000
               WELLS =    24824309.6619                 WELLS =       34005.9036
            RECHARGE =           0.0000              RECHARGE =           0.0000
      STREAM LEAKAGE =    51831086.9593        STREAM LEAKAGE =       38355.5134

           TOTAL OUT =    77550059.7520             TOTAL OUT =       73923.7276

            IN - OUT =          -1.8105              IN - OUT =       7.9513E-03

 PERCENT DISCREPANCY =          -0.00     PERCENT DISCREPANCY =           0.00






         TIME SUMMARY AT END OF TIME STEP    1 IN STRESS PERIOD    8
                    SECONDS     MINUTES      HOURS       DAYS        YEARS
                    -----------------------------------------------------------
   TIME STEP LENGTH 7.86240E+06 1.31040E+05  2184.0      91.000     0.24914    
 STRESS PERIOD TIME 7.86240E+06 1.31040E+05  2184.0      91.000     0.24914    
         TOTAL TIME 6.30720E+07 1.05120E+06  17520.      730.00      1.9986    
1
1
                            STRESS PERIOD NO.    9, LENGTH =   92.00000    
                            -----------------------------------------------

                              NUMBER OF TIME STEPS =     1

                               MULTIPLIER FOR DELT =     1.500

                            INITIAL TIME STEP SIZE =   92.00000    

 WELL NO.  LAYER   ROW   COL   STRESS RATE         
 --------------------------------------------------
      1      1     14      6       0.000    
      2      1      3      9       0.000    
      3      1     20     10       0.000    
      4      1     14     20       0.000    
      5      1     12     22      -9012.    
      6      1     10     16      -9566.    
      7      1      6     24      -8299.    
      8      1      6     17      -7129.    

      8 WELLS

                 RECHARGE =  5.000000E-04

 REUSING STREAM SEGMENT DATA FROM LAST STRESS PERIOD
 
 SOLVING FOR HEAD 


     6 CALLS TO PCG ROUTINE FOR TIME STEP   1 IN STRESS PERIOD    9
    23 TOTAL ITERATIONS

 OUTPUT CONTROL FOR STRESS PERIOD    9   TIME STEP    1
    SAVE BUDGET
    SAVE HEAD FOR ALL LAYERS
    PRINT HEAD FOR ALL LAYERS
 UBDSV2 SAVING "STREAMFLOW OUT  " ON UNIT  50 AT TIME STEP  1, STRESS PERIOD   9



 STREAM LISTING     PERIOD      9   STEP        1

 LAYER ROW COL. STREAM  RCH.  FLOW INTO     FLOW TO   FLOW OUT OF   OVRLND.     DIRECT     STREAM       STREAM     STREAM     STREAM   STREAMBED  STREAMBED
                SEG.NO.  NO.  STRM. RCH.    AQUIFER    STRM. RCH.    RUNOFF     PRECIP       ET          HEAD       DEPTH      WIDTH   CONDCTNC.   GRADIENT

   1   13    1     1     1    1.0000E+05 -1.4723E+03   1.0147E+05  0.000E+00  0.000E+00  0.000E+00  4.84067E+01  1.453E-01  2.000E+01  2.000E+04 -7.362E-02
   1   13    2     1     2    1.0147E+05 -2.3942E+03   1.0387E+05  0.000E+00  0.000E+00  0.000E+00  4.79310E+01  1.470E-01  2.000E+01  2.000E+04 -1.197E-01
   1   14    3     1     3    1.0387E+05 -3.8710E+02   1.0425E+05  0.000E+00  0.000E+00  0.000E+00  4.74550E+01  1.481E-01  2.000E+01  2.000E+04 -1.935E-02
   1   15    4     1     4    1.0425E+05 -3.6442E+02   1.0462E+05  0.000E+00  0.000E+00  0.000E+00  4.69780E+01  1.485E-01  2.000E+01  2.000E+04 -1.822E-02
   1   16    5     1     5    1.0462E+05 -1.4757E+03   1.0609E+05  0.000E+00  0.000E+00  0.000E+00  4.65015E+01  1.493E-01  2.000E+01  2.000E+04 -7.379E-02
   1   16    6     1     6    1.0609E+05 -9.3721E+02   1.0703E+05  0.000E+00  0.000E+00  0.000E+00  4.60253E+01  1.503E-01  2.000E+01  2.000E+04 -4.686E-02
   1   16    7     1     7    1.0703E+05 -9.2344E+02   1.0795E+05  0.000E+00  0.000E+00  0.000E+00  4.55488E+01  1.511E-01  2.000E+01  2.000E+04 -4.617E-02
   1   16    8     1     8    1.0795E+05 -9.2285E+02   1.0888E+05  0.000E+00  0.000E+00  0.000E+00  4.50723E+01  1.518E-01  2.000E+01  2.000E+04 -4.614E-02
   1   16    9     1     9    1.0888E+05 -9.1982E+02   1.0980E+05  0.000E+00  0.000E+00  0.000E+00  4.45958E+01  1.526E-01  2.000E+01  2.000E+04 -4.599E-02
   1   16   10     1    10    1.0980E+05 -9.1537E+02   1.1071E+05  0.000E+00  0.000E+00  0.000E+00  4.41193E+01  1.534E-01  2.000E+01  2.000E+04 -4.577E-02
   1   16   11     1    11    1.1071E+05 -9.2780E+02   1.1164E+05  0.000E+00  0.000E+00  0.000E+00  4.36428E+01  1.541E-01  2.000E+01  2.000E+04 -4.639E-02
   1   16   12     1    12    1.1164E+05 -1.5088E+03   1.1315E+05  0.000E+00  0.000E+00  0.000E+00  4.31665E+01  1.552E-01  2.000E+01  2.000E+04 -7.544E-02
   1   15   13     1    13    1.1315E+05 -1.1122E+03   1.1426E+05  0.000E+00  0.000E+00  0.000E+00  4.26903E+01  1.562E-01  2.000E+01  2.000E+04 -5.561E-02
   1   14   14     1    14    1.1426E+05 -1.0135E+03   1.1527E+05  0.000E+00  0.000E+00  0.000E+00  4.22139E+01  1.571E-01  2.000E+01  2.000E+04 -5.068E-02
   1   13   15     1    15    1.1527E+05 -6.6830E+02   1.1594E+05  0.000E+00  0.000E+00  0.000E+00  4.17373E+01  1.578E-01  2.000E+01  2.000E+04 -3.342E-02
   1   12   16     1    16    1.1594E+05  7.7411E+02   1.1517E+05  0.000E+00  0.000E+00  0.000E+00  4.12600E+01  1.578E-01  2.000E+01  2.000E+04  3.871E-02
   1   12   17     1    17    1.1517E+05  2.9708E+02   1.1487E+05  0.000E+00  0.000E+00  0.000E+00  4.07823E+01  1.573E-01  2.000E+01  2.000E+04  1.485E-02
   1   12   18     1    18    1.1487E+05 -1.4573E+01   1.1489E+05  0.000E+00  0.000E+00  0.000E+00  4.03049E+01  1.572E-01  2.000E+01  2.000E+04 -7.287E-04
   1   12   19     1    19    1.1489E+05  3.2425E+02   1.1456E+05  0.000E+00  0.000E+00  0.000E+00  3.98275E+01  1.571E-01  2.000E+01  2.000E+04  1.621E-02
   1   13   20     1    20    1.1456E+05  3.1574E+02   1.1425E+05  0.000E+00  0.000E+00  0.000E+00  3.93500E+01  1.568E-01  2.000E+01  2.000E+04  1.579E-02
   1   14   21     1    21    1.1425E+05 -5.4275E+02   1.1479E+05  0.000E+00  0.000E+00  0.000E+00  3.88728E+01  1.569E-01  2.000E+01  2.000E+04 -2.714E-02
   1   14   22     1    22    1.1479E+05  5.4860E+03   1.0930E+05  0.000E+00  0.000E+00  0.000E+00  3.83935E+01  1.549E-01  2.000E+01  2.000E+04  2.743E-01
   1    9   30     2     1    5.0000E+04  1.7017E+01   4.9983E+04  0.000E+00  0.000E+00  0.000E+00  4.02409E+01  1.159E-01  2.000E+01  2.000E+04  8.508E-04
   1    9   29     2     2    4.9983E+04 -2.1108E+02   5.0194E+04  0.000E+00  0.000E+00  0.000E+00  3.99910E+01  1.160E-01  2.000E+01  2.000E+04 -1.055E-02
   1    9   28     2     3    5.0194E+04 -2.8215E+02   5.0476E+04  0.000E+00  0.000E+00  0.000E+00  3.97413E+01  1.163E-01  2.000E+01  2.000E+04 -1.411E-02
   1    9   27     2     4    5.0476E+04 -4.2475E+02   5.0901E+04  0.000E+00  0.000E+00  0.000E+00  3.94918E+01  1.168E-01  2.000E+01  2.000E+04 -2.124E-02
   1   10   26     2     5    5.0901E+04  1.0134E+02   5.0800E+04  0.000E+00  0.000E+00  0.000E+00  3.92420E+01  1.170E-01  2.000E+01  2.000E+04  5.067E-03
   1   11   25     2     6    5.0800E+04  3.7647E+02   5.0423E+04  0.000E+00  0.000E+00  0.000E+00  3.89917E+01  1.167E-01  2.000E+01  2.000E+04  1.882E-02
   1   12   24     2     7    5.0423E+04  1.4797E+03   4.8943E+04  0.000E+00  0.000E+00  0.000E+00  3.87404E+01  1.154E-01  2.000E+01  2.000E+04  7.398E-02
   1   13   23     2     8    4.8943E+04  4.7577E+02   4.8468E+04  0.000E+00  0.000E+00  0.000E+00  3.84891E+01  1.141E-01  2.000E+01  2.000E+04  2.379E-02
   1   14   22     2     9    4.8468E+04  2.3570E+03   4.6111E+04  0.000E+00  0.000E+00  0.000E+00  3.82371E+01  1.121E-01  2.000E+01  2.000E+04  1.178E-01
   1   14   22     3     1    1.5541E+05 -8.0967E+03   1.6351E+05  0.000E+00  0.000E+00  0.000E+00  3.77144E+01  1.588E-01  2.000E+01  2.000E+04 -4.048E-01
   1   15   23     3     2    1.6351E+05 -4.9939E+02   1.6401E+05  0.000E+00  0.000E+00  0.000E+00  3.68280E+01  1.614E-01  2.000E+01  2.000E+04 -2.497E-02
   1   15   24     3     3    1.6401E+05 -2.4345E+02   1.6425E+05  0.000E+00  0.000E+00  0.000E+00  3.59394E+01  1.616E-01  2.000E+01  2.000E+04 -1.217E-02
   1   15   25     3     4    1.6425E+05 -2.3486E+02   1.6449E+05  0.000E+00  0.000E+00  0.000E+00  3.50506E+01  1.617E-01  2.000E+01  2.000E+04 -1.174E-02
   1   15   26     3     5    1.6449E+05 -2.8663E+02   1.6478E+05  0.000E+00  0.000E+00  0.000E+00  3.41619E+01  1.619E-01  2.000E+01  2.000E+04 -1.433E-02
   1   16   27     3     6    1.6478E+05 -3.1249E+02   1.6509E+05  0.000E+00  0.000E+00  0.000E+00  3.32732E+01  1.621E-01  2.000E+01  2.000E+04 -1.562E-02
   1   17   28     3     7    1.6509E+05 -1.4127E+03   1.6650E+05  0.000E+00  0.000E+00  0.000E+00  3.23848E+01  1.626E-01  2.000E+01  2.000E+04 -7.064E-02
   1   18   29     3     8    1.6650E+05 -2.7518E+03   1.6925E+05  0.000E+00  0.000E+00  0.000E+00  3.14971E+01  1.638E-01  2.000E+01  2.000E+04 -1.376E-01
   1   18   30     3     9    1.6925E+05 -3.0614E+03   1.7231E+05  0.000E+00  0.000E+00  0.000E+00  3.06099E+01  1.655E-01  2.000E+01  2.000E+04 -1.531E-01



1
              HEAD IN LAYER   1 AT END OF TIME STEP   1 IN STRESS PERIOD    9
  ---------------------------------------------------------------------------

          1      2      3      4      5      6      7      8      9     10
         11     12     13     14     15     16     17     18     19     20
         21     22     23     24     25     26     27     28     29     30
 .........................................................................
   1  ****** ****** ****** ****** ****** ****** ****** ****** ****** ******
      ****** ****** ****** ****** ****** ****** ****** ****** ****** ******
      ****** ****** ****** ****** ****** ****** ****** ****** ****** ******
   2  ****** ****** ****** ****** ****** ****** ****** ****** ****** ******
      ****** ****** ****** ****** ****** ****** ****** ****** ****** ******
      ****** ****** ****** ****** ****** ****** ****** ****** ****** ******
   3  ****** ****** ****** ****** ****** ****** ****** ****** ****** ******
      ****** ****** ****** ****** ****** ****** ****** ****** ****** ******
      ****** ****** ****** ****** ****** ****** ****** ****** ****** ******
   4  ****** ****** ****** ****** ****** ****** ****** ****** ****** ******
      ****** ****** ****** ****** ****** ****** ****** ****** ****** ******
      ****** ****** ****** ****** ****** ****** ****** ****** ****** ******
   5  ****** ****** ****** ****** ****** ****** ****** ****** ****** ******
      ****** ****** ****** ****** ****** ****** ****** ****** ****** ******
      ****** ****** ****** ****** ****** ****** ****** ****** ****** ******
   6  ****** ****** ****** ****** ****** ****** ****** ****** ****** ******
      ****** ****** ****** ****** ****** ****** ****** ****** ****** ******
      ****** ****** ****** ****** ****** ****** ****** ****** ****** ******
   7  ****** ****** ****** ****** ****** ****** ****** ****** ****** ******
      ****** ****** ****** ****** ****** ****** ****** ****** ****** ******
      ****** ****** ****** ****** ****** ****** ****** ****** ****** ******
   8  ****** ****** ****** ****** ****** ****** ****** ****** ****** ******
      ****** ****** ****** ****** ****** ****** ****** ****** ****** ******
      ****** ****** ****** ****** ****** ****** ****** ****** ****** ******
   9  ****** ****** ****** ****** ****** ****** ****** ****** ****** ******
      ****** ****** ****** ****** ****** ****** ****** ****** ****** ******
      ****** ****** ****** ****** ****** ****** ****** ****** ****** ******
  10  ****** ****** ****** ****** ****** ****** ****** ****** ****** ******
      ****** ****** ****** ****** ****** ****** ****** ****** ****** ******
      ****** ****** ****** ****** ****** ****** ****** ****** ****** ******
  11  ****** ****** ****** ****** ****** ****** ****** ****** ****** ******
      ****** ****** ****** ****** ****** ****** ****** ****** ****** ******
      ****** ****** ****** ****** ****** ****** ****** ****** ****** ******
  12  ****** ****** ****** ****** ****** ****** ****** ****** ****** ******
      ****** ****** ****** ****** ****** ****** ****** ****** ****** ******
      ****** ****** ****** ****** ****** ****** ****** ****** ****** ******
  13  ****** ****** ****** ****** ****** ****** ****** ****** ****** ******
      ****** ****** ****** ****** ****** ****** ****** ****** ****** ******
      ****** ****** ****** ****** ****** ****** ****** ****** ****** ******
  14  ****** ****** ****** ****** ****** ****** ****** ****** ****** ******
      ****** ****** ****** ****** ****** ****** ****** ****** ****** ******
      ****** ****** ****** ****** ****** ****** ****** ****** ****** ******
  15  ****** ****** ****** ****** ****** ****** ****** ****** ****** ******
      ****** ****** ****** ****** ****** ****** ****** ****** ****** ******
      ****** ****** ****** ****** ****** ****** ****** ****** ****** ******
  16  ****** ****** ****** ****** ****** ****** ****** ****** ****** ******
      ****** ****** ****** ****** ****** ****** ****** ****** ****** ******
      ****** ****** ****** ****** ****** ****** ****** ****** ****** ******
  17  ****** ****** ****** ****** ****** ****** ****** ****** ****** ******
      ****** ****** ****** ****** ****** ****** ****** ****** ****** ******
      ****** ****** ****** ****** ****** ****** ****** ****** ****** ******
  18  ****** ****** ****** ****** ****** ****** ****** ****** ****** ******
      ****** ****** ****** ****** ****** ****** ****** ****** ****** ******
      ****** ****** ****** ****** ****** ****** ****** ****** ****** ******
  19  ****** ****** ****** ****** ****** ****** ****** ****** ****** ******
      ****** ****** ****** ****** ****** ****** ****** ****** ****** ******
      ****** ****** ****** ****** ****** ****** ****** ****** ****** ******
  20  ****** ****** ****** ****** ****** ****** ****** ****** ****** ******
      ****** ****** ****** ****** ****** ****** ****** ****** ****** ******
      ****** ****** ****** ****** ****** ****** ****** ****** ****** ******
  21  ****** ****** ****** ****** ****** ****** ****** ****** ****** ******
      ****** ****** ****** ****** ****** ****** ****** ****** ****** ******
      ****** ****** ****** ****** ****** ****** ****** ****** ****** ******
  22  ****** ****** ****** ****** ****** ****** ****** ****** ****** ******
      ****** ****** ****** ****** ****** ****** ****** ****** ****** ******
      ****** ****** ****** ****** ****** ****** ****** ****** ****** ******
  23  ****** ****** ****** ****** ****** ****** ****** ****** ****** ******
      ****** ****** ****** ****** ****** ****** ****** ****** ****** ******
      ****** ****** ****** ****** ****** ****** ****** ****** ****** ******
  24  ****** ****** ****** ****** ****** ****** ****** ****** ****** ******
      ****** ****** ****** ****** ****** ****** ****** ****** ****** ******
      ****** ****** ****** ****** ****** ****** ****** ****** ****** ******
  25  ****** ****** ****** ****** ****** ****** ****** ****** ****** ******
      ****** ****** ****** ****** ****** ****** ****** ****** ****** ******
      ****** ****** ****** ****** ****** ****** ****** ****** ****** ******

 HEAD WILL BE SAVED ON UNIT   51 AT END OF TIME STEP    1, STRESS PERIOD    9
1
  VOLUMETRIC BUDGET FOR ENTIRE MODEL AT END OF TIME STEP    1, STRESS PERIOD   9
  ------------------------------------------------------------------------------

     CUMULATIVE VOLUMES      L**3       RATES FOR THIS TIME STEP      L**3/T
     ------------------                 ------------------------

           IN:                                      IN:
           ---                                      ---
             STORAGE =    34550097.5856               STORAGE =        7404.3088
       CONSTANT HEAD =    22940186.5657         CONSTANT HEAD =       35115.0441
               WELLS =           0.0000                 WELLS =           0.0000
            RECHARGE =    18878400.0000              RECHARGE =       13800.0000
      STREAM LEAKAGE =     7467156.4816        STREAM LEAKAGE =       12004.3721

            TOTAL IN =    83835840.6328              TOTAL IN =       68323.7249

          OUT:                                     OUT:
          ----                                     ----
             STORAGE =      894663.1308               STORAGE =           0.0000
       CONSTANT HEAD =           0.0000         CONSTANT HEAD =           0.0000
               WELLS =    27952852.7974                 WELLS =       34005.9036
            RECHARGE =           0.0000              RECHARGE =           0.0000
      STREAM LEAKAGE =    54988326.5872        STREAM LEAKAGE =       34317.8220

           TOTAL OUT =    83835842.5153             TOTAL OUT =       68323.7257

            IN - OUT =          -1.8825              IN - OUT =      -7.8228E-04

 PERCENT DISCREPANCY =          -0.00     PERCENT DISCREPANCY =          -0.00






         TIME SUMMARY AT END OF TIME STEP    1 IN STRESS PERIOD    9
                    SECONDS     MINUTES      HOURS       DAYS        YEARS
                    -----------------------------------------------------------
   TIME STEP LENGTH 7.94880E+06 1.32480E+05  2208.0      92.000     0.25188    
 STRESS PERIOD TIME 7.94880E+06 1.32480E+05  2208.0      92.000     0.25188    
         TOTAL TIME 7.10208E+07 1.18368E+06  19728.      822.00      2.2505    
1
1
                            STRESS PERIOD NO.   10, LENGTH =   91.00000    
                            -----------------------------------------------

                              NUMBER OF TIME STEPS =     1

                               MULTIPLIER FOR DELT =     1.500

                            INITIAL TIME STEP SIZE =   91.00000    

 WELL NO.  LAYER   ROW   COL   STRESS RATE         
 --------------------------------------------------
      1      1     14      6       0.000    
      2      1      3      9       0.000    
      3      1     20     10       0.000    
      4      1     14     20       0.000    
      5      1     12     22      -9012.    
      6      1     10     16      -9566.    
      7      1      6     24      -8299.    
      8      1      6     17      -7129.    

      8 WELLS

                 RECHARGE =  2.000000E-03

 REUSING STREAM SEGMENT DATA FROM LAST STRESS PERIOD
 
 SOLVING FOR HEAD 


     7 CALLS TO PCG ROUTINE FOR TIME STEP   1 IN STRESS PERIOD   10
    26 TOTAL ITERATIONS

 OUTPUT CONTROL FOR STRESS PERIOD   10   TIME STEP    1
    SAVE BUDGET
    SAVE HEAD FOR ALL LAYERS
    PRINT HEAD FOR ALL LAYERS
 UBDSV2 SAVING "STREAMFLOW OUT  " ON UNIT  50 AT TIME STEP  1, STRESS PERIOD  10



 STREAM LISTING     PERIOD     10   STEP        1

 LAYER ROW COL. STREAM  RCH.  FLOW INTO     FLOW TO   FLOW OUT OF   OVRLND.     DIRECT     STREAM       STREAM     STREAM     STREAM   STREAMBED  STREAMBED
                SEG.NO.  NO.  STRM. RCH.    AQUIFER    STRM. RCH.    RUNOFF     PRECIP       ET          HEAD       DEPTH      WIDTH   CONDCTNC.   GRADIENT

   1   13    1     1     1    1.0000E+05 -1.9198E+03   1.0192E+05  0.000E+00  0.000E+00  0.000E+00  4.84068E+01  1.455E-01  2.000E+01  2.000E+04 -9.599E-02
   1   13    2     1     2    1.0192E+05 -2.8898E+03   1.0481E+05  0.000E+00  0.000E+00  0.000E+00  4.79316E+01  1.476E-01  2.000E+01  2.000E+04 -1.445E-01
   1   14    3     1     3    1.0481E+05 -5.7278E+02   1.0538E+05  0.000E+00  0.000E+00  0.000E+00  4.74558E+01  1.490E-01  2.000E+01  2.000E+04 -2.864E-02
   1   15    4     1     4    1.0538E+05 -5.6320E+02   1.0595E+05  0.000E+00  0.000E+00  0.000E+00  4.69791E+01  1.495E-01  2.000E+01  2.000E+04 -2.816E-02
   1   16    5     1     5    1.0595E+05 -2.0947E+03   1.0804E+05  0.000E+00  0.000E+00  0.000E+00  4.65029E+01  1.506E-01  2.000E+01  2.000E+04 -1.047E-01
   1   16    6     1     6    1.0804E+05 -1.2991E+03   1.0934E+05  0.000E+00  0.000E+00  0.000E+00  4.60271E+01  1.521E-01  2.000E+01  2.000E+04 -6.495E-02
   1   16    7     1     7    1.0934E+05 -1.2674E+03   1.1061E+05  0.000E+00  0.000E+00  0.000E+00  4.55509E+01  1.531E-01  2.000E+01  2.000E+04 -6.337E-02
   1   16    8     1     8    1.1061E+05 -1.2614E+03   1.1187E+05  0.000E+00  0.000E+00  0.000E+00  4.50747E+01  1.542E-01  2.000E+01  2.000E+04 -6.307E-02
   1   16    9     1     9    1.1187E+05 -1.2569E+03   1.1313E+05  0.000E+00  0.000E+00  0.000E+00  4.45984E+01  1.552E-01  2.000E+01  2.000E+04 -6.285E-02
   1   16   10     1    10    1.1313E+05 -1.2528E+03   1.1438E+05  0.000E+00  0.000E+00  0.000E+00  4.41222E+01  1.563E-01  2.000E+01  2.000E+04 -6.264E-02
   1   16   11     1    11    1.1438E+05 -1.2690E+03   1.1565E+05  0.000E+00  0.000E+00  0.000E+00  4.36460E+01  1.573E-01  2.000E+01  2.000E+04 -6.345E-02
   1   16   12     1    12    1.1565E+05 -2.0782E+03   1.1773E+05  0.000E+00  0.000E+00  0.000E+00  4.31700E+01  1.587E-01  2.000E+01  2.000E+04 -1.039E-01
   1   15   13     1    13    1.1773E+05 -1.6972E+03   1.1942E+05  0.000E+00  0.000E+00  0.000E+00  4.26943E+01  1.602E-01  2.000E+01  2.000E+04 -8.486E-02
   1   14   14     1    14    1.1942E+05 -1.6047E+03   1.2103E+05  0.000E+00  0.000E+00  0.000E+00  4.22184E+01  1.616E-01  2.000E+01  2.000E+04 -8.024E-02
   1   13   15     1    15    1.2103E+05 -1.2486E+03   1.2228E+05  0.000E+00  0.000E+00  0.000E+00  4.17422E+01  1.627E-01  2.000E+01  2.000E+04 -6.243E-02
   1   12   16     1    16    1.2228E+05  2.1682E+02   1.2206E+05  0.000E+00  0.000E+00  0.000E+00  4.12654E+01  1.631E-01  2.000E+01  2.000E+04  1.084E-02
   1   12   17     1    17    1.2206E+05 -1.2617E+02   1.2218E+05  0.000E+00  0.000E+00  0.000E+00  4.07881E+01  1.631E-01  2.000E+01  2.000E+04 -6.309E-03
   1   12   18     1    18    1.2218E+05 -4.3408E+02   1.2262E+05  0.000E+00  0.000E+00  0.000E+00  4.03110E+01  1.633E-01  2.000E+01  2.000E+04 -2.170E-02
   1   12   19     1    19    1.2262E+05 -1.9193E+02   1.2281E+05  0.000E+00  0.000E+00  0.000E+00  3.98340E+01  1.636E-01  2.000E+01  2.000E+04 -9.596E-03
   1   13   20     1    20    1.2281E+05 -2.0491E+02   1.2302E+05  0.000E+00  0.000E+00  0.000E+00  3.93569E+01  1.637E-01  2.000E+01  2.000E+04 -1.025E-02
   1   14   21     1    21    1.2302E+05 -1.0684E+03   1.2408E+05  0.000E+00  0.000E+00  0.000E+00  3.88801E+01  1.642E-01  2.000E+01  2.000E+04 -5.342E-02
   1   14   22     1    22    1.2408E+05  5.3576E+03   1.1873E+05  0.000E+00  0.000E+00  0.000E+00  3.84011E+01  1.625E-01  2.000E+01  2.000E+04  2.679E-01
   1    9   30     2     1    5.0000E+04 -3.9647E+02   5.0396E+04  0.000E+00  0.000E+00  0.000E+00  4.02411E+01  1.161E-01  2.000E+01  2.000E+04 -1.982E-02
   1    9   29     2     2    5.0396E+04 -6.2222E+02   5.1019E+04  0.000E+00  0.000E+00  0.000E+00  3.99918E+01  1.168E-01  2.000E+01  2.000E+04 -3.111E-02
   1    9   28     2     3    5.1019E+04 -6.9234E+02   5.1711E+04  0.000E+00  0.000E+00  0.000E+00  3.97428E+01  1.178E-01  2.000E+01  2.000E+04 -3.462E-02
   1    9   27     2     4    5.1711E+04 -9.7576E+02   5.2687E+04  0.000E+00  0.000E+00  0.000E+00  3.94939E+01  1.189E-01  2.000E+01  2.000E+04 -4.879E-02
   1   10   26     2     5    5.2687E+04 -4.5004E+02   5.3137E+04  0.000E+00  0.000E+00  0.000E+00  3.92449E+01  1.199E-01  2.000E+01  2.000E+04 -2.250E-02
   1   11   25     2     6    5.3137E+04 -1.5051E+02   5.3287E+04  0.000E+00  0.000E+00  0.000E+00  3.89953E+01  1.203E-01  2.000E+01  2.000E+04 -7.525E-03
   1   12   24     2     7    5.3287E+04  1.0029E+03   5.2284E+04  0.000E+00  0.000E+00  0.000E+00  3.87447E+01  1.197E-01  2.000E+01  2.000E+04  5.014E-02
   1   13   23     2     8    5.2284E+04  3.2731E+02   5.1957E+04  0.000E+00  0.000E+00  0.000E+00  3.84938E+01  1.188E-01  2.000E+01  2.000E+04  1.637E-02
   1   14   22     2     9    5.1957E+04  2.1762E+03   4.9781E+04  0.000E+00  0.000E+00  0.000E+00  3.82421E+01  1.171E-01  2.000E+01  2.000E+04  1.088E-01
   1   14   22     3     1    1.6851E+05 -8.2230E+03   1.7673E+05  0.000E+00  0.000E+00  0.000E+00  3.77221E+01  1.666E-01  2.000E+01  2.000E+04 -4.112E-01
   1   15   23     3     2    1.7673E+05 -6.6216E+02   1.7739E+05  0.000E+00  0.000E+00  0.000E+00  3.68358E+01  1.691E-01  2.000E+01  2.000E+04 -3.311E-02
   1   15   24     3     3    1.7739E+05 -3.8076E+02   1.7777E+05  0.000E+00  0.000E+00  0.000E+00  3.59472E+01  1.694E-01  2.000E+01  2.000E+04 -1.904E-02
   1   15   25     3     4    1.7777E+05 -3.7557E+02   1.7815E+05  0.000E+00  0.000E+00  0.000E+00  3.50585E+01  1.696E-01  2.000E+01  2.000E+04 -1.878E-02
   1   15   26     3     5    1.7815E+05 -4.4895E+02   1.7860E+05  0.000E+00  0.000E+00  0.000E+00  3.41699E+01  1.699E-01  2.000E+01  2.000E+04 -2.245E-02
   1   16   27     3     6    1.7860E+05 -4.9849E+02   1.7910E+05  0.000E+00  0.000E+00  0.000E+00  3.32812E+01  1.701E-01  2.000E+01  2.000E+04 -2.492E-02
   1   17   28     3     7    1.7910E+05 -1.9339E+03   1.8103E+05  0.000E+00  0.000E+00  0.000E+00  3.23930E+01  1.708E-01  2.000E+01  2.000E+04 -9.669E-02
   1   18   29     3     8    1.8103E+05 -3.3043E+03   1.8433E+05  0.000E+00  0.000E+00  0.000E+00  3.15056E+01  1.723E-01  2.000E+01  2.000E+04 -1.652E-01
   1   18   30     3     9    1.8433E+05 -3.4875E+03   1.8782E+05  0.000E+00  0.000E+00  0.000E+00  3.06187E+01  1.742E-01  2.000E+01  2.000E+04 -1.744E-01



1
              HEAD IN LAYER   1 AT END OF TIME STEP   1 IN STRESS PERIOD   10
  ---------------------------------------------------------------------------

          1      2      3      4      5      6      7      8      9     10
         11     12     13     14     15     16     17     18     19     20
         21     22     23     24     25     26     27     28     29     30
 .........................................................................
   1  ****** ****** ****** ****** ****** ****** ****** ****** ****** ******
      ****** ****** ****** ****** ****** ****** ****** ****** ****** ******
      ****** ****** ****** ****** ****** ****** ****** ****** ****** ******
   2  ****** ****** ****** ****** ****** ****** ****** ****** ****** ******
      ****** ****** ****** ****** ****** ****** ****** ****** ****** ******
      ****** ****** ****** ****** ****** ****** ****** ****** ****** ******
   3  ****** ****** ****** ****** ****** ****** ****** ****** ****** ******
      ****** ****** ****** ****** ****** ****** ****** ****** ****** ******
      ****** ****** ****** ****** ****** ****** ****** ****** ****** ******
   4  ****** ****** ****** ****** ****** ****** ****** ****** ****** ******
      ****** ****** ****** ****** ****** ****** ****** ****** ****** ******
      ****** ****** ****** ****** ****** ****** ****** ****** ****** ******
   5  ****** ****** ****** ****** ****** ****** ****** ****** ****** ******
      ****** ****** ****** ****** ****** ****** ****** ****** ****** ******
      ****** ****** ****** ****** ****** ****** ****** ****** ****** ******
   6  ****** ****** ****** ****** ****** ****** ****** ****** ****** ******
      ****** ****** ****** ****** ****** ****** ****** ****** ****** ******
      ****** ****** ****** ****** ****** ****** ****** ****** ****** ******
   7  ****** ****** ****** ****** ****** ****** ****** ****** ****** ******
      ****** ****** ****** ****** ****** ****** ****** ****** ****** ******
      ****** ****** ****** ****** ****** ****** ****** ****** ****** ******
   8  ****** ****** ****** ****** ****** ****** ****** ****** ****** ******
      ****** ****** ****** ****** ****** ****** ****** ****** ****** ******
      ****** ****** ****** ****** ****** ****** ****** ****** ****** ******
   9  ****** ****** ****** ****** ****** ****** ****** ****** ****** ******
      ****** ****** ****** ****** ****** ****** ****** ****** ****** ******
      ****** ****** ****** ****** ****** ****** ****** ****** ****** ******
  10  ****** ****** ****** ****** ****** ****** ****** ****** ****** ******
      ****** ****** ****** ****** ****** ****** ****** ****** ****** ******
      ****** ****** ****** ****** ****** ****** ****** ****** ****** ******
  11  ****** ****** ****** ****** ****** ****** ****** ****** ****** ******
      ****** ****** ****** ****** ****** ****** ****** ****** ****** ******
      ****** ****** ****** ****** ****** ****** ****** ****** ****** ******
  12  ****** ****** ****** ****** ****** ****** ****** ****** ****** ******
      ****** ****** ****** ****** ****** ****** ****** ****** ****** ******
      ****** ****** ****** ****** ****** ****** ****** ****** ****** ******
  13  ****** ****** ****** ****** ****** ****** ****** ****** ****** ******
      ****** ****** ****** ****** ****** ****** ****** ****** ****** ******
      ****** ****** ****** ****** ****** ****** ****** ****** ****** ******
  14  ****** ****** ****** ****** ****** ****** ****** ****** ****** ******
      ****** ****** ****** ****** ****** ****** ****** ****** ****** ******
      ****** ****** ****** ****** ****** ****** ****** ****** ****** ******
  15  ****** ****** ****** ****** ****** ****** ****** ****** ****** ******
      ****** ****** ****** ****** ****** ****** ****** ****** ****** ******
      ****** ****** ****** ****** ****** ****** ****** ****** ****** ******
  16  ****** ****** ****** ****** ****** ****** ****** ****** ****** ******
      ****** ****** ****** ****** ****** ****** ****** ****** ****** ******
      ****** ****** ****** ****** ****** ****** ****** ****** ****** ******
  17  ****** ****** ****** ****** ****** ****** ****** ****** ****** ******
      ****** ****** ****** ****** ****** ****** ****** ****** ****** ******
      ****** ****** ****** ****** ****** ****** ****** ****** ****** ******
  18  ****** ****** ****** ****** ****** ****** ****** ****** ****** ******
      ****** ****** ****** ****** ****** ****** ****** ****** ****** ******
      ****** ****** ****** ****** ****** ****** ****** ****** ****** ******
  19  ****** ****** ****** ****** ****** ****** ****** ****** ****** ******
      ****** ****** ****** ****** ****** ****** ****** ****** ****** ******
      ****** ****** ****** ****** ****** ****** ****** ****** ****** ******
  20  ****** ****** ****** ****** ****** ****** ****** ****** ****** ******
      ****** ****** ****** ****** ****** ****** ****** ****** ****** ******
      ****** ****** ****** ****** ****** ****** ****** ****** ****** ******
  21  ****** ****** ****** ****** ****** ****** ****** ****** ****** ******
      ****** ****** ****** ****** ****** ****** ****** ****** ****** ******
      ****** ****** ****** ****** ****** ****** ****** ****** ****** ******
  22  ****** ****** ****** ****** ****** ****** ****** ****** ****** ******
      ****** ****** ****** ****** ****** ****** ****** ****** ****** ******
      ****** ****** ****** ****** ****** ****** ****** ****** ****** ******
  23  ****** ****** ****** ****** ****** ****** ****** ****** ****** ******
      ****** ****** ****** ****** ****** ****** ****** ****** ****** ******
      ****** ****** ****** ****** ****** ****** ****** ****** ****** ******
  24  ****** ****** ****** ****** ****** ****** ****** ****** ****** ******
      ****** ****** ****** ****** ****** ****** ****** ****** ****** ******
      ****** ****** ****** ****** ****** ****** ****** ****** ****** ******
  25  ****** ****** ****** ****** ****** ****** ****** ****** ****** ******
      ****** ****** ****** ****** ****** ****** ****** ****** ****** ******
      ****** ****** ****** ****** ****** ****** ****** ****** ****** ******

 HEAD WILL BE SAVED ON UNIT   51 AT END OF TIME STEP    1, STRESS PERIOD   10
1
  VOLUMETRIC BUDGET FOR ENTIRE MODEL AT END OF TIME STEP    1, STRESS PERIOD  10
  ------------------------------------------------------------------------------

     CUMULATIVE VOLUMES      L**3       RATES FOR THIS TIME STEP      L**3/T
     ------------------                 ------------------------

           IN:                                      IN:
           ---                                      ---
             STORAGE =    34550097.5856               STORAGE =           0.0000
       CONSTANT HEAD =    25868325.8058         CONSTANT HEAD =       32177.3543
               WELLS =           0.0000                 WELLS =           0.0000
            RECHARGE =    23901600.0000              RECHARGE =       55200.0000
      STREAM LEAKAGE =     8293508.7105        STREAM LEAKAGE =        9080.7937

            TOTAL IN =    92613532.1019              TOTAL IN =       96458.1480

          OUT:                                     OUT:
          ----                                     ----
             STORAGE =     2309636.4467               STORAGE =       15549.1573
       CONSTANT HEAD =           0.0000         CONSTANT HEAD =           0.0000
               WELLS =    31047390.0292                 WELLS =       34005.9036
            RECHARGE =           0.0000              RECHARGE =           0.0000
      STREAM LEAKAGE =    59256507.1644        STREAM LEAKAGE =       46903.0833

           TOTAL OUT =    92613533.6403             TOTAL OUT =       96458.1442

            IN - OUT =          -1.5384              IN - OUT =       3.7815E-03

 PERCENT DISCREPANCY =          -0.00     PERCENT DISCREPANCY =           0.00






         TIME SUMMARY AT END OF TIME STEP    1 IN STRESS PERIOD   10
                    SECONDS     MINUTES      HOURS       DAYS        YEARS
                    -----------------------------------------------------------
   TIME STEP LENGTH 7.86240E+06 1.31040E+05  2184.0      91.000     0.24914    
 STRESS PERIOD TIME 7.86240E+06 1.31040E+05  2184.0      91.000     0.24914    
         TOTAL TIME 7.88832E+07 1.31472E+06  21912.      913.00      2.4997    
1
1
                            STRESS PERIOD NO.   11, LENGTH =   91.00000    
                            -----------------------------------------------

                              NUMBER OF TIME STEPS =     1

                               MULTIPLIER FOR DELT =     1.500

                            INITIAL TIME STEP SIZE =   91.00000    

 WELL NO.  LAYER   ROW   COL   STRESS RATE         
 --------------------------------------------------
      1      1     14      6       0.000    
      2      1      3      9       0.000    
      3      1     20     10       0.000    
      4      1     14     20       0.000    
      5      1     12     22      -9012.    
      6      1     10     16      -9566.    
      7      1      6     24      -8299.    
      8      1      6     17      -7129.    

      8 WELLS

                 RECHARGE =   0.00000    

 REUSING STREAM SEGMENT DATA FROM LAST STRESS PERIOD
 
 SOLVING FOR HEAD 


     7 CALLS TO PCG ROUTINE FOR TIME STEP   1 IN STRESS PERIOD   11
    26 TOTAL ITERATIONS

 OUTPUT CONTROL FOR STRESS PERIOD   11   TIME STEP    1
    SAVE BUDGET
    SAVE HEAD FOR ALL LAYERS
    PRINT HEAD FOR ALL LAYERS
 UBDSV2 SAVING "STREAMFLOW OUT  " ON UNIT  50 AT TIME STEP  1, STRESS PERIOD  11



 STREAM LISTING     PERIOD     11   STEP        1

 LAYER ROW COL. STREAM  RCH.  FLOW INTO     FLOW TO   FLOW OUT OF   OVRLND.     DIRECT     STREAM       STREAM     STREAM     STREAM   STREAMBED  STREAMBED
                SEG.NO.  NO.  STRM. RCH.    AQUIFER    STRM. RCH.    RUNOFF     PRECIP       ET          HEAD       DEPTH      WIDTH   CONDCTNC.   GRADIENT

   1   13    1     1     1    1.0000E+05 -1.3483E+03   1.0135E+05  0.000E+00  0.000E+00  0.000E+00  4.84066E+01  1.452E-01  2.000E+01  2.000E+04 -6.742E-02
   1   13    2     1     2    1.0135E+05 -2.2532E+03   1.0360E+05  0.000E+00  0.000E+00  0.000E+00  4.79309E+01  1.468E-01  2.000E+01  2.000E+04 -1.127E-01
   1   14    3     1     3    1.0360E+05 -3.4123E+02   1.0394E+05  0.000E+00  0.000E+00  0.000E+00  4.74547E+01  1.479E-01  2.000E+01  2.000E+04 -1.706E-02
   1   15    4     1     4    1.0394E+05 -3.2081E+02   1.0426E+05  0.000E+00  0.000E+00  0.000E+00  4.69777E+01  1.482E-01  2.000E+01  2.000E+04 -1.604E-02
   1   16    5     1     5    1.0426E+05 -1.4068E+03   1.0567E+05  0.000E+00  0.000E+00  0.000E+00  4.65012E+01  1.489E-01  2.000E+01  2.000E+04 -7.034E-02
   1   16    6     1     6    1.0567E+05 -8.8446E+02   1.0655E+05  0.000E+00  0.000E+00  0.000E+00  4.60249E+01  1.499E-01  2.000E+01  2.000E+04 -4.422E-02
   1   16    7     1     7    1.0655E+05 -8.7035E+02   1.0743E+05  0.000E+00  0.000E+00  0.000E+00  4.55484E+01  1.506E-01  2.000E+01  2.000E+04 -4.352E-02
   1   16    8     1     8    1.0743E+05 -8.6986E+02   1.0830E+05  0.000E+00  0.000E+00  0.000E+00  4.50718E+01  1.514E-01  2.000E+01  2.000E+04 -4.349E-02
   1   16    9     1     9    1.0830E+05 -8.6771E+02   1.0916E+05  0.000E+00  0.000E+00  0.000E+00  4.45953E+01  1.521E-01  2.000E+01  2.000E+04 -4.339E-02
   1   16   10     1    10    1.0916E+05 -8.6482E+02   1.1003E+05  0.000E+00  0.000E+00  0.000E+00  4.41187E+01  1.528E-01  2.000E+01  2.000E+04 -4.324E-02
   1   16   11     1    11    1.1003E+05 -8.7931E+02   1.1091E+05  0.000E+00  0.000E+00  0.000E+00  4.36422E+01  1.536E-01  2.000E+01  2.000E+04 -4.397E-02
   1   16   12     1    12    1.1091E+05 -1.4324E+03   1.1234E+05  0.000E+00  0.000E+00  0.000E+00  4.31659E+01  1.545E-01  2.000E+01  2.000E+04 -7.162E-02
   1   15   13     1    13    1.1234E+05 -1.0075E+03   1.1335E+05  0.000E+00  0.000E+00  0.000E+00  4.26896E+01  1.555E-01  2.000E+01  2.000E+04 -5.038E-02
   1   14   14     1    14    1.1335E+05 -8.9665E+02   1.1424E+05  0.000E+00  0.000E+00  0.000E+00  4.22131E+01  1.563E-01  2.000E+01  2.000E+04 -4.483E-02
   1   13   15     1    15    1.1424E+05 -5.4556E+02   1.1479E+05  0.000E+00  0.000E+00  0.000E+00  4.17365E+01  1.569E-01  2.000E+01  2.000E+04 -2.728E-02
   1   12   16     1    16    1.1479E+05  8.9742E+02   1.1389E+05  0.000E+00  0.000E+00  0.000E+00  4.12590E+01  1.568E-01  2.000E+01  2.000E+04  4.487E-02
   1   12   17     1    17    1.1389E+05  3.8212E+02   1.1351E+05  0.000E+00  0.000E+00  0.000E+00  4.07812E+01  1.562E-01  2.000E+01  2.000E+04  1.911E-02
   1   12   18     1    18    1.1351E+05  6.6247E+01   1.1344E+05  0.000E+00  0.000E+00  0.000E+00  4.03038E+01  1.561E-01  2.000E+01  2.000E+04  3.312E-03
   1   12   19     1    19    1.1344E+05  4.2227E+02   1.1302E+05  0.000E+00  0.000E+00  0.000E+00  3.98263E+01  1.558E-01  2.000E+01  2.000E+04  2.111E-02
   1   13   20     1    20    1.1302E+05  4.0779E+02   1.1261E+05  0.000E+00  0.000E+00  0.000E+00  3.93487E+01  1.555E-01  2.000E+01  2.000E+04  2.039E-02
   1   14   21     1    21    1.1261E+05 -4.7179E+02   1.1309E+05  0.000E+00  0.000E+00  0.000E+00  3.88714E+01  1.555E-01  2.000E+01  2.000E+04 -2.359E-02
   1   14   22     1    22    1.1309E+05  5.5055E+03   1.0758E+05  0.000E+00  0.000E+00  0.000E+00  3.83921E+01  1.534E-01  2.000E+01  2.000E+04  2.753E-01
   1    9   30     2     1    5.0000E+04  9.2008E+01   4.9908E+04  0.000E+00  0.000E+00  0.000E+00  4.02408E+01  1.158E-01  2.000E+01  2.000E+04  4.600E-03
   1    9   29     2     2    4.9908E+04 -1.3677E+02   5.0045E+04  0.000E+00  0.000E+00  0.000E+00  3.99908E+01  1.158E-01  2.000E+01  2.000E+04 -6.838E-03
   1    9   28     2     3    5.0045E+04 -2.0898E+02   5.0254E+04  0.000E+00  0.000E+00  0.000E+00  3.97411E+01  1.161E-01  2.000E+01  2.000E+04 -1.045E-02
   1    9   27     2     4    5.0254E+04 -3.3492E+02   5.0589E+04  0.000E+00  0.000E+00  0.000E+00  3.94915E+01  1.165E-01  2.000E+01  2.000E+04 -1.675E-02
   1   10   26     2     5    5.0589E+04  2.0502E+02   5.0384E+04  0.000E+00  0.000E+00  0.000E+00  3.92415E+01  1.165E-01  2.000E+01  2.000E+04  1.025E-02
   1   11   25     2     6    5.0384E+04  4.8067E+02   4.9903E+04  0.000E+00  0.000E+00  0.000E+00  3.89911E+01  1.161E-01  2.000E+01  2.000E+04  2.403E-02
   1   12   24     2     7    4.9903E+04  1.5770E+03   4.8326E+04  0.000E+00  0.000E+00  0.000E+00  3.87396E+01  1.146E-01  2.000E+01  2.000E+04  7.885E-02
   1   13   23     2     8    4.8326E+04  5.1326E+02   4.7813E+04  0.000E+00  0.000E+00  0.000E+00  3.84882E+01  1.132E-01  2.000E+01  2.000E+04  2.566E-02
   1   14   22     2     9    4.7813E+04  2.3860E+03   4.5427E+04  0.000E+00  0.000E+00  0.000E+00  3.82361E+01  1.111E-01  2.000E+01  2.000E+04  1.193E-01
   1   14   22     3     1    1.5301E+05 -8.0776E+03   1.6108E+05  0.000E+00  0.000E+00  0.000E+00  3.77129E+01  1.574E-01  2.000E+01  2.000E+04 -4.039E-01
   1   15   23     3     2    1.6108E+05 -4.7029E+02   1.6155E+05  0.000E+00  0.000E+00  0.000E+00  3.68266E+01  1.599E-01  2.000E+01  2.000E+04 -2.351E-02
   1   15   24     3     3    1.6155E+05 -2.1574E+02   1.6177E+05  0.000E+00  0.000E+00  0.000E+00  3.59379E+01  1.601E-01  2.000E+01  2.000E+04 -1.079E-02
   1   15   25     3     4    1.6177E+05 -2.0671E+02   1.6198E+05  0.000E+00  0.000E+00  0.000E+00  3.50491E+01  1.603E-01  2.000E+01  2.000E+04 -1.034E-02
   1   15   26     3     5    1.6198E+05 -2.5333E+02   1.6223E+05  0.000E+00  0.000E+00  0.000E+00  3.41604E+01  1.604E-01  2.000E+01  2.000E+04 -1.267E-02
   1   16   27     3     6    1.6223E+05 -2.7561E+02   1.6251E+05  0.000E+00  0.000E+00  0.000E+00  3.32717E+01  1.605E-01  2.000E+01  2.000E+04 -1.378E-02
   1   17   28     3     7    1.6251E+05 -1.3246E+03   1.6383E+05  0.000E+00  0.000E+00  0.000E+00  3.23832E+01  1.610E-01  2.000E+01  2.000E+04 -6.623E-02
   1   18   29     3     8    1.6383E+05 -2.6832E+03   1.6651E+05  0.000E+00  0.000E+00  0.000E+00  3.14955E+01  1.622E-01  2.000E+01  2.000E+04 -1.342E-01
   1   18   30     3     9    1.6651E+05 -2.9988E+03   1.6951E+05  0.000E+00  0.000E+00  0.000E+00  3.06083E+01  1.639E-01  2.000E+01  2.000E+04 -1.499E-01



1
              HEAD IN LAYER   1 AT END OF TIME STEP   1 IN STRESS PERIOD   11
  ---------------------------------------------------------------------------

          1      2      3      4      5      6      7      8      9     10
         11     12     13     14     15     16     17     18     19     20
         21     22     23     24     25     26     27     28     29     30
 .........................................................................
   1  ****** ****** ****** ****** ****** ****** ****** ****** ****** ******
      ****** ****** ****** ****** ****** ****** ****** ****** ****** ******
      ****** ****** ****** ****** ****** ****** ****** ****** ****** ******
   2  ****** ****** ****** ****** ****** ****** ****** ****** ****** ******
      ****** ****** ****** ****** ****** ****** ****** ****** ****** ******
      ****** ****** ****** ****** ****** ****** ****** ****** ****** ******
   3  ****** ****** ****** ****** ****** ****** ****** ****** ****** ******
      ****** ****** ****** ****** ****** ****** ****** ****** ****** ******
      ****** ****** ****** ****** ****** ****** ****** ****** ****** ******
   4  ****** ****** ****** ****** ****** ****** ****** ****** ****** ******
      ****** ****** ****** ****** ****** ****** ****** ****** ****** ******
      ****** ****** ****** ****** ****** ****** ****** ****** ****** ******
   5  ****** ****** ****** ****** ****** ****** ****** ****** ****** ******
      ****** ****** ****** ****** ****** ****** ****** ****** ****** ******
      ****** ****** ****** ****** ****** ****** ****** ****** ****** ******
   6  ****** ****** ****** ****** ****** ****** ****** ****** ****** ******
      ****** ****** ****** ****** ****** ****** ****** ****** ****** ******
      ****** ****** ****** ****** ****** ****** ****** ****** ****** ******
   7  ****** ****** ****** ****** ****** ****** ****** ****** ****** ******
      ****** ****** ****** ****** ****** ****** ****** ****** ****** ******
      ****** ****** ****** ****** ****** ****** ****** ****** ****** ******
   8  ****** ****** ****** ****** ****** ****** ****** ****** ****** ******
      ****** ****** ****** ****** ****** ****** ****** ****** ****** ******
      ****** ****** ****** ****** ****** ****** ****** ****** ****** ******
   9  ****** ****** ****** ****** ****** ****** ****** ****** ****** ******
      ****** ****** ****** ****** ****** ****** ****** ****** ****** ******
      ****** ****** ****** ****** ****** ****** ****** ****** ****** ******
  10  ****** ****** ****** ****** ****** ****** ****** ****** ****** ******
      ****** ****** ****** ****** ****** ****** ****** ****** ****** ******
      ****** ****** ****** ****** ****** ****** ****** ****** ****** ******
  11  ****** ****** ****** ****** ****** ****** ****** ****** ****** ******
      ****** ****** ****** ****** ****** ****** ****** ****** ****** ******
      ****** ****** ****** ****** ****** ****** ****** ****** ****** ******
  12  ****** ****** ****** ****** ****** ****** ****** ****** ****** ******
      ****** ****** ****** ****** ****** ****** ****** ****** ****** ******
      ****** ****** ****** ****** ****** ****** ****** ****** ****** ******
  13  ****** ****** ****** ****** ****** ****** ****** ****** ****** ******
      ****** ****** ****** ****** ****** ****** ****** ****** ****** ******
      ****** ****** ****** ****** ****** ****** ****** ****** ****** ******
  14  ****** ****** ****** ****** ****** ****** ****** ****** ****** ******
      ****** ****** ****** ****** ****** ****** ****** ****** ****** ******
      ****** ****** ****** ****** ****** ****** ****** ****** ****** ******
  15  ****** ****** ****** ****** ****** ****** ****** ****** ****** ******
      ****** ****** ****** ****** ****** ****** ****** ****** ****** ******
      ****** ****** ****** ****** ****** ****** ****** ****** ****** ******
  16  ****** ****** ****** ****** ****** ****** ****** ****** ****** ******
      ****** ****** ****** ****** ****** ****** ****** ****** ****** ******
      ****** ****** ****** ****** ****** ****** ****** ****** ****** ******
  17  ****** ****** ****** ****** ****** ****** ****** ****** ****** ******
      ****** ****** ****** ****** ****** ****** ****** ****** ****** ******
      ****** ****** ****** ****** ****** ****** ****** ****** ****** ******
  18  ****** ****** ****** ****** ****** ****** ****** ****** ****** ******
      ****** ****** ****** ****** ****** ****** ****** ****** ****** ******
      ****** ****** ****** ****** ****** ****** ****** ****** ****** ******
  19  ****** ****** ****** ****** ****** ****** ****** ****** ****** ******
      ****** ****** ****** ****** ****** ****** ****** ****** ****** ******
      ****** ****** ****** ****** ****** ****** ****** ****** ****** ******
  20  ****** ****** ****** ****** ****** ****** ****** ****** ****** ******
      ****** ****** ****** ****** ****** ****** ****** ****** ****** ******
      ****** ****** ****** ****** ****** ****** ****** ****** ****** ******
  21  ****** ****** ****** ****** ****** ****** ****** ****** ****** ******
      ****** ****** ****** ****** ****** ****** ****** ****** ****** ******
      ****** ****** ****** ****** ****** ****** ****** ****** ****** ******
  22  ****** ****** ****** ****** ****** ****** ****** ****** ****** ******
      ****** ****** ****** ****** ****** ****** ****** ****** ****** ******
      ****** ****** ****** ****** ****** ****** ****** ****** ****** ******
  23  ****** ****** ****** ****** ****** ****** ****** ****** ****** ******
      ****** ****** ****** ****** ****** ****** ****** ****** ****** ******
      ****** ****** ****** ****** ****** ****** ****** ****** ****** ******
  24  ****** ****** ****** ****** ****** ****** ****** ****** ****** ******
      ****** ****** ****** ****** ****** ****** ****** ****** ****** ******
      ****** ****** ****** ****** ****** ****** ****** ****** ****** ******
  25  ****** ****** ****** ****** ****** ****** ****** ****** ****** ******
      ****** ****** ****** ****** ****** ****** ****** ****** ****** ******
      ****** ****** ****** ****** ****** ****** ****** ****** ****** ******

 HEAD WILL BE SAVED ON UNIT   51 AT END OF TIME STEP    1, STRESS PERIOD   11
1
  VOLUMETRIC BUDGET FOR ENTIRE MODEL AT END OF TIME STEP    1, STRESS PERIOD  11
  ------------------------------------------------------------------------------

     CUMULATIVE VOLUMES      L**3       RATES FOR THIS TIME STEP      L**3/T
     ------------------                 ------------------------

           IN:                                      IN:
           ---                                      ---
             STORAGE =    36192084.3816               STORAGE =       18043.8109
       CONSTANT HEAD =    29096481.1921         CONSTANT HEAD =       35474.2350
               WELLS =           0.0000                 WELLS =           0.0000
            RECHARGE =    23901600.0000              RECHARGE =           0.0000
      STREAM LEAKAGE =     9470618.7932        STREAM LEAKAGE =       12935.2756

            TOTAL IN =    98660784.3669              TOTAL IN =       66453.3216

          OUT:                                     OUT:
          ----                                     ----
             STORAGE =     2309636.4467               STORAGE =           0.0000
       CONSTANT HEAD =           0.0000         CONSTANT HEAD =           0.0000
               WELLS =    34141927.2610                 WELLS =       34005.9036
            RECHARGE =           0.0000              RECHARGE =           0.0000
      STREAM LEAKAGE =    62209222.6431        STREAM LEAKAGE =       32447.4228

           TOTAL OUT =    98660786.3507             TOTAL OUT =       66453.3265

            IN - OUT =          -1.9838              IN - OUT =      -4.8952E-03

 PERCENT DISCREPANCY =          -0.00     PERCENT DISCREPANCY =          -0.00






         TIME SUMMARY AT END OF TIME STEP    1 IN STRESS PERIOD   11
                    SECONDS     MINUTES      HOURS       DAYS        YEARS
                    -----------------------------------------------------------
   TIME STEP LENGTH 7.86240E+06 1.31040E+05  2184.0      91.000     0.24914    
 STRESS PERIOD TIME 7.86240E+06 1.31040E+05  2184.0      91.000     0.24914    
         TOTAL TIME 8.67456E+07 1.44576E+06  24096.      1004.0      2.7488    
1
1
                            STRESS PERIOD NO.   12, LENGTH =   91.00000    
                            -----------------------------------------------

                              NUMBER OF TIME STEPS =     1

                               MULTIPLIER FOR DELT =     1.500

                            INITIAL TIME STEP SIZE =   91.00000    

 WELL NO.  LAYER   ROW   COL   STRESS RATE         
 --------------------------------------------------
      1      1     14      6       0.000    
      2      1      3      9       0.000    
      3      1     20     10       0.000    
      4      1     14     20       0.000    
      5      1     12     22      -9012.    
      6      1     10     16      -9566.    
      7      1      6     24      -8299.    
      8      1      6     17      -7129.    

      8 WELLS

                 RECHARGE =  1.000000E-03

 REUSING STREAM SEGMENT DATA FROM LAST STRESS PERIOD
 
 SOLVING FOR HEAD 


     7 CALLS TO PCG ROUTINE FOR TIME STEP   1 IN STRESS PERIOD   12
    24 TOTAL ITERATIONS

 OUTPUT CONTROL FOR STRESS PERIOD   12   TIME STEP    1
    SAVE BUDGET
    SAVE HEAD FOR ALL LAYERS
    PRINT HEAD FOR ALL LAYERS
 UBDSV2 SAVING "STREAMFLOW OUT  " ON UNIT  50 AT TIME STEP  1, STRESS PERIOD  12



 STREAM LISTING     PERIOD     12   STEP        1

 LAYER ROW COL. STREAM  RCH.  FLOW INTO     FLOW TO   FLOW OUT OF   OVRLND.     DIRECT     STREAM       STREAM     STREAM     STREAM   STREAMBED  STREAMBED
                SEG.NO.  NO.  STRM. RCH.    AQUIFER    STRM. RCH.    RUNOFF     PRECIP       ET          HEAD       DEPTH      WIDTH   CONDCTNC.   GRADIENT

   1   13    1     1     1    1.0000E+05 -1.4898E+03   1.0149E+05  0.000E+00  0.000E+00  0.000E+00  4.84067E+01  1.453E-01  2.000E+01  2.000E+04 -7.449E-02
   1   13    2     1     2    1.0149E+05 -2.4050E+03   1.0389E+05  0.000E+00  0.000E+00  0.000E+00  4.79311E+01  1.470E-01  2.000E+01  2.000E+04 -1.203E-01
   1   14    3     1     3    1.0389E+05 -4.1930E+02   1.0431E+05  0.000E+00  0.000E+00  0.000E+00  4.74550E+01  1.482E-01  2.000E+01  2.000E+04 -2.096E-02
   1   15    4     1     4    1.0431E+05 -4.0278E+02   1.0472E+05  0.000E+00  0.000E+00  0.000E+00  4.69781E+01  1.485E-01  2.000E+01  2.000E+04 -2.014E-02
   1   16    5     1     5    1.0472E+05 -1.6165E+03   1.0633E+05  0.000E+00  0.000E+00  0.000E+00  4.65017E+01  1.494E-01  2.000E+01  2.000E+04 -8.083E-02
   1   16    6     1     6    1.0633E+05 -1.0146E+03   1.0735E+05  0.000E+00  0.000E+00  0.000E+00  4.60255E+01  1.505E-01  2.000E+01  2.000E+04 -5.073E-02
   1   16    7     1     7    1.0735E+05 -9.9542E+02   1.0834E+05  0.000E+00  0.000E+00  0.000E+00  4.55491E+01  1.514E-01  2.000E+01  2.000E+04 -4.977E-02
   1   16    8     1     8    1.0834E+05 -9.9389E+02   1.0934E+05  0.000E+00  0.000E+00  0.000E+00  4.50726E+01  1.522E-01  2.000E+01  2.000E+04 -4.969E-02
   1   16    9     1     9    1.0934E+05 -9.9222E+02   1.1033E+05  0.000E+00  0.000E+00  0.000E+00  4.45962E+01  1.530E-01  2.000E+01  2.000E+04 -4.961E-02
   1   16   10     1    10    1.1033E+05 -9.9074E+02   1.1132E+05  0.000E+00  0.000E+00  0.000E+00  4.41198E+01  1.539E-01  2.000E+01  2.000E+04 -4.954E-02
   1   16   11     1    11    1.1132E+05 -1.0076E+03   1.1233E+05  0.000E+00  0.000E+00  0.000E+00  4.36433E+01  1.547E-01  2.000E+01  2.000E+04 -5.038E-02
   1   16   12     1    12    1.1233E+05 -1.6339E+03   1.1396E+05  0.000E+00  0.000E+00  0.000E+00  4.31671E+01  1.558E-01  2.000E+01  2.000E+04 -8.170E-02
   1   15   13     1    13    1.1396E+05 -1.2237E+03   1.1519E+05  0.000E+00  0.000E+00  0.000E+00  4.26910E+01  1.570E-01  2.000E+01  2.000E+04 -6.118E-02
   1   14   14     1    14    1.1519E+05 -1.1129E+03   1.1630E+05  0.000E+00  0.000E+00  0.000E+00  4.22147E+01  1.579E-01  2.000E+01  2.000E+04 -5.565E-02
   1   13   15     1    15    1.1630E+05 -7.5415E+02   1.1705E+05  0.000E+00  0.000E+00  0.000E+00  4.17382E+01  1.587E-01  2.000E+01  2.000E+04 -3.771E-02
   1   12   16     1    16    1.1705E+05  7.1594E+02   1.1634E+05  0.000E+00  0.000E+00  0.000E+00  4.12610E+01  1.587E-01  2.000E+01  2.000E+04  3.580E-02
   1   12   17     1    17    1.1634E+05  2.2961E+02   1.1611E+05  0.000E+00  0.000E+00  0.000E+00  4.07833E+01  1.583E-01  2.000E+01  2.000E+04  1.148E-02
   1   12   18     1    18    1.1611E+05 -8.8618E+01   1.1620E+05  0.000E+00  0.000E+00  0.000E+00  4.03060E+01  1.582E-01  2.000E+01  2.000E+04 -4.431E-03
   1   12   19     1    19    1.1620E+05  2.3077E+02   1.1596E+05  0.000E+00  0.000E+00  0.000E+00  3.98286E+01  1.582E-01  2.000E+01  2.000E+04  1.154E-02
   1   13   20     1    20    1.1596E+05  1.9769E+02   1.1577E+05  0.000E+00  0.000E+00  0.000E+00  3.93512E+01  1.580E-01  2.000E+01  2.000E+04  9.884E-03
   1   14   21     1    21    1.1577E+05 -6.6604E+02   1.1643E+05  0.000E+00  0.000E+00  0.000E+00  3.88741E+01  1.582E-01  2.000E+01  2.000E+04 -3.330E-02
   1   14   22     1    22    1.1643E+05  5.4519E+03   1.1098E+05  0.000E+00  0.000E+00  0.000E+00  3.83949E+01  1.562E-01  2.000E+01  2.000E+04  2.726E-01
   1    9   30     2     1    5.0000E+04 -8.4159E+01   5.0084E+04  0.000E+00  0.000E+00  0.000E+00  4.02409E+01  1.159E-01  2.000E+01  2.000E+04 -4.208E-03
   1    9   29     2     2    5.0084E+04 -3.1087E+02   5.0395E+04  0.000E+00  0.000E+00  0.000E+00  3.99912E+01  1.162E-01  2.000E+01  2.000E+04 -1.554E-02
   1    9   28     2     3    5.0395E+04 -3.7951E+02   5.0775E+04  0.000E+00  0.000E+00  0.000E+00  3.97417E+01  1.167E-01  2.000E+01  2.000E+04 -1.898E-02
   1    9   27     2     4    5.0775E+04 -5.4339E+02   5.1318E+04  0.000E+00  0.000E+00  0.000E+00  3.94923E+01  1.173E-01  2.000E+01  2.000E+04 -2.717E-02
   1   10   26     2     5    5.1318E+04 -2.4230E+01   5.1342E+04  0.000E+00  0.000E+00  0.000E+00  3.92427E+01  1.177E-01  2.000E+01  2.000E+04 -1.212E-03
   1   11   25     2     6    5.1342E+04  2.5529E+02   5.1087E+04  0.000E+00  0.000E+00  0.000E+00  3.89925E+01  1.175E-01  2.000E+01  2.000E+04  1.276E-02
   1   12   24     2     7    5.1087E+04  1.3713E+03   4.9716E+04  0.000E+00  0.000E+00  0.000E+00  3.87414E+01  1.164E-01  2.000E+01  2.000E+04  6.857E-02
   1   13   23     2     8    4.9716E+04  4.3573E+02   4.9280E+04  0.000E+00  0.000E+00  0.000E+00  3.84902E+01  1.152E-01  2.000E+01  2.000E+04  2.179E-02
   1   14   22     2     9    4.9280E+04  2.3189E+03   4.6961E+04  0.000E+00  0.000E+00  0.000E+00  3.82382E+01  1.132E-01  2.000E+01  2.000E+04  1.159E-01
   1   14   22     3     1    1.5794E+05 -8.1280E+03   1.6607E+05  0.000E+00  0.000E+00  0.000E+00  3.77159E+01  1.603E-01  2.000E+01  2.000E+04 -4.064E-01
   1   15   23     3     2    1.6607E+05 -5.4240E+02   1.6661E+05  0.000E+00  0.000E+00  0.000E+00  3.68296E+01  1.629E-01  2.000E+01  2.000E+04 -2.712E-02
   1   15   24     3     3    1.6661E+05 -2.8087E+02   1.6689E+05  0.000E+00  0.000E+00  0.000E+00  3.59409E+01  1.631E-01  2.000E+01  2.000E+04 -1.404E-02
   1   15   25     3     4    1.6689E+05 -2.7311E+02   1.6717E+05  0.000E+00  0.000E+00  0.000E+00  3.50522E+01  1.633E-01  2.000E+01  2.000E+04 -1.366E-02
   1   15   26     3     5    1.6717E+05 -3.3083E+02   1.6750E+05  0.000E+00  0.000E+00  0.000E+00  3.41635E+01  1.635E-01  2.000E+01  2.000E+04 -1.654E-02
   1   16   27     3     6    1.6750E+05 -3.6244E+02   1.6786E+05  0.000E+00  0.000E+00  0.000E+00  3.32748E+01  1.637E-01  2.000E+01  2.000E+04 -1.812E-02
   1   17   28     3     7    1.6786E+05 -1.5455E+03   1.6941E+05  0.000E+00  0.000E+00  0.000E+00  3.23865E+01  1.642E-01  2.000E+01  2.000E+04 -7.727E-02
   1   18   29     3     8    1.6941E+05 -2.8843E+03   1.7229E+05  0.000E+00  0.000E+00  0.000E+00  3.14989E+01  1.655E-01  2.000E+01  2.000E+04 -1.442E-01
   1   18   30     3     9    1.7229E+05 -3.1672E+03   1.7546E+05  0.000E+00  0.000E+00  0.000E+00  3.06117E+01  1.673E-01  2.000E+01  2.000E+04 -1.584E-01



1
              HEAD IN LAYER   1 AT END OF TIME STEP   1 IN STRESS PERIOD   12
  ---------------------------------------------------------------------------

          1      2      3      4      5      6      7      8      9     10
         11     12     13     14     15     16     17     18     19     20
         21     22     23     24     25     26     27     28     29     30
 .........................................................................
   1  ****** ****** ****** ****** ****** ****** ****** ****** ****** ******
      ****** ****** ****** ****** ****** ****** ****** ****** ****** ******
      ****** ****** ****** ****** ****** ****** ****** ****** ****** ******
   2  ****** ****** ****** ****** ****** ****** ****** ****** ****** ******
      ****** ****** ****** ****** ****** ****** ****** ****** ****** ******
      ****** ****** ****** ****** ****** ****** ****** ****** ****** ******
   3  ****** ****** ****** ****** ****** ****** ****** ****** ****** ******
      ****** ****** ****** ****** ****** ****** ****** ****** ****** ******
      ****** ****** ****** ****** ****** ****** ****** ****** ****** ******
   4  ****** ****** ****** ****** ****** ****** ****** ****** ****** ******
      ****** ****** ****** ****** ****** ****** ****** ****** ****** ******
      ****** ****** ****** ****** ****** ****** ****** ****** ****** ******
   5  ****** ****** ****** ****** ****** ****** ****** ****** ****** ******
      ****** ****** ****** ****** ****** ****** ****** ****** ****** ******
      ****** ****** ****** ****** ****** ****** ****** ****** ****** ******
   6  ****** ****** ****** ****** ****** ****** ****** ****** ****** ******
      ****** ****** ****** ****** ****** ****** ****** ****** ****** ******
      ****** ****** ****** ****** ****** ****** ****** ****** ****** ******
   7  ****** ****** ****** ****** ****** ****** ****** ****** ****** ******
      ****** ****** ****** ****** ****** ****** ****** ****** ****** ******
      ****** ****** ****** ****** ****** ****** ****** ****** ****** ******
   8  ****** ****** ****** ****** ****** ****** ****** ****** ****** ******
      ****** ****** ****** ****** ****** ****** ****** ****** ****** ******
      ****** ****** ****** ****** ****** ****** ****** ****** ****** ******
   9  ****** ****** ****** ****** ****** ****** ****** ****** ****** ******
      ****** ****** ****** ****** ****** ****** ****** ****** ****** ******
      ****** ****** ****** ****** ****** ****** ****** ****** ****** ******
  10  ****** ****** ****** ****** ****** ****** ****** ****** ****** ******
      ****** ****** ****** ****** ****** ****** ****** ****** ****** ******
      ****** ****** ****** ****** ****** ****** ****** ****** ****** ******
  11  ****** ****** ****** ****** ****** ****** ****** ****** ****** ******
      ****** ****** ****** ****** ****** ****** ****** ****** ****** ******
      ****** ****** ****** ****** ****** ****** ****** ****** ****** ******
  12  ****** ****** ****** ****** ****** ****** ****** ****** ****** ******
      ****** ****** ****** ****** ****** ****** ****** ****** ****** ******
      ****** ****** ****** ****** ****** ****** ****** ****** ****** ******
  13  ****** ****** ****** ****** ****** ****** ****** ****** ****** ******
      ****** ****** ****** ****** ****** ****** ****** ****** ****** ******
      ****** ****** ****** ****** ****** ****** ****** ****** ****** ******
  14  ****** ****** ****** ****** ****** ****** ****** ****** ****** ******
      ****** ****** ****** ****** ****** ****** ****** ****** ****** ******
      ****** ****** ****** ****** ****** ****** ****** ****** ****** ******
  15  ****** ****** ****** ****** ****** ****** ****** ****** ****** ******
      ****** ****** ****** ****** ****** ****** ****** ****** ****** ******
      ****** ****** ****** ****** ****** ****** ****** ****** ****** ******
  16  ****** ****** ****** ****** ****** ****** ****** ****** ****** ******
      ****** ****** ****** ****** ****** ****** ****** ****** ****** ******
      ****** ****** ****** ****** ****** ****** ****** ****** ****** ******
  17  ****** ****** ****** ****** ****** ****** ****** ****** ****** ******
      ****** ****** ****** ****** ****** ****** ****** ****** ****** ******
      ****** ****** ****** ****** ****** ****** ****** ****** ****** ******
  18  ****** ****** ****** ****** ****** ****** ****** ****** ****** ******
      ****** ****** ****** ****** ****** ****** ****** ****** ****** ******
      ****** ****** ****** ****** ****** ****** ****** ****** ****** ******
  19  ****** ****** ****** ****** ****** ****** ****** ****** ****** ******
      ****** ****** ****** ****** ****** ****** ****** ****** ****** ******
      ****** ****** ****** ****** ****** ****** ****** ****** ****** ******
  20  ****** ****** ****** ****** ****** ****** ****** ****** ****** ******
      ****** ****** ****** ****** ****** ****** ****** ****** ****** ******
      ****** ****** ****** ****** ****** ****** ****** ****** ****** ******
  21  ****** ****** ****** ****** ****** ****** ****** ****** ****** ******
      ****** ****** ****** ****** ****** ****** ****** ****** ****** ******
      ****** ****** ****** ****** ****** ****** ****** ****** ****** ******
  22  ****** ****** ****** ****** ****** ****** ****** ****** ****** ******
      ****** ****** ****** ****** ****** ****** ****** ****** ****** ******
      ****** ****** ****** ****** ****** ****** ****** ****** ****** ******
  23  ****** ****** ****** ****** ****** ****** ****** ****** ****** ******
      ****** ****** ****** ****** ****** ****** ****** ****** ****** ******
      ****** ****** ****** ****** ****** ****** ****** ****** ****** ******
  24  ****** ****** ****** ****** ****** ****** ****** ****** ****** ******
      ****** ****** ****** ****** ****** ****** ****** ****** ****** ******
      ****** ****** ****** ****** ****** ****** ****** ****** ****** ******
  25  ****** ****** ****** ****** ****** ****** ****** ****** ****** ******
      ****** ****** ****** ****** ****** ****** ****** ****** ****** ******
      ****** ****** ****** ****** ****** ****** ****** ****** ****** ******

 HEAD WILL BE SAVED ON UNIT   51 AT END OF TIME STEP    1, STRESS PERIOD   12
1
  VOLUMETRIC BUDGET FOR ENTIRE MODEL AT END OF TIME STEP    1, STRESS PERIOD  12
  ------------------------------------------------------------------------------

     CUMULATIVE VOLUMES      L**3       RATES FOR THIS TIME STEP      L**3/T
     ------------------                 ------------------------

           IN:                                      IN:
           ---                                      ---
             STORAGE =    36194500.8369               STORAGE =          26.5545
       CONSTANT HEAD =    32262031.6633         CONSTANT HEAD =       34786.2689
               WELLS =           0.0000                 WELLS =           0.0000
            RECHARGE =    26413200.0000              RECHARGE =       27600.0000
      STREAM LEAKAGE =    10490470.2093        STREAM LEAKAGE =       11207.1584

            TOTAL IN =   105360202.7095              TOTAL IN =       73619.9818

          OUT:                                     OUT:
          ----                                     ----
             STORAGE =     2578099.8382               STORAGE =        2950.1472
       CONSTANT HEAD =           0.0000         CONSTANT HEAD =           0.0000
               WELLS =    37236464.4928                 WELLS =       34005.9036
            RECHARGE =           0.0000              RECHARGE =           0.0000
      STREAM LEAKAGE =    65545640.2793        STREAM LEAKAGE =       36663.9301

           TOTAL OUT =   105360204.6104             TOTAL OUT =       73619.9809

            IN - OUT =          -1.9010              IN - OUT =       9.1064E-04

 PERCENT DISCREPANCY =          -0.00     PERCENT DISCREPANCY =           0.00






         TIME SUMMARY AT END OF TIME STEP    1 IN STRESS PERIOD   12
                    SECONDS     MINUTES      HOURS       DAYS        YEARS
                    -----------------------------------------------------------
   TIME STEP LENGTH 7.86240E+06 1.31040E+05  2184.0      91.000     0.24914    
 STRESS PERIOD TIME 7.86240E+06 1.31040E+05  2184.0      91.000     0.24914    
         TOTAL TIME 9.46080E+07 1.57680E+06  26280.      1095.0      2.9979    
1

 Run end date and time (yyyy/mm/dd hh:mm:ss): 2018/10/14 22:17:46
 Elapsed run time:  0.063 Seconds

