                                  MODFLOW-2005     
      U.S. GEOLOGICAL SURVEY MODULAR FINITE-DIFFERENCE GROUND-WATER FLOW MODEL
                            VERSION 1.11.00 8/8/2013

 LIST FILE: supply2.lst
                         UNIT   10

 OPENING ..\data\supply.dis
 FILE TYPE:DIS   UNIT   11   STATUS:OLD    
 FORMAT:FORMATTED              ACCESS:SEQUENTIAL          

 OPENING ..\data\supply.ba6
 FILE TYPE:BAS6   UNIT   12   STATUS:OLD    
 FORMAT:FORMATTED              ACCESS:SEQUENTIAL          

 OPENING ..\data\supply_het.bc6
 FILE TYPE:BCF6   UNIT   13   STATUS:OLD    
 FORMAT:FORMATTED              ACCESS:SEQUENTIAL          

 OPENING ..\data\supply.rch
 FILE TYPE:RCH   UNIT   15   STATUS:OLD    
 FORMAT:FORMATTED              ACCESS:SEQUENTIAL          

 OPENING ..\data\supply2.sfr
 FILE TYPE:SFR   UNIT   16   STATUS:OLD    
 FORMAT:FORMATTED              ACCESS:SEQUENTIAL          

 OPENING ..\data\supply.oc
 FILE TYPE:OC   UNIT   17   STATUS:OLD    
 FORMAT:FORMATTED              ACCESS:SEQUENTIAL          

 OPENING ..\data\supply.pcg
 FILE TYPE:PCG   UNIT   18   STATUS:OLD    
 FORMAT:FORMATTED              ACCESS:SEQUENTIAL          

 OPENING supply2.wel
 FILE TYPE:WEL   UNIT   19   STATUS:OLD    
 FORMAT:FORMATTED              ACCESS:SEQUENTIAL          

 OPENING supply2sf.cbc
 FILE TYPE:DATA(BINARY)   UNIT   50   STATUS:UNKNOWN
 FORMAT:BINARY                 ACCESS:SEQUENTIAL          

 OPENING supply2hd.bhd
 FILE TYPE:DATA(BINARY)   UNIT   51   STATUS:UNKNOWN
 FORMAT:BINARY                 ACCESS:SEQUENTIAL          

 BAS -- BASIC PACKAGE, VERSION 7, 5/2/2005 INPUT READ FROM UNIT   12
 
 MODFLOW was compiled using uniform precision
 Precision of REAL and DOUBLE PRECISION variables:          15

 DISCRETIZATION INPUT DATA READ FROM UNIT   11
    1 LAYERS        25 ROWS        30 COLUMNS
   12 STRESS PERIOD(S) IN SIMULATION
 MODEL TIME UNIT IS DAYS
 MODEL LENGTH UNIT IS UNDEFINED
  Confining bed flag for each layer:
   0

                     DELR =   200.000    

                     DELC =   200.000    

 TOP ELEVATION OF LAYER 1 =  100.0000    

   MODEL LAYER BOTTOM EL. =   0.00000     FOR LAYER   1


 STRESS PERIOD     LENGTH       TIME STEPS     MULTIPLIER FOR DELT    SS FLAG
 ----------------------------------------------------------------------------
        1         92.00000          1                    1.500         TR
        2         91.00000          1                    1.500         TR
        3         91.00000          1                    1.500         TR
        4         91.00000          1                    1.500         TR
        5         92.00000          1                    1.500         TR
        6         91.00000          1                    1.500         TR
        7         91.00000          1                    1.500         TR
        8         91.00000          1                    1.500         TR
        9         92.00000          1                    1.500         TR
       10         91.00000          1                    1.500         TR
       11         91.00000          1                    1.500         TR
       12         91.00000          1                    1.500         TR

 TRANSIENT SIMULATION



 
 #MODOFC transient water supply sample problem                                   
 #                                                                               
 THE FREE FORMAT OPTION HAS BEEN SELECTED



                     BOUNDARY ARRAY FOR LAYER   1
 READING ON UNIT   12 WITH FORMAT: (20I4)              

 AQUIFER HEAD WILL BE SET TO   0.0000     AT ALL NO-FLOW NODES (IBOUND=0).



                       INITIAL HEAD FOR LAYER   1
 READING ON UNIT   12 WITH FORMAT: (10F13.0)           

 OUTPUT CONTROL IS SPECIFIED ONLY AT TIME STEPS FOR WHICH OUTPUT IS DESIRED
 COMPACT CELL-BY-CELL BUDGET FILES WILL BE WRITTEN
 HEAD PRINT FORMAT CODE IS  18    DRAWDOWN PRINT FORMAT CODE IS   0
 HEADS WILL BE SAVED ON UNIT   51    DRAWDOWNS WILL BE SAVED ON UNIT    0

 BCF -- BLOCK-CENTERED FLOW PACKAGE, VERSION 7, 5/2/2005
         INPUT READ FROM UNIT 13
 TRANSIENT SIMULATION
 HEAD AT CELLS THAT CONVERT TO DRY=   0.0000    
 WETTING CAPABILITY IS NOT ACTIVE
      LAYER  LAYER-TYPE CODE     INTERBLOCK T
      --------------------------------------------
         1            0          0 -- HARMONIC    

 COLUMN TO ROW ANISOTROPY =  1.000000    

     PRIMARY STORAGE COEF =  5.000000E-02 FOR LAYER   1



               TRANSMIS. ALONG ROWS FOR LAYER   1
 READING ON UNIT   13 WITH FORMAT: (FREE)              

 WEL -- WELL PACKAGE, VERSION 7, 5/2/2005 INPUT READ FROM UNIT   19
 # Well package input file written by MMProc
 No named parameters
 MAXIMUM OF      4 ACTIVE WELLS AT ONE TIME


     0 Well parameters

 RCH -- RECHARGE PACKAGE, VERSION 7, 5/2/2005 INPUT READ FROM UNIT   15
 No named parameters
 OPTION 1 -- RECHARGE TO TOP LAYER


     0 Recharge parameters

 SFR7 -- STREAMFLOW ROUTING PACKAGE, VERSION 1.0.7, 2013-01-15
         INPUT READ FROM UNIT  16
 #  Supply2 test problem for GWM-VI
 #  The eighth entry in the first data line is ISTCB2 -
 #    Setting this to a negative number indicates that
 #    streamflows out of the reach will be saved to a
 #    binary file.  The absolute value of ISTCB2 is the
 #    unit to which unformatted flows will be written.
 #
 No named parameters
 Segment information will not be 
 read by reach
 No named parameters
 No specifed inflow files


 NUMBER OF STREAM REACHES IS   40

 NUMBER OF STREAM SEGMENTS IS    3

 NUMBER OF STREAM PARAMETERS IS    0

 NUMBER OF STREAM SEGMENTS DEFINED USING PARAMETERS IS              0

 MAXIMUM ERROR FOR STREAM LEAKAGE RATES IS  1.00E-04

 CONSTANT FOR MANNINGS EQUATION IS  1.2839E+05





   STREAM NETWORK DESCRIPTION: 

   LAYER    ROW    COL   SEGMENT   REACH     LENGTH
                          NUMBER   NUMBER    IN CELL        
   --------------------------------------------------
      1     13      1       1        1    2.0000E+02
      1     13      2       1        2    2.0000E+02
      1     14      3       1        3    2.0000E+02
      1     15      4       1        4    2.0000E+02
      1     16      5       1        5    2.0000E+02
      1     16      6       1        6    2.0000E+02
      1     16      7       1        7    2.0000E+02
      1     16      8       1        8    2.0000E+02
      1     16      9       1        9    2.0000E+02
      1     16     10       1       10    2.0000E+02
      1     16     11       1       11    2.0000E+02
      1     16     12       1       12    2.0000E+02
      1     15     13       1       13    2.0000E+02
      1     14     14       1       14    2.0000E+02
      1     13     15       1       15    2.0000E+02
      1     12     16       1       16    2.0000E+02
      1     12     17       1       17    2.0000E+02
      1     12     18       1       18    2.0000E+02
      1     12     19       1       19    2.0000E+02
      1     13     20       1       20    2.0000E+02
      1     14     21       1       21    2.0000E+02
      1     14     22       1       22    2.0000E+02
      1      9     30       2        1    2.0000E+02
      1      9     29       2        2    2.0000E+02
      1      9     28       2        3    2.0000E+02
      1      9     27       2        4    2.0000E+02
      1     10     26       2        5    2.0000E+02
      1     11     25       2        6    2.0000E+02
      1     12     24       2        7    2.0000E+02
      1     13     23       2        8    2.0000E+02
      1     14     22       2        9    2.0000E+02
      1     14     22       3        1    2.0000E+02
      1     15     23       3        2    2.0000E+02
      1     15     24       3        3    2.0000E+02
      1     15     25       3        4    2.0000E+02
      1     15     26       3        5    2.0000E+02
      1     16     27       3        6    2.0000E+02
      1     17     28       3        7    2.0000E+02
      1     18     29       3        8    2.0000E+02
      1     18     30       3        9    2.0000E+02




 PCG -- CONJUGATE-GRADIENT SOLUTION PACKAGE, VERSION 7, 5/2/2005
 MAXIMUM OF    500 CALLS OF SOLUTION ROUTINE
 MAXIMUM OF      5 INTERNAL ITERATIONS PER CALL TO SOLUTION ROUTINE
 MATRIX PRECONDITIONING TYPE :    1



                                    SOLUTION BY THE CONJUGATE-GRADIENT METHOD
                                   -------------------------------------------
                    MAXIMUM NUMBER OF CALLS TO PCG ROUTINE =      500
                        MAXIMUM ITERATIONS PER CALL TO PCG =        5
                               MATRIX PRECONDITIONING TYPE =        1
        RELAXATION FACTOR (ONLY USED WITH PRECOND. TYPE 1) =    0.10000E+01
 PARAMETER OF POLYNOMIAL PRECOND. = 2 (2) OR IS CALCULATED :        0
                         HEAD CHANGE CRITERION FOR CLOSURE =    0.10000E-05
                     RESIDUAL CHANGE CRITERION FOR CLOSURE =    0.10000E+01
            PCG HEAD AND RESIDUAL CHANGE PRINTOUT INTERVAL =        1
     PRINTING FROM SOLVER IS LIMITED(1) OR SUPPRESSED (>1) =        1
                            STEADY-STATE DAMPING PARAMETER =    0.10000E+01
                               TRANSIENT DAMPING PARAMETER =    0.10000E+01
1
                            STRESS PERIOD NO.    1, LENGTH =   92.00000    
                            -----------------------------------------------

                              NUMBER OF TIME STEPS =     1

                               MULTIPLIER FOR DELT =     1.500

                            INITIAL TIME STEP SIZE =   92.00000    

 WELL NO.  LAYER   ROW   COL   STRESS RATE         
 --------------------------------------------------
      1      1      9     21      -9430.    
      2      1      5     25      -7885.    
      3      1     22     18      -7019.    
      4      1     19      6      -9882.    

      4 WELLS

                 RECHARGE =  5.000000E-04



 CLASSIFICATION & COUNT OF STREAM SEGMENTS BASED ON SOURCE OF INFLOW:

                HEADWATER     DIVERSION     RECEIVES TRIBUTARY FLOW
                ---------     ---------     -----------------------
                     2              0               1



                    INPUT DATA FOR EACH STREAM SEGMENT
 ---------------------------------------------------------------------------------------------

 SEGMENT    SEG.     INFLOW   OVERLAND   STREAM    STREAM   ICALC  OUTFLOW  DIVERSION PRIORITY
    NO.    LENGTH     RATE     RUNOFF      ET       PPT.    METH.  TO SEG.  FROM SEG.    NO.

      1  4.400E+03 1.000E+05 0.000E+00 0.000E+00 0.000E+00    1        3        0        0
      2  1.800E+03 5.000E+04 0.000E+00 0.000E+00 0.000E+00    1        3        0        0
      3  1.800E+03 0.000E+00 0.000E+00 0.000E+00 0.000E+00    1        0        0        0


         STREAMBED PROPERTIES AND STREAM DIMENSIONS

 SEGMENT     BED HYD. COND.      BED THICKNESS     ELEV.-TOP OF BED     WIDTH OF STREAM     DEPTH OF STREAM    STREAM ROUGHNESS
    No.     UPPER     LOWER     UPPER     LOWER     UPPER     LOWER     UPPER     LOWER     UPPER     LOWER   CHANNEL      BANK

     1  5.000E+00 5.000E+00 1.000E+00 1.000E+00 4.850E+01 3.800E+01 2.000E+01 2.000E+01                     5.000E-02
     2  5.000E+00 5.000E+00 1.000E+00 1.000E+00 4.025E+01 3.800E+01 2.000E+01 2.000E+01                     5.000E-02
     3  5.000E+00 5.000E+00 1.000E+00 1.000E+00 3.800E+01 3.000E+01 2.000E+01 2.000E+01                     5.000E-02



 
 SOLVING FOR HEAD 


     9 CALLS TO PCG ROUTINE FOR TIME STEP   1 IN STRESS PERIOD    1
    36 TOTAL ITERATIONS

 OUTPUT CONTROL FOR STRESS PERIOD    1   TIME STEP    1
    SAVE BUDGET
    SAVE HEAD FOR ALL LAYERS
    PRINT HEAD FOR ALL LAYERS
 UBDSV2 SAVING "STREAMFLOW OUT  " ON UNIT  50 AT TIME STEP  1, STRESS PERIOD   1



 STREAM LISTING     PERIOD      1   STEP        1

 LAYER ROW COL. STREAM  RCH.  FLOW INTO     FLOW TO   FLOW OUT OF   OVRLND.     DIRECT     STREAM       STREAM     STREAM     STREAM   STREAMBED  STREAMBED
                SEG.NO.  NO.  STRM. RCH.    AQUIFER    STRM. RCH.    RUNOFF     PRECIP       ET          HEAD       DEPTH      WIDTH   CONDCTNC.   GRADIENT

   1   13    1     1     1    1.0000E+05 -5.9748E+03   1.0597E+05  0.000E+00  0.000E+00  0.000E+00  4.84086E+01  1.472E-01  2.000E+01  2.000E+04 -2.987E-01
   1   13    2     1     2    1.0597E+05 -7.4504E+03   1.1343E+05  0.000E+00  0.000E+00  0.000E+00  4.79370E+01  1.529E-01  2.000E+01  2.000E+04 -3.725E-01
   1   14    3     1     3    1.1343E+05 -2.1466E+03   1.1557E+05  0.000E+00  0.000E+00  0.000E+00  4.74637E+01  1.569E-01  2.000E+01  2.000E+04 -1.073E-01
   1   15    4     1     4    1.1557E+05 -2.1620E+03   1.1773E+05  0.000E+00  0.000E+00  0.000E+00  4.69882E+01  1.587E-01  2.000E+01  2.000E+04 -1.081E-01
   1   16    5     1     5    1.1773E+05 -5.8964E+03   1.2363E+05  0.000E+00  0.000E+00  0.000E+00  4.65142E+01  1.619E-01  2.000E+01  2.000E+04 -2.948E-01
   1   16    6     1     6    1.2363E+05 -3.3110E+03   1.2694E+05  0.000E+00  0.000E+00  0.000E+00  4.60406E+01  1.656E-01  2.000E+01  2.000E+04 -1.655E-01
   1   16    7     1     7    1.2694E+05 -3.3366E+03   1.3028E+05  0.000E+00  0.000E+00  0.000E+00  4.55660E+01  1.682E-01  2.000E+01  2.000E+04 -1.668E-01
   1   16    8     1     8    1.3028E+05 -3.5167E+03   1.3379E+05  0.000E+00  0.000E+00  0.000E+00  4.50914E+01  1.709E-01  2.000E+01  2.000E+04 -1.758E-01
   1   16    9     1     9    1.3379E+05 -3.6746E+03   1.3747E+05  0.000E+00  0.000E+00  0.000E+00  4.46169E+01  1.737E-01  2.000E+01  2.000E+04 -1.837E-01
   1   16   10     1    10    1.3747E+05 -3.7793E+03   1.4125E+05  0.000E+00  0.000E+00  0.000E+00  4.41424E+01  1.765E-01  2.000E+01  2.000E+04 -1.890E-01
   1   16   11     1    11    1.4125E+05 -3.8687E+03   1.4512E+05  0.000E+00  0.000E+00  0.000E+00  4.36681E+01  1.794E-01  2.000E+01  2.000E+04 -1.934E-01
   1   16   12     1    12    1.4512E+05 -6.6531E+03   1.5177E+05  0.000E+00  0.000E+00  0.000E+00  4.31947E+01  1.833E-01  2.000E+01  2.000E+04 -3.327E-01
   1   15   13     1    13    1.5177E+05 -7.1061E+03   1.5888E+05  0.000E+00  0.000E+00  0.000E+00  4.27225E+01  1.884E-01  2.000E+01  2.000E+04 -3.553E-01
   1   14   14     1    14    1.5888E+05 -7.6496E+03   1.6653E+05  0.000E+00  0.000E+00  0.000E+00  4.22505E+01  1.937E-01  2.000E+01  2.000E+04 -3.825E-01
   1   13   15     1    15    1.6653E+05 -8.0119E+03   1.7454E+05  0.000E+00  0.000E+00  0.000E+00  4.17788E+01  1.993E-01  2.000E+01  2.000E+04 -4.006E-01
   1   12   16     1    16    1.7454E+05 -8.5921E+03   1.8313E+05  0.000E+00  0.000E+00  0.000E+00  4.13073E+01  2.050E-01  2.000E+01  2.000E+04 -4.296E-01
   1   12   17     1    17    1.8313E+05 -5.9849E+03   1.8911E+05  0.000E+00  0.000E+00  0.000E+00  4.08350E+01  2.100E-01  2.000E+01  2.000E+04 -2.992E-01
   1   12   18     1    18    1.8911E+05 -5.6835E+03   1.9480E+05  0.000E+00  0.000E+00  0.000E+00  4.03616E+01  2.139E-01  2.000E+01  2.000E+04 -2.842E-01
   1   12   19     1    19    1.9480E+05 -6.7128E+03   2.0151E+05  0.000E+00  0.000E+00  0.000E+00  3.98885E+01  2.180E-01  2.000E+01  2.000E+04 -3.356E-01
   1   13   20     1    20    2.0151E+05 -6.1337E+03   2.0765E+05  0.000E+00  0.000E+00  0.000E+00  3.94154E+01  2.222E-01  2.000E+01  2.000E+04 -3.067E-01
   1   14   21     1    21    2.0765E+05 -5.9975E+03   2.1364E+05  0.000E+00  0.000E+00  0.000E+00  3.89421E+01  2.262E-01  2.000E+01  2.000E+04 -2.999E-01
   1   14   22     1    22    2.1364E+05  3.7725E+03   2.0987E+05  0.000E+00  0.000E+00  0.000E+00  3.84655E+01  2.269E-01  2.000E+01  2.000E+04  1.886E-01
   1    9   30     2     1    5.0000E+04 -4.5420E+03   5.4542E+04  0.000E+00  0.000E+00  0.000E+00  4.02440E+01  1.190E-01  2.000E+01  2.000E+04 -2.271E-01
   1    9   29     2     2    5.4542E+04 -4.7919E+03   5.9334E+04  0.000E+00  0.000E+00  0.000E+00  4.00003E+01  1.253E-01  2.000E+01  2.000E+04 -2.396E-01
   1    9   28     2     3    5.9334E+04 -4.9675E+03   6.4301E+04  0.000E+00  0.000E+00  0.000E+00  3.97566E+01  1.316E-01  2.000E+01  2.000E+04 -2.484E-01
   1    9   27     2     4    6.4301E+04 -7.2480E+03   7.1549E+04  0.000E+00  0.000E+00  0.000E+00  3.95142E+01  1.392E-01  2.000E+01  2.000E+04 -3.624E-01
   1   10   26     2     5    7.1549E+04 -6.4811E+03   7.8030E+04  0.000E+00  0.000E+00  0.000E+00  3.92725E+01  1.475E-01  2.000E+01  2.000E+04 -3.241E-01
   1   11   25     2     6    7.8030E+04 -5.9800E+03   8.4010E+04  0.000E+00  0.000E+00  0.000E+00  3.90298E+01  1.548E-01  2.000E+01  2.000E+04 -2.990E-01
   1   12   24     2     7    8.4010E+04 -5.4773E+03   8.9488E+04  0.000E+00  0.000E+00  0.000E+00  3.87863E+01  1.613E-01  2.000E+01  2.000E+04 -2.739E-01
   1   13   23     2     8    8.9488E+04 -1.5252E+03   9.1013E+04  0.000E+00  0.000E+00  0.000E+00  3.85401E+01  1.651E-01  2.000E+01  2.000E+04 -7.626E-02
   1   14   22     2     9    9.1013E+04  2.7822E+02   9.0735E+04  0.000E+00  0.000E+00  0.000E+00  3.82908E+01  1.658E-01  2.000E+01  2.000E+04  1.391E-02
   1   14   22     3     1    3.0060E+05 -9.7355E+03   3.1034E+05  0.000E+00  0.000E+00  0.000E+00  3.77901E+01  2.346E-01  2.000E+01  2.000E+04 -4.868E-01
   1   15   23     3     2    3.1034E+05 -1.9462E+03   3.1229E+05  0.000E+00  0.000E+00  0.000E+00  3.69039E+01  2.373E-01  2.000E+01  2.000E+04 -9.731E-02
   1   15   24     3     3    3.1229E+05 -1.5213E+03   3.1381E+05  0.000E+00  0.000E+00  0.000E+00  3.60158E+01  2.380E-01  2.000E+01  2.000E+04 -7.606E-02
   1   15   25     3     4    3.1381E+05 -1.5748E+03   3.1538E+05  0.000E+00  0.000E+00  0.000E+00  3.51276E+01  2.388E-01  2.000E+01  2.000E+04 -7.874E-02
   1   15   26     3     5    3.1538E+05 -1.8804E+03   3.1726E+05  0.000E+00  0.000E+00  0.000E+00  3.42395E+01  2.395E-01  2.000E+01  2.000E+04 -9.402E-02
   1   16   27     3     6    3.1726E+05 -2.1601E+03   3.1942E+05  0.000E+00  0.000E+00  0.000E+00  3.33516E+01  2.405E-01  2.000E+01  2.000E+04 -1.080E-01
   1   17   28     3     7    3.1942E+05 -6.5531E+03   3.2598E+05  0.000E+00  0.000E+00  0.000E+00  3.24646E+01  2.424E-01  2.000E+01  2.000E+04 -3.277E-01
   1   18   29     3     8    3.2598E+05 -7.9310E+03   3.3391E+05  0.000E+00  0.000E+00  0.000E+00  3.15790E+01  2.457E-01  2.000E+01  2.000E+04 -3.966E-01
   1   18   30     3     9    3.3391E+05 -7.1380E+03   3.4105E+05  0.000E+00  0.000E+00  0.000E+00  3.06935E+01  2.490E-01  2.000E+01  2.000E+04 -3.569E-01



1
              HEAD IN LAYER   1 AT END OF TIME STEP   1 IN STRESS PERIOD    1
  ---------------------------------------------------------------------------

          1      2      3      4      5      6      7      8      9     10
         11     12     13     14     15     16     17     18     19     20
         21     22     23     24     25     26     27     28     29     30
 .........................................................................
   1  ****** ****** ****** ****** ****** ****** ****** ****** ****** ******
      ****** ****** ****** ****** ****** ****** ****** ****** ****** ******
      ****** ****** ****** ****** ****** ****** ****** ****** ****** ******
   2  ****** ****** ****** ****** ****** ****** ****** ****** ****** ******
      ****** ****** ****** ****** ****** ****** ****** ****** ****** ******
      ****** ****** ****** ****** ****** ****** ****** ****** ****** ******
   3  ****** ****** ****** ****** ****** ****** ****** ****** ****** ******
      ****** ****** ****** ****** ****** ****** ****** ****** ****** ******
      ****** ****** ****** ****** ****** ****** ****** ****** ****** ******
   4  ****** ****** ****** ****** ****** ****** ****** ****** ****** ******
      ****** ****** ****** ****** ****** ****** ****** ****** ****** ******
      ****** ****** ****** ****** ****** ****** ****** ****** ****** ******
   5  ****** ****** ****** ****** ****** ****** ****** ****** ****** ******
      ****** ****** ****** ****** ****** ****** ****** ****** ****** ******
      ****** ****** ****** ****** ****** ****** ****** ****** ****** ******
   6  ****** ****** ****** ****** ****** ****** ****** ****** ****** ******
      ****** ****** ****** ****** ****** ****** ****** ****** ****** ******
      ****** ****** ****** ****** ****** ****** ****** ****** ****** ******
   7  ****** ****** ****** ****** ****** ****** ****** ****** ****** ******
      ****** ****** ****** ****** ****** ****** ****** ****** ****** ******
      ****** ****** ****** ****** ****** ****** ****** ****** ****** ******
   8  ****** ****** ****** ****** ****** ****** ****** ****** ****** ******
      ****** ****** ****** ****** ****** ****** ****** ****** ****** ******
      ****** ****** ****** ****** ****** ****** ****** ****** ****** ******
   9  ****** ****** ****** ****** ****** ****** ****** ****** ****** ******
      ****** ****** ****** ****** ****** ****** ****** ****** ****** ******
      ****** ****** ****** ****** ****** ****** ****** ****** ****** ******
  10  ****** ****** ****** ****** ****** ****** ****** ****** ****** ******
      ****** ****** ****** ****** ****** ****** ****** ****** ****** ******
      ****** ****** ****** ****** ****** ****** ****** ****** ****** ******
  11  ****** ****** ****** ****** ****** ****** ****** ****** ****** ******
      ****** ****** ****** ****** ****** ****** ****** ****** ****** ******
      ****** ****** ****** ****** ****** ****** ****** ****** ****** ******
  12  ****** ****** ****** ****** ****** ****** ****** ****** ****** ******
      ****** ****** ****** ****** ****** ****** ****** ****** ****** ******
      ****** ****** ****** ****** ****** ****** ****** ****** ****** ******
  13  ****** ****** ****** ****** ****** ****** ****** ****** ****** ******
      ****** ****** ****** ****** ****** ****** ****** ****** ****** ******
      ****** ****** ****** ****** ****** ****** ****** ****** ****** ******
  14  ****** ****** ****** ****** ****** ****** ****** ****** ****** ******
      ****** ****** ****** ****** ****** ****** ****** ****** ****** ******
      ****** ****** ****** ****** ****** ****** ****** ****** ****** ******
  15  ****** ****** ****** ****** ****** ****** ****** ****** ****** ******
      ****** ****** ****** ****** ****** ****** ****** ****** ****** ******
      ****** ****** ****** ****** ****** ****** ****** ****** ****** ******
  16  ****** ****** ****** ****** ****** ****** ****** ****** ****** ******
      ****** ****** ****** ****** ****** ****** ****** ****** ****** ******
      ****** ****** ****** ****** ****** ****** ****** ****** ****** ******
  17  ****** ****** ****** ****** ****** ****** ****** ****** ****** ******
      ****** ****** ****** ****** ****** ****** ****** ****** ****** ******
      ****** ****** ****** ****** ****** ****** ****** ****** ****** ******
  18  ****** ****** ****** ****** ****** ****** ****** ****** ****** ******
      ****** ****** ****** ****** ****** ****** ****** ****** ****** ******
      ****** ****** ****** ****** ****** ****** ****** ****** ****** ******
  19  ****** ****** ****** ****** ****** ****** ****** ****** ****** ******
      ****** ****** ****** ****** ****** ****** ****** ****** ****** ******
      ****** ****** ****** ****** ****** ****** ****** ****** ****** ******
  20  ****** ****** ****** ****** ****** ****** ****** ****** ****** ******
      ****** ****** ****** ****** ****** ****** ****** ****** ****** ******
      ****** ****** ****** ****** ****** ****** ****** ****** ****** ******
  21  ****** ****** ****** ****** ****** ****** ****** ****** ****** ******
      ****** ****** ****** ****** ****** ****** ****** ****** ****** ******
      ****** ****** ****** ****** ****** ****** ****** ****** ****** ******
  22  ****** ****** ****** ****** ****** ****** ****** ****** ****** ******
      ****** ****** ****** ****** ****** ****** ****** ****** ****** ******
      ****** ****** ****** ****** ****** ****** ****** ****** ****** ******
  23  ****** ****** ****** ****** ****** ****** ****** ****** ****** ******
      ****** ****** ****** ****** ****** ****** ****** ****** ****** ******
      ****** ****** ****** ****** ****** ****** ****** ****** ****** ******
  24  ****** ****** ****** ****** ****** ****** ****** ****** ****** ******
      ****** ****** ****** ****** ****** ****** ****** ****** ****** ******
      ****** ****** ****** ****** ****** ****** ****** ****** ****** ******
  25  ****** ****** ****** ****** ****** ****** ****** ****** ****** ******
      ****** ****** ****** ****** ****** ****** ****** ****** ****** ******
      ****** ****** ****** ****** ****** ****** ****** ****** ****** ******

 HEAD WILL BE SAVED ON UNIT   51 AT END OF TIME STEP    1, STRESS PERIOD    1
1
  VOLUMETRIC BUDGET FOR ENTIRE MODEL AT END OF TIME STEP    1, STRESS PERIOD   1
  ------------------------------------------------------------------------------

     CUMULATIVE VOLUMES      L**3       RATES FOR THIS TIME STEP      L**3/T
     ------------------                 ------------------------

           IN:                                      IN:
           ---                                      ---
             STORAGE =    18217395.5341               STORAGE =      198015.1688
       CONSTANT HEAD =     1237062.4059         CONSTANT HEAD =       13446.3305
               WELLS =           0.0000                 WELLS =           0.0000
            RECHARGE =     1269600.0000              RECHARGE =       13800.0000
      STREAM LEAKAGE =      372663.6658        STREAM LEAKAGE =        4050.6920

            TOTAL IN =    21096721.6057              TOTAL IN =      229312.1914

          OUT:                                     OUT:
          ----                                     ----
             STORAGE =           0.0000               STORAGE =           0.0000
       CONSTANT HEAD =           0.0000         CONSTANT HEAD =           0.0000
               WELLS =     3147898.5120                 WELLS =       34216.2882
            RECHARGE =           0.0000              RECHARGE =           0.0000
      STREAM LEAKAGE =    17948823.3867        STREAM LEAKAGE =      195095.9064

           TOTAL OUT =    21096721.8987             TOTAL OUT =      229312.1946

            IN - OUT =          -0.2929              IN - OUT =      -3.1840E-03

 PERCENT DISCREPANCY =          -0.00     PERCENT DISCREPANCY =          -0.00






         TIME SUMMARY AT END OF TIME STEP    1 IN STRESS PERIOD    1
                    SECONDS     MINUTES      HOURS       DAYS        YEARS
                    -----------------------------------------------------------
   TIME STEP LENGTH 7.94880E+06 1.32480E+05  2208.0      92.000     0.25188    
 STRESS PERIOD TIME 7.94880E+06 1.32480E+05  2208.0      92.000     0.25188    
         TOTAL TIME 7.94880E+06 1.32480E+05  2208.0      92.000     0.25188    
1
1
                            STRESS PERIOD NO.    2, LENGTH =   91.00000    
                            -----------------------------------------------

                              NUMBER OF TIME STEPS =     1

                               MULTIPLIER FOR DELT =     1.500

                            INITIAL TIME STEP SIZE =   91.00000    

 WELL NO.  LAYER   ROW   COL   STRESS RATE         
 --------------------------------------------------
      1      1      9     21      -9430.    
      2      1      5     25      -7885.    
      3      1     22     18      -7019.    
      4      1     19      6      -9882.    

      4 WELLS

                 RECHARGE =  2.000000E-03

 REUSING STREAM SEGMENT DATA FROM LAST STRESS PERIOD
 
 SOLVING FOR HEAD 


     7 CALLS TO PCG ROUTINE FOR TIME STEP   1 IN STRESS PERIOD    2
    27 TOTAL ITERATIONS

 OUTPUT CONTROL FOR STRESS PERIOD    2   TIME STEP    1
    SAVE BUDGET
    SAVE HEAD FOR ALL LAYERS
    PRINT HEAD FOR ALL LAYERS
 UBDSV2 SAVING "STREAMFLOW OUT  " ON UNIT  50 AT TIME STEP  1, STRESS PERIOD   2



 STREAM LISTING     PERIOD      2   STEP        1

 LAYER ROW COL. STREAM  RCH.  FLOW INTO     FLOW TO   FLOW OUT OF   OVRLND.     DIRECT     STREAM       STREAM     STREAM     STREAM   STREAMBED  STREAMBED
                SEG.NO.  NO.  STRM. RCH.    AQUIFER    STRM. RCH.    RUNOFF     PRECIP       ET          HEAD       DEPTH      WIDTH   CONDCTNC.   GRADIENT

   1   13    1     1     1    1.0000E+05 -3.7601E+03   1.0376E+05  0.000E+00  0.000E+00  0.000E+00  4.84076E+01  1.463E-01  2.000E+01  2.000E+04 -1.880E-01
   1   13    2     1     2    1.0376E+05 -5.0333E+03   1.0879E+05  0.000E+00  0.000E+00  0.000E+00  4.79341E+01  1.500E-01  2.000E+01  2.000E+04 -2.517E-01
   1   14    3     1     3    1.0879E+05 -1.0292E+03   1.0982E+05  0.000E+00  0.000E+00  0.000E+00  4.74594E+01  1.526E-01  2.000E+01  2.000E+04 -5.146E-02
   1   15    4     1     4    1.0982E+05 -9.8010E+02   1.1080E+05  0.000E+00  0.000E+00  0.000E+00  4.69830E+01  1.534E-01  2.000E+01  2.000E+04 -4.901E-02
   1   16    5     1     5    1.1080E+05 -2.4998E+03   1.1330E+05  0.000E+00  0.000E+00  0.000E+00  4.65071E+01  1.549E-01  2.000E+01  2.000E+04 -1.250E-01
   1   16    6     1     6    1.1330E+05 -1.2605E+03   1.1456E+05  0.000E+00  0.000E+00  0.000E+00  4.60314E+01  1.564E-01  2.000E+01  2.000E+04 -6.302E-02
   1   16    7     1     7    1.1456E+05 -1.3878E+03   1.1595E+05  0.000E+00  0.000E+00  0.000E+00  4.55552E+01  1.575E-01  2.000E+01  2.000E+04 -6.939E-02
   1   16    8     1     8    1.1595E+05 -1.6075E+03   1.1756E+05  0.000E+00  0.000E+00  0.000E+00  4.50792E+01  1.587E-01  2.000E+01  2.000E+04 -8.037E-02
   1   16    9     1     9    1.1756E+05 -1.7791E+03   1.1934E+05  0.000E+00  0.000E+00  0.000E+00  4.46033E+01  1.601E-01  2.000E+01  2.000E+04 -8.896E-02
   1   16   10     1    10    1.1934E+05 -1.8785E+03   1.2122E+05  0.000E+00  0.000E+00  0.000E+00  4.41275E+01  1.616E-01  2.000E+01  2.000E+04 -9.393E-02
   1   16   11     1    11    1.2122E+05 -1.9427E+03   1.2316E+05  0.000E+00  0.000E+00  0.000E+00  4.36518E+01  1.631E-01  2.000E+01  2.000E+04 -9.714E-02
   1   16   12     1    12    1.2316E+05 -3.5382E+03   1.2670E+05  0.000E+00  0.000E+00  0.000E+00  4.31767E+01  1.653E-01  2.000E+01  2.000E+04 -1.769E-01
   1   15   13     1    13    1.2670E+05 -3.7323E+03   1.3043E+05  0.000E+00  0.000E+00  0.000E+00  4.27023E+01  1.682E-01  2.000E+01  2.000E+04 -1.866E-01
   1   14   14     1    14    1.3043E+05 -4.1926E+03   1.3462E+05  0.000E+00  0.000E+00  0.000E+00  4.22281E+01  1.713E-01  2.000E+01  2.000E+04 -2.096E-01
   1   13   15     1    15    1.3462E+05 -4.5793E+03   1.3920E+05  0.000E+00  0.000E+00  0.000E+00  4.17542E+01  1.747E-01  2.000E+01  2.000E+04 -2.290E-01
   1   12   16     1    16    1.3920E+05 -5.3368E+03   1.4454E+05  0.000E+00  0.000E+00  0.000E+00  4.12807E+01  1.784E-01  2.000E+01  2.000E+04 -2.668E-01
   1   12   17     1    17    1.4454E+05 -3.3641E+03   1.4790E+05  0.000E+00  0.000E+00  0.000E+00  4.08067E+01  1.817E-01  2.000E+01  2.000E+04 -1.682E-01
   1   12   18     1    18    1.4790E+05 -3.0231E+03   1.5093E+05  0.000E+00  0.000E+00  0.000E+00  4.03318E+01  1.841E-01  2.000E+01  2.000E+04 -1.512E-01
   1   12   19     1    19    1.5093E+05 -3.3090E+03   1.5423E+05  0.000E+00  0.000E+00  0.000E+00  3.98568E+01  1.864E-01  2.000E+01  2.000E+04 -1.654E-01
   1   13   20     1    20    1.5423E+05 -2.7998E+03   1.5703E+05  0.000E+00  0.000E+00  0.000E+00  3.93818E+01  1.886E-01  2.000E+01  2.000E+04 -1.400E-01
   1   14   21     1    21    1.5703E+05 -3.0776E+03   1.6011E+05  0.000E+00  0.000E+00  0.000E+00  3.89067E+01  1.907E-01  2.000E+01  2.000E+04 -1.539E-01
   1   14   22     1    22    1.6011E+05  4.5816E+03   1.5553E+05  0.000E+00  0.000E+00  0.000E+00  3.84288E+01  1.902E-01  2.000E+01  2.000E+04  2.291E-01
   1    9   30     2     1    5.0000E+04 -1.6499E+03   5.1650E+04  0.000E+00  0.000E+00  0.000E+00  4.02420E+01  1.170E-01  2.000E+01  2.000E+04 -8.249E-02
   1    9   29     2     2    5.1650E+04 -1.9005E+03   5.3550E+04  0.000E+00  0.000E+00  0.000E+00  3.99944E+01  1.194E-01  2.000E+01  2.000E+04 -9.502E-02
   1    9   28     2     3    5.3550E+04 -2.0615E+03   5.5612E+04  0.000E+00  0.000E+00  0.000E+00  3.97471E+01  1.221E-01  2.000E+01  2.000E+04 -1.031E-01
   1    9   27     2     4    5.5612E+04 -3.3656E+03   5.8977E+04  0.000E+00  0.000E+00  0.000E+00  3.95007E+01  1.257E-01  2.000E+01  2.000E+04 -1.683E-01
   1   10   26     2     5    5.8977E+04 -2.5711E+03   6.1549E+04  0.000E+00  0.000E+00  0.000E+00  3.92546E+01  1.296E-01  2.000E+01  2.000E+04 -1.286E-01
   1   11   25     2     6    6.1549E+04 -2.2715E+03   6.3820E+04  0.000E+00  0.000E+00  0.000E+00  3.90077E+01  1.327E-01  2.000E+01  2.000E+04 -1.136E-01
   1   12   24     2     7    6.3820E+04 -2.1436E+03   6.5964E+04  0.000E+00  0.000E+00  0.000E+00  3.87605E+01  1.355E-01  2.000E+01  2.000E+04 -1.072E-01
   1   13   23     2     8    6.5964E+04 -4.4630E+02   6.6410E+04  0.000E+00  0.000E+00  0.000E+00  3.85121E+01  1.371E-01  2.000E+01  2.000E+04 -2.232E-02
   1   14   22     2     9    6.6410E+04  1.2369E+03   6.5173E+04  0.000E+00  0.000E+00  0.000E+00  3.82616E+01  1.366E-01  2.000E+01  2.000E+04  6.185E-02
   1   14   22     3     1    2.2070E+05 -8.9770E+03   2.2968E+05  0.000E+00  0.000E+00  0.000E+00  3.77509E+01  1.954E-01  2.000E+01  2.000E+04 -4.488E-01
   1   15   23     3     2    2.2968E+05 -9.7600E+02   2.3066E+05  0.000E+00  0.000E+00  0.000E+00  3.68646E+01  1.979E-01  2.000E+01  2.000E+04 -4.880E-02
   1   15   24     3     3    2.3066E+05 -6.4637E+02   2.3130E+05  0.000E+00  0.000E+00  0.000E+00  3.59761E+01  1.984E-01  2.000E+01  2.000E+04 -3.232E-02
   1   15   25     3     4    2.3130E+05 -6.6022E+02   2.3196E+05  0.000E+00  0.000E+00  0.000E+00  3.50876E+01  1.987E-01  2.000E+01  2.000E+04 -3.301E-02
   1   15   26     3     5    2.3196E+05 -7.6682E+02   2.3273E+05  0.000E+00  0.000E+00  0.000E+00  3.41991E+01  1.991E-01  2.000E+01  2.000E+04 -3.834E-02
   1   16   27     3     6    2.3273E+05 -8.8759E+02   2.3362E+05  0.000E+00  0.000E+00  0.000E+00  3.33106E+01  1.995E-01  2.000E+01  2.000E+04 -4.438E-02
   1   17   28     3     7    2.3362E+05 -3.1986E+03   2.3682E+05  0.000E+00  0.000E+00  0.000E+00  3.24228E+01  2.005E-01  2.000E+01  2.000E+04 -1.599E-01
   1   18   29     3     8    2.3682E+05 -4.9174E+03   2.4173E+05  0.000E+00  0.000E+00  0.000E+00  3.15359E+01  2.026E-01  2.000E+01  2.000E+04 -2.459E-01
   1   18   30     3     9    2.4173E+05 -4.6035E+03   2.4634E+05  0.000E+00  0.000E+00  0.000E+00  3.06495E+01  2.050E-01  2.000E+01  2.000E+04 -2.302E-01



1
              HEAD IN LAYER   1 AT END OF TIME STEP   1 IN STRESS PERIOD    2
  ---------------------------------------------------------------------------

          1      2      3      4      5      6      7      8      9     10
         11     12     13     14     15     16     17     18     19     20
         21     22     23     24     25     26     27     28     29     30
 .........................................................................
   1  ****** ****** ****** ****** ****** ****** ****** ****** ****** ******
      ****** ****** ****** ****** ****** ****** ****** ****** ****** ******
      ****** ****** ****** ****** ****** ****** ****** ****** ****** ******
   2  ****** ****** ****** ****** ****** ****** ****** ****** ****** ******
      ****** ****** ****** ****** ****** ****** ****** ****** ****** ******
      ****** ****** ****** ****** ****** ****** ****** ****** ****** ******
   3  ****** ****** ****** ****** ****** ****** ****** ****** ****** ******
      ****** ****** ****** ****** ****** ****** ****** ****** ****** ******
      ****** ****** ****** ****** ****** ****** ****** ****** ****** ******
   4  ****** ****** ****** ****** ****** ****** ****** ****** ****** ******
      ****** ****** ****** ****** ****** ****** ****** ****** ****** ******
      ****** ****** ****** ****** ****** ****** ****** ****** ****** ******
   5  ****** ****** ****** ****** ****** ****** ****** ****** ****** ******
      ****** ****** ****** ****** ****** ****** ****** ****** ****** ******
      ****** ****** ****** ****** ****** ****** ****** ****** ****** ******
   6  ****** ****** ****** ****** ****** ****** ****** ****** ****** ******
      ****** ****** ****** ****** ****** ****** ****** ****** ****** ******
      ****** ****** ****** ****** ****** ****** ****** ****** ****** ******
   7  ****** ****** ****** ****** ****** ****** ****** ****** ****** ******
      ****** ****** ****** ****** ****** ****** ****** ****** ****** ******
      ****** ****** ****** ****** ****** ****** ****** ****** ****** ******
   8  ****** ****** ****** ****** ****** ****** ****** ****** ****** ******
      ****** ****** ****** ****** ****** ****** ****** ****** ****** ******
      ****** ****** ****** ****** ****** ****** ****** ****** ****** ******
   9  ****** ****** ****** ****** ****** ****** ****** ****** ****** ******
      ****** ****** ****** ****** ****** ****** ****** ****** ****** ******
      ****** ****** ****** ****** ****** ****** ****** ****** ****** ******
  10  ****** ****** ****** ****** ****** ****** ****** ****** ****** ******
      ****** ****** ****** ****** ****** ****** ****** ****** ****** ******
      ****** ****** ****** ****** ****** ****** ****** ****** ****** ******
  11  ****** ****** ****** ****** ****** ****** ****** ****** ****** ******
      ****** ****** ****** ****** ****** ****** ****** ****** ****** ******
      ****** ****** ****** ****** ****** ****** ****** ****** ****** ******
  12  ****** ****** ****** ****** ****** ****** ****** ****** ****** ******
      ****** ****** ****** ****** ****** ****** ****** ****** ****** ******
      ****** ****** ****** ****** ****** ****** ****** ****** ****** ******
  13  ****** ****** ****** ****** ****** ****** ****** ****** ****** ******
      ****** ****** ****** ****** ****** ****** ****** ****** ****** ******
      ****** ****** ****** ****** ****** ****** ****** ****** ****** ******
  14  ****** ****** ****** ****** ****** ****** ****** ****** ****** ******
      ****** ****** ****** ****** ****** ****** ****** ****** ****** ******
      ****** ****** ****** ****** ****** ****** ****** ****** ****** ******
  15  ****** ****** ****** ****** ****** ****** ****** ****** ****** ******
      ****** ****** ****** ****** ****** ****** ****** ****** ****** ******
      ****** ****** ****** ****** ****** ****** ****** ****** ****** ******
  16  ****** ****** ****** ****** ****** ****** ****** ****** ****** ******
      ****** ****** ****** ****** ****** ****** ****** ****** ****** ******
      ****** ****** ****** ****** ****** ****** ****** ****** ****** ******
  17  ****** ****** ****** ****** ****** ****** ****** ****** ****** ******
      ****** ****** ****** ****** ****** ****** ****** ****** ****** ******
      ****** ****** ****** ****** ****** ****** ****** ****** ****** ******
  18  ****** ****** ****** ****** ****** ****** ****** ****** ****** ******
      ****** ****** ****** ****** ****** ****** ****** ****** ****** ******
      ****** ****** ****** ****** ****** ****** ****** ****** ****** ******
  19  ****** ****** ****** ****** ****** ****** ****** ****** ****** ******
      ****** ****** ****** ****** ****** ****** ****** ****** ****** ******
      ****** ****** ****** ****** ****** ****** ****** ****** ****** ******
  20  ****** ****** ****** ****** ****** ****** ****** ****** ****** ******
      ****** ****** ****** ****** ****** ****** ****** ****** ****** ******
      ****** ****** ****** ****** ****** ****** ****** ****** ****** ******
  21  ****** ****** ****** ****** ****** ****** ****** ****** ****** ******
      ****** ****** ****** ****** ****** ****** ****** ****** ****** ******
      ****** ****** ****** ****** ****** ****** ****** ****** ****** ******
  22  ****** ****** ****** ****** ****** ****** ****** ****** ****** ******
      ****** ****** ****** ****** ****** ****** ****** ****** ****** ******
      ****** ****** ****** ****** ****** ****** ****** ****** ****** ******
  23  ****** ****** ****** ****** ****** ****** ****** ****** ****** ******
      ****** ****** ****** ****** ****** ****** ****** ****** ****** ******
      ****** ****** ****** ****** ****** ****** ****** ****** ****** ******
  24  ****** ****** ****** ****** ****** ****** ****** ****** ****** ******
      ****** ****** ****** ****** ****** ****** ****** ****** ****** ******
      ****** ****** ****** ****** ****** ****** ****** ****** ****** ******
  25  ****** ****** ****** ****** ****** ****** ****** ****** ****** ******
      ****** ****** ****** ****** ****** ****** ****** ****** ****** ******
      ****** ****** ****** ****** ****** ****** ****** ****** ****** ******

 HEAD WILL BE SAVED ON UNIT   51 AT END OF TIME STEP    1, STRESS PERIOD    2
1
  VOLUMETRIC BUDGET FOR ENTIRE MODEL AT END OF TIME STEP    1, STRESS PERIOD   2
  ------------------------------------------------------------------------------

     CUMULATIVE VOLUMES      L**3       RATES FOR THIS TIME STEP      L**3/T
     ------------------                 ------------------------

           IN:                                      IN:
           ---                                      ---
             STORAGE =    23378357.8210               STORAGE =       56713.8713
       CONSTANT HEAD =     2933201.6931         CONSTANT HEAD =       18638.8933
               WELLS =           0.0000                 WELLS =           0.0000
            RECHARGE =     6292800.0000              RECHARGE =       55200.0000
      STREAM LEAKAGE =      902146.6975        STREAM LEAKAGE =        5818.4949

            TOTAL IN =    33506506.2116              TOTAL IN =      136371.2594

          OUT:                                     OUT:
          ----                                     ----
             STORAGE =           0.0000               STORAGE =           0.0000
       CONSTANT HEAD =           0.0000         CONSTANT HEAD =           0.0000
               WELLS =     6261580.7358                 WELLS =       34216.2882
            RECHARGE =           0.0000              RECHARGE =           0.0000
      STREAM LEAKAGE =    27244926.7727        STREAM LEAKAGE =      102154.9823

           TOTAL OUT =    33506507.5085             TOTAL OUT =      136371.2704

            IN - OUT =          -1.2968              IN - OUT =      -1.1032E-02

 PERCENT DISCREPANCY =          -0.00     PERCENT DISCREPANCY =          -0.00






         TIME SUMMARY AT END OF TIME STEP    1 IN STRESS PERIOD    2
                    SECONDS     MINUTES      HOURS       DAYS        YEARS
                    -----------------------------------------------------------
   TIME STEP LENGTH 7.86240E+06 1.31040E+05  2184.0      91.000     0.24914    
 STRESS PERIOD TIME 7.86240E+06 1.31040E+05  2184.0      91.000     0.24914    
         TOTAL TIME 1.58112E+07 2.63520E+05  4392.0      183.00     0.50103    
1
1
                            STRESS PERIOD NO.    3, LENGTH =   91.00000    
                            -----------------------------------------------

                              NUMBER OF TIME STEPS =     1

                               MULTIPLIER FOR DELT =     1.500

                            INITIAL TIME STEP SIZE =   91.00000    

 WELL NO.  LAYER   ROW   COL   STRESS RATE         
 --------------------------------------------------
      1      1      9     21      -9430.    
      2      1      5     25      -7885.    
      3      1     22     18      -7019.    
      4      1     19      6      -9882.    

      4 WELLS

                 RECHARGE =   0.00000    

 REUSING STREAM SEGMENT DATA FROM LAST STRESS PERIOD
 
 SOLVING FOR HEAD 


     7 CALLS TO PCG ROUTINE FOR TIME STEP   1 IN STRESS PERIOD    3
    27 TOTAL ITERATIONS

 OUTPUT CONTROL FOR STRESS PERIOD    3   TIME STEP    1
    SAVE BUDGET
    SAVE HEAD FOR ALL LAYERS
    PRINT HEAD FOR ALL LAYERS
 UBDSV2 SAVING "STREAMFLOW OUT  " ON UNIT  50 AT TIME STEP  1, STRESS PERIOD   3



 STREAM LISTING     PERIOD      3   STEP        1

 LAYER ROW COL. STREAM  RCH.  FLOW INTO     FLOW TO   FLOW OUT OF   OVRLND.     DIRECT     STREAM       STREAM     STREAM     STREAM   STREAMBED  STREAMBED
                SEG.NO.  NO.  STRM. RCH.    AQUIFER    STRM. RCH.    RUNOFF     PRECIP       ET          HEAD       DEPTH      WIDTH   CONDCTNC.   GRADIENT

   1   13    1     1     1    1.0000E+05 -2.4622E+03   1.0246E+05  0.000E+00  0.000E+00  0.000E+00  4.84071E+01  1.457E-01  2.000E+01  2.000E+04 -1.231E-01
   1   13    2     1     2    1.0246E+05 -3.5851E+03   1.0605E+05  0.000E+00  0.000E+00  0.000E+00  4.79324E+01  1.483E-01  2.000E+01  2.000E+04 -1.793E-01
   1   14    3     1     3    1.0605E+05 -5.5119E+02   1.0660E+05  0.000E+00  0.000E+00  0.000E+00  4.74569E+01  1.501E-01  2.000E+01  2.000E+04 -2.756E-02
   1   15    4     1     4    1.0660E+05 -4.4915E+02   1.0705E+05  0.000E+00  0.000E+00  0.000E+00  4.69800E+01  1.505E-01  2.000E+01  2.000E+04 -2.246E-02
   1   16    5     1     5    1.0705E+05 -5.0843E+02   1.0756E+05  0.000E+00  0.000E+00  0.000E+00  4.65032E+01  1.509E-01  2.000E+01  2.000E+04 -2.542E-02
   1   16    6     1     6    1.0756E+05 -1.6196E+02   1.0772E+05  0.000E+00  0.000E+00  0.000E+00  4.60262E+01  1.512E-01  2.000E+01  2.000E+04 -8.098E-03
   1   16    7     1     7    1.0772E+05 -3.5849E+02   1.0808E+05  0.000E+00  0.000E+00  0.000E+00  4.55491E+01  1.514E-01  2.000E+01  2.000E+04 -1.792E-02
   1   16    8     1     8    1.0808E+05 -6.0224E+02   1.0868E+05  0.000E+00  0.000E+00  0.000E+00  4.50723E+01  1.518E-01  2.000E+01  2.000E+04 -3.011E-02
   1   16    9     1     9    1.0868E+05 -7.8233E+02   1.0946E+05  0.000E+00  0.000E+00  0.000E+00  4.45956E+01  1.524E-01  2.000E+01  2.000E+04 -3.912E-02
   1   16   10     1    10    1.0946E+05 -8.8375E+02   1.1034E+05  0.000E+00  0.000E+00  0.000E+00  4.41190E+01  1.531E-01  2.000E+01  2.000E+04 -4.419E-02
   1   16   11     1    11    1.1034E+05 -9.3951E+02   1.1128E+05  0.000E+00  0.000E+00  0.000E+00  4.36425E+01  1.538E-01  2.000E+01  2.000E+04 -4.698E-02
   1   16   12     1    12    1.1128E+05 -1.8023E+03   1.1309E+05  0.000E+00  0.000E+00  0.000E+00  4.31663E+01  1.550E-01  2.000E+01  2.000E+04 -9.012E-02
   1   15   13     1    13    1.1309E+05 -1.9987E+03   1.1509E+05  0.000E+00  0.000E+00  0.000E+00  4.26906E+01  1.566E-01  2.000E+01  2.000E+04 -9.994E-02
   1   14   14     1    14    1.1509E+05 -2.4279E+03   1.1751E+05  0.000E+00  0.000E+00  0.000E+00  4.22152E+01  1.584E-01  2.000E+01  2.000E+04 -1.214E-01
   1   13   15     1    15    1.1751E+05 -2.8189E+03   1.2033E+05  0.000E+00  0.000E+00  0.000E+00  4.17400E+01  1.605E-01  2.000E+01  2.000E+04 -1.409E-01
   1   12   16     1    16    1.2033E+05 -3.5122E+03   1.2384E+05  0.000E+00  0.000E+00  0.000E+00  4.12653E+01  1.631E-01  2.000E+01  2.000E+04 -1.756E-01
   1   12   17     1    17    1.2384E+05 -2.0276E+03   1.2587E+05  0.000E+00  0.000E+00  0.000E+00  4.07903E+01  1.653E-01  2.000E+01  2.000E+04 -1.014E-01
   1   12   18     1    18    1.2587E+05 -1.6965E+03   1.2757E+05  0.000E+00  0.000E+00  0.000E+00  4.03145E+01  1.667E-01  2.000E+01  2.000E+04 -8.483E-02
   1   12   19     1    19    1.2757E+05 -1.6255E+03   1.2919E+05  0.000E+00  0.000E+00  0.000E+00  3.98385E+01  1.680E-01  2.000E+01  2.000E+04 -8.127E-02
   1   13   20     1    20    1.2919E+05 -1.2594E+03   1.3045E+05  0.000E+00  0.000E+00  0.000E+00  3.93624E+01  1.692E-01  2.000E+01  2.000E+04 -6.297E-02
   1   14   21     1    21    1.3045E+05 -1.5095E+03   1.3196E+05  0.000E+00  0.000E+00  0.000E+00  3.88862E+01  1.703E-01  2.000E+01  2.000E+04 -7.547E-02
   1   14   22     1    22    1.3196E+05  4.9581E+03   1.2700E+05  0.000E+00  0.000E+00  0.000E+00  3.84075E+01  1.689E-01  2.000E+01  2.000E+04  2.479E-01
   1    9   30     2     1    5.0000E+04 -3.7334E+02   5.0373E+04  0.000E+00  0.000E+00  0.000E+00  4.02411E+01  1.161E-01  2.000E+01  2.000E+04 -1.867E-02
   1    9   29     2     2    5.0373E+04 -6.2217E+02   5.0996E+04  0.000E+00  0.000E+00  0.000E+00  3.99918E+01  1.168E-01  2.000E+01  2.000E+04 -3.111E-02
   1    9   28     2     3    5.0996E+04 -7.6051E+02   5.1756E+04  0.000E+00  0.000E+00  0.000E+00  3.97428E+01  1.178E-01  2.000E+01  2.000E+04 -3.803E-02
   1    9   27     2     4    5.1756E+04 -1.4605E+03   5.3217E+04  0.000E+00  0.000E+00  0.000E+00  3.94943E+01  1.193E-01  2.000E+01  2.000E+04 -7.303E-02
   1   10   26     2     5    5.3217E+04 -8.3121E+02   5.4048E+04  0.000E+00  0.000E+00  0.000E+00  3.92458E+01  1.208E-01  2.000E+01  2.000E+04 -4.156E-02
   1   11   25     2     6    5.4048E+04 -6.6429E+02   5.4712E+04  0.000E+00  0.000E+00  0.000E+00  3.89969E+01  1.219E-01  2.000E+01  2.000E+04 -3.321E-02
   1   12   24     2     7    5.4712E+04 -7.0784E+02   5.5420E+04  0.000E+00  0.000E+00  0.000E+00  3.87478E+01  1.228E-01  2.000E+01  2.000E+04 -3.539E-02
   1   13   23     2     8    5.5420E+04 -9.8687E+01   5.5519E+04  0.000E+00  0.000E+00  0.000E+00  3.84983E+01  1.233E-01  2.000E+01  2.000E+04 -4.934E-03
   1   14   22     2     9    5.5519E+04  1.7513E+03   5.3767E+04  0.000E+00  0.000E+00  0.000E+00  3.82472E+01  1.222E-01  2.000E+01  2.000E+04  8.756E-02
   1   14   22     3     1    1.8077E+05 -8.6085E+03   1.8938E+05  0.000E+00  0.000E+00  0.000E+00  3.77292E+01  1.737E-01  2.000E+01  2.000E+04 -4.304E-01
   1   15   23     3     2    1.8938E+05 -5.6737E+02   1.8995E+05  0.000E+00  0.000E+00  0.000E+00  3.68429E+01  1.762E-01  2.000E+01  2.000E+04 -2.837E-02
   1   15   24     3     3    1.8995E+05 -3.1812E+02   1.9027E+05  0.000E+00  0.000E+00  0.000E+00  3.59543E+01  1.765E-01  2.000E+01  2.000E+04 -1.591E-02
   1   15   25     3     4    1.9027E+05 -3.1724E+02   1.9058E+05  0.000E+00  0.000E+00  0.000E+00  3.50655E+01  1.767E-01  2.000E+01  2.000E+04 -1.586E-02
   1   15   26     3     5    1.9058E+05 -3.6073E+02   1.9094E+05  0.000E+00  0.000E+00  0.000E+00  3.41768E+01  1.768E-01  2.000E+01  2.000E+04 -1.804E-02
   1   16   27     3     6    1.9094E+05 -4.1769E+02   1.9136E+05  0.000E+00  0.000E+00  0.000E+00  3.32882E+01  1.771E-01  2.000E+01  2.000E+04 -2.088E-02
   1   17   28     3     7    1.9136E+05 -1.7661E+03   1.9313E+05  0.000E+00  0.000E+00  0.000E+00  3.23999E+01  1.777E-01  2.000E+01  2.000E+04 -8.830E-02
   1   18   29     3     8    1.9313E+05 -3.3526E+03   1.9648E+05  0.000E+00  0.000E+00  0.000E+00  3.15124E+01  1.791E-01  2.000E+01  2.000E+04 -1.676E-01
   1   18   30     3     9    1.9648E+05 -3.4385E+03   1.9992E+05  0.000E+00  0.000E+00  0.000E+00  3.06254E+01  1.810E-01  2.000E+01  2.000E+04 -1.719E-01



1
              HEAD IN LAYER   1 AT END OF TIME STEP   1 IN STRESS PERIOD    3
  ---------------------------------------------------------------------------

          1      2      3      4      5      6      7      8      9     10
         11     12     13     14     15     16     17     18     19     20
         21     22     23     24     25     26     27     28     29     30
 .........................................................................
   1  ****** ****** ****** ****** ****** ****** ****** ****** ****** ******
      ****** ****** ****** ****** ****** ****** ****** ****** ****** ******
      ****** ****** ****** ****** ****** ****** ****** ****** ****** ******
   2  ****** ****** ****** ****** ****** ****** ****** ****** ****** ******
      ****** ****** ****** ****** ****** ****** ****** ****** ****** ******
      ****** ****** ****** ****** ****** ****** ****** ****** ****** ******
   3  ****** ****** ****** ****** ****** ****** ****** ****** ****** ******
      ****** ****** ****** ****** ****** ****** ****** ****** ****** ******
      ****** ****** ****** ****** ****** ****** ****** ****** ****** ******
   4  ****** ****** ****** ****** ****** ****** ****** ****** ****** ******
      ****** ****** ****** ****** ****** ****** ****** ****** ****** ******
      ****** ****** ****** ****** ****** ****** ****** ****** ****** ******
   5  ****** ****** ****** ****** ****** ****** ****** ****** ****** ******
      ****** ****** ****** ****** ****** ****** ****** ****** ****** ******
      ****** ****** ****** ****** ****** ****** ****** ****** ****** ******
   6  ****** ****** ****** ****** ****** ****** ****** ****** ****** ******
      ****** ****** ****** ****** ****** ****** ****** ****** ****** ******
      ****** ****** ****** ****** ****** ****** ****** ****** ****** ******
   7  ****** ****** ****** ****** ****** ****** ****** ****** ****** ******
      ****** ****** ****** ****** ****** ****** ****** ****** ****** ******
      ****** ****** ****** ****** ****** ****** ****** ****** ****** ******
   8  ****** ****** ****** ****** ****** ****** ****** ****** ****** ******
      ****** ****** ****** ****** ****** ****** ****** ****** ****** ******
      ****** ****** ****** ****** ****** ****** ****** ****** ****** ******
   9  ****** ****** ****** ****** ****** ****** ****** ****** ****** ******
      ****** ****** ****** ****** ****** ****** ****** ****** ****** ******
      ****** ****** ****** ****** ****** ****** ****** ****** ****** ******
  10  ****** ****** ****** ****** ****** ****** ****** ****** ****** ******
      ****** ****** ****** ****** ****** ****** ****** ****** ****** ******
      ****** ****** ****** ****** ****** ****** ****** ****** ****** ******
  11  ****** ****** ****** ****** ****** ****** ****** ****** ****** ******
      ****** ****** ****** ****** ****** ****** ****** ****** ****** ******
      ****** ****** ****** ****** ****** ****** ****** ****** ****** ******
  12  ****** ****** ****** ****** ****** ****** ****** ****** ****** ******
      ****** ****** ****** ****** ****** ****** ****** ****** ****** ******
      ****** ****** ****** ****** ****** ****** ****** ****** ****** ******
  13  ****** ****** ****** ****** ****** ****** ****** ****** ****** ******
      ****** ****** ****** ****** ****** ****** ****** ****** ****** ******
      ****** ****** ****** ****** ****** ****** ****** ****** ****** ******
  14  ****** ****** ****** ****** ****** ****** ****** ****** ****** ******
      ****** ****** ****** ****** ****** ****** ****** ****** ****** ******
      ****** ****** ****** ****** ****** ****** ****** ****** ****** ******
  15  ****** ****** ****** ****** ****** ****** ****** ****** ****** ******
      ****** ****** ****** ****** ****** ****** ****** ****** ****** ******
      ****** ****** ****** ****** ****** ****** ****** ****** ****** ******
  16  ****** ****** ****** ****** ****** ****** ****** ****** ****** ******
      ****** ****** ****** ****** ****** ****** ****** ****** ****** ******
      ****** ****** ****** ****** ****** ****** ****** ****** ****** ******
  17  ****** ****** ****** ****** ****** ****** ****** ****** ****** ******
      ****** ****** ****** ****** ****** ****** ****** ****** ****** ******
      ****** ****** ****** ****** ****** ****** ****** ****** ****** ******
  18  ****** ****** ****** ****** ****** ****** ****** ****** ****** ******
      ****** ****** ****** ****** ****** ****** ****** ****** ****** ******
      ****** ****** ****** ****** ****** ****** ****** ****** ****** ******
  19  ****** ****** ****** ****** ****** ****** ****** ****** ****** ******
      ****** ****** ****** ****** ****** ****** ****** ****** ****** ******
      ****** ****** ****** ****** ****** ****** ****** ****** ****** ******
  20  ****** ****** ****** ****** ****** ****** ****** ****** ****** ******
      ****** ****** ****** ****** ****** ****** ****** ****** ****** ******
      ****** ****** ****** ****** ****** ****** ****** ****** ****** ******
  21  ****** ****** ****** ****** ****** ****** ****** ****** ****** ******
      ****** ****** ****** ****** ****** ****** ****** ****** ****** ******
      ****** ****** ****** ****** ****** ****** ****** ****** ****** ******
  22  ****** ****** ****** ****** ****** ****** ****** ****** ****** ******
      ****** ****** ****** ****** ****** ****** ****** ****** ****** ******
      ****** ****** ****** ****** ****** ****** ****** ****** ****** ******
  23  ****** ****** ****** ****** ****** ****** ****** ****** ****** ******
      ****** ****** ****** ****** ****** ****** ****** ****** ****** ******
      ****** ****** ****** ****** ****** ****** ****** ****** ****** ******
  24  ****** ****** ****** ****** ****** ****** ****** ****** ****** ******
      ****** ****** ****** ****** ****** ****** ****** ****** ****** ******
      ****** ****** ****** ****** ****** ****** ****** ****** ****** ******
  25  ****** ****** ****** ****** ****** ****** ****** ****** ****** ******
      ****** ****** ****** ****** ****** ****** ****** ****** ****** ******
      ****** ****** ****** ****** ****** ****** ****** ****** ****** ******

 HEAD WILL BE SAVED ON UNIT   51 AT END OF TIME STEP    1, STRESS PERIOD    3
1
  VOLUMETRIC BUDGET FOR ENTIRE MODEL AT END OF TIME STEP    1, STRESS PERIOD   3
  ------------------------------------------------------------------------------

     CUMULATIVE VOLUMES      L**3       RATES FOR THIS TIME STEP      L**3/T
     ------------------                 ------------------------

           IN:                                      IN:
           ---                                      ---
             STORAGE =    28524816.2368               STORAGE =       56554.4881
       CONSTANT HEAD =     5443044.7206         CONSTANT HEAD =       27580.6926
               WELLS =           0.0000                 WELLS =           0.0000
            RECHARGE =     6292800.0000              RECHARGE =           0.0000
      STREAM LEAKAGE =     1512696.1542        STREAM LEAKAGE =        6709.3347

            TOTAL IN =    41773357.1117              TOTAL IN =       90844.5154

          OUT:                                     OUT:
          ----                                     ----
             STORAGE =           0.0000               STORAGE =           0.0000
       CONSTANT HEAD =           0.0000         CONSTANT HEAD =           0.0000
               WELLS =     9375262.9596                 WELLS =       34216.2882
            RECHARGE =           0.0000              RECHARGE =           0.0000
      STREAM LEAKAGE =    32398096.1853        STREAM LEAKAGE =       56628.2353

           TOTAL OUT =    41773359.1449             TOTAL OUT =       90844.5235

            IN - OUT =          -2.0332              IN - OUT =      -8.0921E-03

 PERCENT DISCREPANCY =          -0.00     PERCENT DISCREPANCY =          -0.00






         TIME SUMMARY AT END OF TIME STEP    1 IN STRESS PERIOD    3
                    SECONDS     MINUTES      HOURS       DAYS        YEARS
                    -----------------------------------------------------------
   TIME STEP LENGTH 7.86240E+06 1.31040E+05  2184.0      91.000     0.24914    
 STRESS PERIOD TIME 7.86240E+06 1.31040E+05  2184.0      91.000     0.24914    
         TOTAL TIME 2.36736E+07 3.94560E+05  6576.0      274.00     0.75017    
1
1
                            STRESS PERIOD NO.    4, LENGTH =   91.00000    
                            -----------------------------------------------

                              NUMBER OF TIME STEPS =     1

                               MULTIPLIER FOR DELT =     1.500

                            INITIAL TIME STEP SIZE =   91.00000    

 WELL NO.  LAYER   ROW   COL   STRESS RATE         
 --------------------------------------------------
      1      1      9     21      -9430.    
      2      1      5     25      -7885.    
      3      1     22     18      -7019.    
      4      1     19      6      -9882.    

      4 WELLS

                 RECHARGE =  1.000000E-03

 REUSING STREAM SEGMENT DATA FROM LAST STRESS PERIOD
 
 SOLVING FOR HEAD 


     6 CALLS TO PCG ROUTINE FOR TIME STEP   1 IN STRESS PERIOD    4
    23 TOTAL ITERATIONS

 OUTPUT CONTROL FOR STRESS PERIOD    4   TIME STEP    1
    SAVE BUDGET
    SAVE HEAD FOR ALL LAYERS
    PRINT HEAD FOR ALL LAYERS
 UBDSV2 SAVING "STREAMFLOW OUT  " ON UNIT  50 AT TIME STEP  1, STRESS PERIOD   4



 STREAM LISTING     PERIOD      4   STEP        1

 LAYER ROW COL. STREAM  RCH.  FLOW INTO     FLOW TO   FLOW OUT OF   OVRLND.     DIRECT     STREAM       STREAM     STREAM     STREAM   STREAMBED  STREAMBED
                SEG.NO.  NO.  STRM. RCH.    AQUIFER    STRM. RCH.    RUNOFF     PRECIP       ET          HEAD       DEPTH      WIDTH   CONDCTNC.   GRADIENT

   1   13    1     1     1    1.0000E+05 -2.2061E+03   1.0221E+05  0.000E+00  0.000E+00  0.000E+00  4.84070E+01  1.456E-01  2.000E+01  2.000E+04 -1.103E-01
   1   13    2     1     2    1.0221E+05 -3.2927E+03   1.0550E+05  0.000E+00  0.000E+00  0.000E+00  4.79321E+01  1.480E-01  2.000E+01  2.000E+04 -1.646E-01
   1   14    3     1     3    1.0550E+05 -5.1481E+02   1.0601E+05  0.000E+00  0.000E+00  0.000E+00  4.74564E+01  1.496E-01  2.000E+01  2.000E+04 -2.574E-02
   1   15    4     1     4    1.0601E+05 -3.9894E+02   1.0641E+05  0.000E+00  0.000E+00  0.000E+00  4.69795E+01  1.500E-01  2.000E+01  2.000E+04 -1.995E-02
   1   16    5     1     5    1.0641E+05 -1.1658E+02   1.0653E+05  0.000E+00  0.000E+00  0.000E+00  4.65025E+01  1.502E-01  2.000E+01  2.000E+04 -5.829E-03
   1   16    6     1     6    1.0653E+05  2.8740E+01   1.0650E+05  0.000E+00  0.000E+00  0.000E+00  4.60252E+01  1.502E-01  2.000E+01  2.000E+04  1.437E-03
   1   16    7     1     7    1.0650E+05 -1.8434E+02   1.0668E+05  0.000E+00  0.000E+00  0.000E+00  4.55480E+01  1.503E-01  2.000E+01  2.000E+04 -9.217E-03
   1   16    8     1     8    1.0668E+05 -4.3487E+02   1.0712E+05  0.000E+00  0.000E+00  0.000E+00  4.50710E+01  1.506E-01  2.000E+01  2.000E+04 -2.174E-02
   1   16    9     1     9    1.0712E+05 -6.1921E+02   1.0774E+05  0.000E+00  0.000E+00  0.000E+00  4.45942E+01  1.510E-01  2.000E+01  2.000E+04 -3.096E-02
   1   16   10     1    10    1.0774E+05 -7.2444E+02   1.0846E+05  0.000E+00  0.000E+00  0.000E+00  4.41175E+01  1.516E-01  2.000E+01  2.000E+04 -3.622E-02
   1   16   11     1    11    1.0846E+05 -7.7882E+02   1.0924E+05  0.000E+00  0.000E+00  0.000E+00  4.36408E+01  1.522E-01  2.000E+01  2.000E+04 -3.894E-02
   1   16   12     1    12    1.0924E+05 -1.4806E+03   1.1072E+05  0.000E+00  0.000E+00  0.000E+00  4.31645E+01  1.532E-01  2.000E+01  2.000E+04 -7.403E-02
   1   15   13     1    13    1.1072E+05 -1.7157E+03   1.1244E+05  0.000E+00  0.000E+00  0.000E+00  4.26886E+01  1.545E-01  2.000E+01  2.000E+04 -8.578E-02
   1   14   14     1    14    1.1244E+05 -2.1303E+03   1.1457E+05  0.000E+00  0.000E+00  0.000E+00  4.22129E+01  1.561E-01  2.000E+01  2.000E+04 -1.065E-01
   1   13   15     1    15    1.1457E+05 -2.5010E+03   1.1707E+05  0.000E+00  0.000E+00  0.000E+00  4.17375E+01  1.580E-01  2.000E+01  2.000E+04 -1.251E-01
   1   12   16     1    16    1.1707E+05 -3.0988E+03   1.2017E+05  0.000E+00  0.000E+00  0.000E+00  4.12625E+01  1.603E-01  2.000E+01  2.000E+04 -1.549E-01
   1   12   17     1    17    1.2017E+05 -1.7709E+03   1.2194E+05  0.000E+00  0.000E+00  0.000E+00  4.07872E+01  1.622E-01  2.000E+01  2.000E+04 -8.854E-02
   1   12   18     1    18    1.2194E+05 -1.4535E+03   1.2339E+05  0.000E+00  0.000E+00  0.000E+00  4.03112E+01  1.635E-01  2.000E+01  2.000E+04 -7.267E-02
   1   12   19     1    19    1.2339E+05 -1.3190E+03   1.2471E+05  0.000E+00  0.000E+00  0.000E+00  3.98351E+01  1.646E-01  2.000E+01  2.000E+04 -6.595E-02
   1   13   20     1    20    1.2471E+05 -1.0519E+03   1.2576E+05  0.000E+00  0.000E+00  0.000E+00  3.93587E+01  1.656E-01  2.000E+01  2.000E+04 -5.260E-02
   1   14   21     1    21    1.2576E+05 -1.2368E+03   1.2700E+05  0.000E+00  0.000E+00  0.000E+00  3.88824E+01  1.665E-01  2.000E+01  2.000E+04 -6.184E-02
   1   14   22     1    22    1.2700E+05  5.0016E+03   1.2200E+05  0.000E+00  0.000E+00  0.000E+00  3.84036E+01  1.650E-01  2.000E+01  2.000E+04  2.501E-01
   1    9   30     2     1    5.0000E+04 -2.5291E+02   5.0253E+04  0.000E+00  0.000E+00  0.000E+00  4.02410E+01  1.160E-01  2.000E+01  2.000E+04 -1.265E-02
   1    9   29     2     2    5.0253E+04 -4.9356E+02   5.0746E+04  0.000E+00  0.000E+00  0.000E+00  3.99916E+01  1.166E-01  2.000E+01  2.000E+04 -2.468E-02
   1    9   28     2     3    5.0746E+04 -6.0830E+02   5.1355E+04  0.000E+00  0.000E+00  0.000E+00  3.97423E+01  1.173E-01  2.000E+01  2.000E+04 -3.041E-02
   1    9   27     2     4    5.1355E+04 -1.1298E+03   5.2485E+04  0.000E+00  0.000E+00  0.000E+00  3.94935E+01  1.185E-01  2.000E+01  2.000E+04 -5.649E-02
   1   10   26     2     5    5.2485E+04 -6.3204E+02   5.3117E+04  0.000E+00  0.000E+00  0.000E+00  3.92447E+01  1.197E-01  2.000E+01  2.000E+04 -3.160E-02
   1   11   25     2     6    5.3117E+04 -5.1406E+02   5.3631E+04  0.000E+00  0.000E+00  0.000E+00  3.89955E+01  1.205E-01  2.000E+01  2.000E+04 -2.570E-02
   1   12   24     2     7    5.3631E+04 -5.7919E+02   5.4210E+04  0.000E+00  0.000E+00  0.000E+00  3.87462E+01  1.212E-01  2.000E+01  2.000E+04 -2.896E-02
   1   13   23     2     8    5.4210E+04 -1.1982E+02   5.4330E+04  0.000E+00  0.000E+00  0.000E+00  3.84967E+01  1.217E-01  2.000E+01  2.000E+04 -5.991E-03
   1   14   22     2     9    5.4330E+04  1.8402E+03   5.2489E+04  0.000E+00  0.000E+00  0.000E+00  3.82455E+01  1.205E-01  2.000E+01  2.000E+04  9.201E-02
   1   14   22     3     1    1.7449E+05 -8.5578E+03   1.8305E+05  0.000E+00  0.000E+00  0.000E+00  3.77256E+01  1.701E-01  2.000E+01  2.000E+04 -4.279E-01
   1   15   23     3     2    1.8305E+05 -5.3553E+02   1.8358E+05  0.000E+00  0.000E+00  0.000E+00  3.68393E+01  1.727E-01  2.000E+01  2.000E+04 -2.678E-02
   1   15   24     3     3    1.8358E+05 -3.1414E+02   1.8390E+05  0.000E+00  0.000E+00  0.000E+00  3.59507E+01  1.729E-01  2.000E+01  2.000E+04 -1.571E-02
   1   15   25     3     4    1.8390E+05 -3.1401E+02   1.8421E+05  0.000E+00  0.000E+00  0.000E+00  3.50620E+01  1.731E-01  2.000E+01  2.000E+04 -1.570E-02
   1   15   26     3     5    1.8421E+05 -3.6834E+02   1.8458E+05  0.000E+00  0.000E+00  0.000E+00  3.41733E+01  1.733E-01  2.000E+01  2.000E+04 -1.842E-02
   1   16   27     3     6    1.8458E+05 -4.1525E+02   1.8499E+05  0.000E+00  0.000E+00  0.000E+00  3.32846E+01  1.735E-01  2.000E+01  2.000E+04 -2.076E-02
   1   17   28     3     7    1.8499E+05 -1.6908E+03   1.8668E+05  0.000E+00  0.000E+00  0.000E+00  3.23963E+01  1.741E-01  2.000E+01  2.000E+04 -8.454E-02
   1   18   29     3     8    1.8668E+05 -3.1088E+03   1.8979E+05  0.000E+00  0.000E+00  0.000E+00  3.15088E+01  1.754E-01  2.000E+01  2.000E+04 -1.554E-01
   1   18   30     3     9    1.8979E+05 -3.3148E+03   1.9311E+05  0.000E+00  0.000E+00  0.000E+00  3.06217E+01  1.772E-01  2.000E+01  2.000E+04 -1.657E-01



1
              HEAD IN LAYER   1 AT END OF TIME STEP   1 IN STRESS PERIOD    4
  ---------------------------------------------------------------------------

          1      2      3      4      5      6      7      8      9     10
         11     12     13     14     15     16     17     18     19     20
         21     22     23     24     25     26     27     28     29     30
 .........................................................................
   1  ****** ****** ****** ****** ****** ****** ****** ****** ****** ******
      ****** ****** ****** ****** ****** ****** ****** ****** ****** ******
      ****** ****** ****** ****** ****** ****** ****** ****** ****** ******
   2  ****** ****** ****** ****** ****** ****** ****** ****** ****** ******
      ****** ****** ****** ****** ****** ****** ****** ****** ****** ******
      ****** ****** ****** ****** ****** ****** ****** ****** ****** ******
   3  ****** ****** ****** ****** ****** ****** ****** ****** ****** ******
      ****** ****** ****** ****** ****** ****** ****** ****** ****** ******
      ****** ****** ****** ****** ****** ****** ****** ****** ****** ******
   4  ****** ****** ****** ****** ****** ****** ****** ****** ****** ******
      ****** ****** ****** ****** ****** ****** ****** ****** ****** ******
      ****** ****** ****** ****** ****** ****** ****** ****** ****** ******
   5  ****** ****** ****** ****** ****** ****** ****** ****** ****** ******
      ****** ****** ****** ****** ****** ****** ****** ****** ****** ******
      ****** ****** ****** ****** ****** ****** ****** ****** ****** ******
   6  ****** ****** ****** ****** ****** ****** ****** ****** ****** ******
      ****** ****** ****** ****** ****** ****** ****** ****** ****** ******
      ****** ****** ****** ****** ****** ****** ****** ****** ****** ******
   7  ****** ****** ****** ****** ****** ****** ****** ****** ****** ******
      ****** ****** ****** ****** ****** ****** ****** ****** ****** ******
      ****** ****** ****** ****** ****** ****** ****** ****** ****** ******
   8  ****** ****** ****** ****** ****** ****** ****** ****** ****** ******
      ****** ****** ****** ****** ****** ****** ****** ****** ****** ******
      ****** ****** ****** ****** ****** ****** ****** ****** ****** ******
   9  ****** ****** ****** ****** ****** ****** ****** ****** ****** ******
      ****** ****** ****** ****** ****** ****** ****** ****** ****** ******
      ****** ****** ****** ****** ****** ****** ****** ****** ****** ******
  10  ****** ****** ****** ****** ****** ****** ****** ****** ****** ******
      ****** ****** ****** ****** ****** ****** ****** ****** ****** ******
      ****** ****** ****** ****** ****** ****** ****** ****** ****** ******
  11  ****** ****** ****** ****** ****** ****** ****** ****** ****** ******
      ****** ****** ****** ****** ****** ****** ****** ****** ****** ******
      ****** ****** ****** ****** ****** ****** ****** ****** ****** ******
  12  ****** ****** ****** ****** ****** ****** ****** ****** ****** ******
      ****** ****** ****** ****** ****** ****** ****** ****** ****** ******
      ****** ****** ****** ****** ****** ****** ****** ****** ****** ******
  13  ****** ****** ****** ****** ****** ****** ****** ****** ****** ******
      ****** ****** ****** ****** ****** ****** ****** ****** ****** ******
      ****** ****** ****** ****** ****** ****** ****** ****** ****** ******
  14  ****** ****** ****** ****** ****** ****** ****** ****** ****** ******
      ****** ****** ****** ****** ****** ****** ****** ****** ****** ******
      ****** ****** ****** ****** ****** ****** ****** ****** ****** ******
  15  ****** ****** ****** ****** ****** ****** ****** ****** ****** ******
      ****** ****** ****** ****** ****** ****** ****** ****** ****** ******
      ****** ****** ****** ****** ****** ****** ****** ****** ****** ******
  16  ****** ****** ****** ****** ****** ****** ****** ****** ****** ******
      ****** ****** ****** ****** ****** ****** ****** ****** ****** ******
      ****** ****** ****** ****** ****** ****** ****** ****** ****** ******
  17  ****** ****** ****** ****** ****** ****** ****** ****** ****** ******
      ****** ****** ****** ****** ****** ****** ****** ****** ****** ******
      ****** ****** ****** ****** ****** ****** ****** ****** ****** ******
  18  ****** ****** ****** ****** ****** ****** ****** ****** ****** ******
      ****** ****** ****** ****** ****** ****** ****** ****** ****** ******
      ****** ****** ****** ****** ****** ****** ****** ****** ****** ******
  19  ****** ****** ****** ****** ****** ****** ****** ****** ****** ******
      ****** ****** ****** ****** ****** ****** ****** ****** ****** ******
      ****** ****** ****** ****** ****** ****** ****** ****** ****** ******
  20  ****** ****** ****** ****** ****** ****** ****** ****** ****** ******
      ****** ****** ****** ****** ****** ****** ****** ****** ****** ******
      ****** ****** ****** ****** ****** ****** ****** ****** ****** ******
  21  ****** ****** ****** ****** ****** ****** ****** ****** ****** ******
      ****** ****** ****** ****** ****** ****** ****** ****** ****** ******
      ****** ****** ****** ****** ****** ****** ****** ****** ****** ******
  22  ****** ****** ****** ****** ****** ****** ****** ****** ****** ******
      ****** ****** ****** ****** ****** ****** ****** ****** ****** ******
      ****** ****** ****** ****** ****** ****** ****** ****** ****** ******
  23  ****** ****** ****** ****** ****** ****** ****** ****** ****** ******
      ****** ****** ****** ****** ****** ****** ****** ****** ****** ******
      ****** ****** ****** ****** ****** ****** ****** ****** ****** ******
  24  ****** ****** ****** ****** ****** ****** ****** ****** ****** ******
      ****** ****** ****** ****** ****** ****** ****** ****** ****** ******
      ****** ****** ****** ****** ****** ****** ****** ****** ****** ******
  25  ****** ****** ****** ****** ****** ****** ****** ****** ****** ******
      ****** ****** ****** ****** ****** ****** ****** ****** ****** ******
      ****** ****** ****** ****** ****** ****** ****** ****** ****** ******

 HEAD WILL BE SAVED ON UNIT   51 AT END OF TIME STEP    1, STRESS PERIOD    4
1
  VOLUMETRIC BUDGET FOR ENTIRE MODEL AT END OF TIME STEP    1, STRESS PERIOD   4
  ------------------------------------------------------------------------------

     CUMULATIVE VOLUMES      L**3       RATES FOR THIS TIME STEP      L**3/T
     ------------------                 ------------------------

           IN:                                      IN:
           ---                                      ---
             STORAGE =    30285018.9481               STORAGE =       19342.8869
       CONSTANT HEAD =     8208862.2896         CONSTANT HEAD =       30393.5997
               WELLS =           0.0000                 WELLS =           0.0000
            RECHARGE =     8804400.0000              RECHARGE =       27600.0000
      STREAM LEAKAGE =     2137923.2838        STREAM LEAKAGE =        6870.6278

            TOTAL IN =    49436204.5215              TOTAL IN =       84207.1144

          OUT:                                     OUT:
          ----                                     ----
             STORAGE =        1130.8100               STORAGE =          12.4265
       CONSTANT HEAD =           0.0000         CONSTANT HEAD =           0.0000
               WELLS =    12488945.1834                 WELLS =       34216.2882
            RECHARGE =           0.0000              RECHARGE =           0.0000
      STREAM LEAKAGE =    36946130.6463        STREAM LEAKAGE =       49978.4007

           TOTAL OUT =    49436206.6397             TOTAL OUT =       84207.1153

            IN - OUT =          -2.1182              IN - OUT =      -9.3358E-04

 PERCENT DISCREPANCY =          -0.00     PERCENT DISCREPANCY =          -0.00






         TIME SUMMARY AT END OF TIME STEP    1 IN STRESS PERIOD    4
                    SECONDS     MINUTES      HOURS       DAYS        YEARS
                    -----------------------------------------------------------
   TIME STEP LENGTH 7.86240E+06 1.31040E+05  2184.0      91.000     0.24914    
 STRESS PERIOD TIME 7.86240E+06 1.31040E+05  2184.0      91.000     0.24914    
         TOTAL TIME 3.15360E+07 5.25600E+05  8760.0      365.00     0.99932    
1
1
                            STRESS PERIOD NO.    5, LENGTH =   92.00000    
                            -----------------------------------------------

                              NUMBER OF TIME STEPS =     1

                               MULTIPLIER FOR DELT =     1.500

                            INITIAL TIME STEP SIZE =   92.00000    

 WELL NO.  LAYER   ROW   COL   STRESS RATE         
 --------------------------------------------------
      1      1      9     21      -9430.    
      2      1      5     25      -7885.    
      3      1     22     18      -7019.    
      4      1     19      6      -9882.    

      4 WELLS

                 RECHARGE =  5.000000E-04

 REUSING STREAM SEGMENT DATA FROM LAST STRESS PERIOD
 
 SOLVING FOR HEAD 


     7 CALLS TO PCG ROUTINE FOR TIME STEP   1 IN STRESS PERIOD    5
    26 TOTAL ITERATIONS

 OUTPUT CONTROL FOR STRESS PERIOD    5   TIME STEP    1
    SAVE BUDGET
    SAVE HEAD FOR ALL LAYERS
    PRINT HEAD FOR ALL LAYERS
 UBDSV2 SAVING "STREAMFLOW OUT  " ON UNIT  50 AT TIME STEP  1, STRESS PERIOD   5



 STREAM LISTING     PERIOD      5   STEP        1

 LAYER ROW COL. STREAM  RCH.  FLOW INTO     FLOW TO   FLOW OUT OF   OVRLND.     DIRECT     STREAM       STREAM     STREAM     STREAM   STREAMBED  STREAMBED
                SEG.NO.  NO.  STRM. RCH.    AQUIFER    STRM. RCH.    RUNOFF     PRECIP       ET          HEAD       DEPTH      WIDTH   CONDCTNC.   GRADIENT

   1   13    1     1     1    1.0000E+05 -1.7821E+03   1.0178E+05  0.000E+00  0.000E+00  0.000E+00  4.84068E+01  1.454E-01  2.000E+01  2.000E+04 -8.911E-02
   1   13    2     1     2    1.0178E+05 -2.8158E+03   1.0460E+05  0.000E+00  0.000E+00  0.000E+00  4.79315E+01  1.474E-01  2.000E+01  2.000E+04 -1.408E-01
   1   14    3     1     3    1.0460E+05 -3.8903E+02   1.0499E+05  0.000E+00  0.000E+00  0.000E+00  4.74556E+01  1.488E-01  2.000E+01  2.000E+04 -1.945E-02
   1   15    4     1     4    1.0499E+05 -2.6466E+02   1.0525E+05  0.000E+00  0.000E+00  0.000E+00  4.69786E+01  1.491E-01  2.000E+01  2.000E+04 -1.323E-02
   1   16    5     1     5    1.0525E+05  3.5716E+02   1.0489E+05  0.000E+00  0.000E+00  0.000E+00  4.65013E+01  1.490E-01  2.000E+01  2.000E+04  1.786E-02
   1   16    6     1     6    1.0489E+05  3.0084E+02   1.0459E+05  0.000E+00  0.000E+00  0.000E+00  4.60237E+01  1.487E-01  2.000E+01  2.000E+04  1.504E-02
   1   16    7     1     7    1.0459E+05  7.4815E+01   1.0452E+05  0.000E+00  0.000E+00  0.000E+00  4.55463E+01  1.486E-01  2.000E+01  2.000E+04  3.741E-03
   1   16    8     1     8    1.0452E+05 -1.8054E+02   1.0470E+05  0.000E+00  0.000E+00  0.000E+00  4.50691E+01  1.486E-01  2.000E+01  2.000E+04 -9.027E-03
   1   16    9     1     9    1.0470E+05 -3.6842E+02   1.0507E+05  0.000E+00  0.000E+00  0.000E+00  4.45920E+01  1.488E-01  2.000E+01  2.000E+04 -1.842E-02
   1   16   10     1    10    1.0507E+05 -4.7716E+02   1.0554E+05  0.000E+00  0.000E+00  0.000E+00  4.41151E+01  1.492E-01  2.000E+01  2.000E+04 -2.386E-02
   1   16   11     1    11    1.0554E+05 -5.3027E+02   1.0608E+05  0.000E+00  0.000E+00  0.000E+00  4.36383E+01  1.496E-01  2.000E+01  2.000E+04 -2.651E-02
   1   16   12     1    12    1.0608E+05 -1.0380E+03   1.0711E+05  0.000E+00  0.000E+00  0.000E+00  4.31617E+01  1.503E-01  2.000E+01  2.000E+04 -5.190E-02
   1   15   13     1    13    1.0711E+05 -1.2605E+03   1.0837E+05  0.000E+00  0.000E+00  0.000E+00  4.26854E+01  1.513E-01  2.000E+01  2.000E+04 -6.303E-02
   1   14   14     1    14    1.0837E+05 -1.6511E+03   1.1002E+05  0.000E+00  0.000E+00  0.000E+00  4.22093E+01  1.525E-01  2.000E+01  2.000E+04 -8.255E-02
   1   13   15     1    15    1.1002E+05 -2.0066E+03   1.1203E+05  0.000E+00  0.000E+00  0.000E+00  4.17336E+01  1.540E-01  2.000E+01  2.000E+04 -1.003E-01
   1   12   16     1    16    1.1203E+05 -2.5591E+03   1.1459E+05  0.000E+00  0.000E+00  0.000E+00  4.12582E+01  1.559E-01  2.000E+01  2.000E+04 -1.280E-01
   1   12   17     1    17    1.1459E+05 -1.4050E+03   1.1600E+05  0.000E+00  0.000E+00  0.000E+00  4.07825E+01  1.575E-01  2.000E+01  2.000E+04 -7.025E-02
   1   12   18     1    18    1.1600E+05 -1.1036E+03   1.1710E+05  0.000E+00  0.000E+00  0.000E+00  4.03063E+01  1.586E-01  2.000E+01  2.000E+04 -5.518E-02
   1   12   19     1    19    1.1710E+05 -8.9334E+02   1.1799E+05  0.000E+00  0.000E+00  0.000E+00  3.98298E+01  1.594E-01  2.000E+01  2.000E+04 -4.467E-02
   1   13   20     1    20    1.1799E+05 -6.7907E+02   1.1867E+05  0.000E+00  0.000E+00  0.000E+00  3.93532E+01  1.600E-01  2.000E+01  2.000E+04 -3.395E-02
   1   14   21     1    21    1.1867E+05 -8.3597E+02   1.1951E+05  0.000E+00  0.000E+00  0.000E+00  3.88765E+01  1.606E-01  2.000E+01  2.000E+04 -4.180E-02
   1   14   22     1    22    1.1951E+05  5.0849E+03   1.1442E+05  0.000E+00  0.000E+00  0.000E+00  3.83975E+01  1.589E-01  2.000E+01  2.000E+04  2.542E-01
   1    9   30     2     1    5.0000E+04 -8.1111E+00   5.0008E+04  0.000E+00  0.000E+00  0.000E+00  4.02409E+01  1.159E-01  2.000E+01  2.000E+04 -4.056E-04
   1    9   29     2     2    5.0008E+04 -2.4479E+02   5.0253E+04  0.000E+00  0.000E+00  0.000E+00  3.99910E+01  1.160E-01  2.000E+01  2.000E+04 -1.224E-02
   1    9   28     2     3    5.0253E+04 -3.4643E+02   5.0599E+04  0.000E+00  0.000E+00  0.000E+00  3.97415E+01  1.165E-01  2.000E+01  2.000E+04 -1.732E-02
   1    9   27     2     4    5.0599E+04 -7.1468E+02   5.1314E+04  0.000E+00  0.000E+00  0.000E+00  3.94922E+01  1.172E-01  2.000E+01  2.000E+04 -3.573E-02
   1   10   26     2     5    5.1314E+04 -2.7494E+02   5.1589E+04  0.000E+00  0.000E+00  0.000E+00  3.92429E+01  1.179E-01  2.000E+01  2.000E+04 -1.375E-02
   1   11   25     2     6    5.1589E+04 -1.8850E+02   5.1777E+04  0.000E+00  0.000E+00  0.000E+00  3.89932E+01  1.182E-01  2.000E+01  2.000E+04 -9.425E-03
   1   12   24     2     7    5.1777E+04 -2.8238E+02   5.2060E+04  0.000E+00  0.000E+00  0.000E+00  3.87435E+01  1.185E-01  2.000E+01  2.000E+04 -1.412E-02
   1   13   23     2     8    5.2060E+04 -4.9527E+01   5.2109E+04  0.000E+00  0.000E+00  0.000E+00  3.84937E+01  1.187E-01  2.000E+01  2.000E+04 -2.476E-03
   1   14   22     2     9    5.2109E+04  1.9822E+03   5.0127E+04  0.000E+00  0.000E+00  0.000E+00  3.82424E+01  1.174E-01  2.000E+01  2.000E+04  9.911E-02
   1   14   22     3     1    1.6455E+05 -8.4685E+03   1.7302E+05  0.000E+00  0.000E+00  0.000E+00  3.77199E+01  1.643E-01  2.000E+01  2.000E+04 -4.234E-01
   1   15   23     3     2    1.7302E+05 -4.3198E+02   1.7345E+05  0.000E+00  0.000E+00  0.000E+00  3.68336E+01  1.669E-01  2.000E+01  2.000E+04 -2.160E-02
   1   15   24     3     3    1.7345E+05 -2.3969E+02   1.7369E+05  0.000E+00  0.000E+00  0.000E+00  3.59449E+01  1.671E-01  2.000E+01  2.000E+04 -1.198E-02
   1   15   25     3     4    1.7369E+05 -2.4068E+02   1.7393E+05  0.000E+00  0.000E+00  0.000E+00  3.50561E+01  1.672E-01  2.000E+01  2.000E+04 -1.203E-02
   1   15   26     3     5    1.7393E+05 -2.9495E+02   1.7423E+05  0.000E+00  0.000E+00  0.000E+00  3.41674E+01  1.674E-01  2.000E+01  2.000E+04 -1.475E-02
   1   16   27     3     6    1.7423E+05 -3.2236E+02   1.7455E+05  0.000E+00  0.000E+00  0.000E+00  3.32787E+01  1.676E-01  2.000E+01  2.000E+04 -1.612E-02
   1   17   28     3     7    1.7455E+05 -1.4137E+03   1.7596E+05  0.000E+00  0.000E+00  0.000E+00  3.23903E+01  1.681E-01  2.000E+01  2.000E+04 -7.069E-02
   1   18   29     3     8    1.7596E+05 -2.7147E+03   1.7868E+05  0.000E+00  0.000E+00  0.000E+00  3.15026E+01  1.693E-01  2.000E+01  2.000E+04 -1.357E-01
   1   18   30     3     9    1.7868E+05 -3.0452E+03   1.8172E+05  0.000E+00  0.000E+00  0.000E+00  3.06153E+01  1.709E-01  2.000E+01  2.000E+04 -1.523E-01



1
              HEAD IN LAYER   1 AT END OF TIME STEP   1 IN STRESS PERIOD    5
  ---------------------------------------------------------------------------

          1      2      3      4      5      6      7      8      9     10
         11     12     13     14     15     16     17     18     19     20
         21     22     23     24     25     26     27     28     29     30
 .........................................................................
   1  ****** ****** ****** ****** ****** ****** ****** ****** ****** ******
      ****** ****** ****** ****** ****** ****** ****** ****** ****** ******
      ****** ****** ****** ****** ****** ****** ****** ****** ****** ******
   2  ****** ****** ****** ****** ****** ****** ****** ****** ****** ******
      ****** ****** ****** ****** ****** ****** ****** ****** ****** ******
      ****** ****** ****** ****** ****** ****** ****** ****** ****** ******
   3  ****** ****** ****** ****** ****** ****** ****** ****** ****** ******
      ****** ****** ****** ****** ****** ****** ****** ****** ****** ******
      ****** ****** ****** ****** ****** ****** ****** ****** ****** ******
   4  ****** ****** ****** ****** ****** ****** ****** ****** ****** ******
      ****** ****** ****** ****** ****** ****** ****** ****** ****** ******
      ****** ****** ****** ****** ****** ****** ****** ****** ****** ******
   5  ****** ****** ****** ****** ****** ****** ****** ****** ****** ******
      ****** ****** ****** ****** ****** ****** ****** ****** ****** ******
      ****** ****** ****** ****** ****** ****** ****** ****** ****** ******
   6  ****** ****** ****** ****** ****** ****** ****** ****** ****** ******
      ****** ****** ****** ****** ****** ****** ****** ****** ****** ******
      ****** ****** ****** ****** ****** ****** ****** ****** ****** ******
   7  ****** ****** ****** ****** ****** ****** ****** ****** ****** ******
      ****** ****** ****** ****** ****** ****** ****** ****** ****** ******
      ****** ****** ****** ****** ****** ****** ****** ****** ****** ******
   8  ****** ****** ****** ****** ****** ****** ****** ****** ****** ******
      ****** ****** ****** ****** ****** ****** ****** ****** ****** ******
      ****** ****** ****** ****** ****** ****** ****** ****** ****** ******
   9  ****** ****** ****** ****** ****** ****** ****** ****** ****** ******
      ****** ****** ****** ****** ****** ****** ****** ****** ****** ******
      ****** ****** ****** ****** ****** ****** ****** ****** ****** ******
  10  ****** ****** ****** ****** ****** ****** ****** ****** ****** ******
      ****** ****** ****** ****** ****** ****** ****** ****** ****** ******
      ****** ****** ****** ****** ****** ****** ****** ****** ****** ******
  11  ****** ****** ****** ****** ****** ****** ****** ****** ****** ******
      ****** ****** ****** ****** ****** ****** ****** ****** ****** ******
      ****** ****** ****** ****** ****** ****** ****** ****** ****** ******
  12  ****** ****** ****** ****** ****** ****** ****** ****** ****** ******
      ****** ****** ****** ****** ****** ****** ****** ****** ****** ******
      ****** ****** ****** ****** ****** ****** ****** ****** ****** ******
  13  ****** ****** ****** ****** ****** ****** ****** ****** ****** ******
      ****** ****** ****** ****** ****** ****** ****** ****** ****** ******
      ****** ****** ****** ****** ****** ****** ****** ****** ****** ******
  14  ****** ****** ****** ****** ****** ****** ****** ****** ****** ******
      ****** ****** ****** ****** ****** ****** ****** ****** ****** ******
      ****** ****** ****** ****** ****** ****** ****** ****** ****** ******
  15  ****** ****** ****** ****** ****** ****** ****** ****** ****** ******
      ****** ****** ****** ****** ****** ****** ****** ****** ****** ******
      ****** ****** ****** ****** ****** ****** ****** ****** ****** ******
  16  ****** ****** ****** ****** ****** ****** ****** ****** ****** ******
      ****** ****** ****** ****** ****** ****** ****** ****** ****** ******
      ****** ****** ****** ****** ****** ****** ****** ****** ****** ******
  17  ****** ****** ****** ****** ****** ****** ****** ****** ****** ******
      ****** ****** ****** ****** ****** ****** ****** ****** ****** ******
      ****** ****** ****** ****** ****** ****** ****** ****** ****** ******
  18  ****** ****** ****** ****** ****** ****** ****** ****** ****** ******
      ****** ****** ****** ****** ****** ****** ****** ****** ****** ******
      ****** ****** ****** ****** ****** ****** ****** ****** ****** ******
  19  ****** ****** ****** ****** ****** ****** ****** ****** ****** ******
      ****** ****** ****** ****** ****** ****** ****** ****** ****** ******
      ****** ****** ****** ****** ****** ****** ****** ****** ****** ******
  20  ****** ****** ****** ****** ****** ****** ****** ****** ****** ******
      ****** ****** ****** ****** ****** ****** ****** ****** ****** ******
      ****** ****** ****** ****** ****** ****** ****** ****** ****** ******
  21  ****** ****** ****** ****** ****** ****** ****** ****** ****** ******
      ****** ****** ****** ****** ****** ****** ****** ****** ****** ******
      ****** ****** ****** ****** ****** ****** ****** ****** ****** ******
  22  ****** ****** ****** ****** ****** ****** ****** ****** ****** ******
      ****** ****** ****** ****** ****** ****** ****** ****** ****** ******
      ****** ****** ****** ****** ****** ****** ****** ****** ****** ******
  23  ****** ****** ****** ****** ****** ****** ****** ****** ****** ******
      ****** ****** ****** ****** ****** ****** ****** ****** ****** ******
      ****** ****** ****** ****** ****** ****** ****** ****** ****** ******
  24  ****** ****** ****** ****** ****** ****** ****** ****** ****** ******
      ****** ****** ****** ****** ****** ****** ****** ****** ****** ******
      ****** ****** ****** ****** ****** ****** ****** ****** ****** ******
  25  ****** ****** ****** ****** ****** ****** ****** ****** ****** ******
      ****** ****** ****** ****** ****** ****** ****** ****** ****** ******
      ****** ****** ****** ****** ****** ****** ****** ****** ****** ******

 HEAD WILL BE SAVED ON UNIT   51 AT END OF TIME STEP    1, STRESS PERIOD    5
1
  VOLUMETRIC BUDGET FOR ENTIRE MODEL AT END OF TIME STEP    1, STRESS PERIOD   5
  ------------------------------------------------------------------------------

     CUMULATIVE VOLUMES      L**3       RATES FOR THIS TIME STEP      L**3/T
     ------------------                 ------------------------

           IN:                                      IN:
           ---                                      ---
             STORAGE =    32006527.2953               STORAGE =       18712.0473
       CONSTANT HEAD =    11284031.5098         CONSTANT HEAD =       33425.7524
               WELLS =           0.0000                 WELLS =           0.0000
            RECHARGE =    10074000.0000              RECHARGE =       13800.0000
      STREAM LEAKAGE =     2855513.1787        STREAM LEAKAGE =        7799.8902

            TOTAL IN =    56220071.9838              TOTAL IN =       73737.6898

          OUT:                                     OUT:
          ----                                     ----
             STORAGE =        1130.8100               STORAGE =           0.0000
       CONSTANT HEAD =           0.0000         CONSTANT HEAD =           0.0000
               WELLS =    15636843.6954                 WELLS =       34216.2882
            RECHARGE =           0.0000              RECHARGE =           0.0000
      STREAM LEAKAGE =    40582099.9046        STREAM LEAKAGE =       39521.4050

           TOTAL OUT =    56220074.4100             TOTAL OUT =       73737.6932

            IN - OUT =          -2.4263              IN - OUT =      -3.3489E-03

 PERCENT DISCREPANCY =          -0.00     PERCENT DISCREPANCY =          -0.00






         TIME SUMMARY AT END OF TIME STEP    1 IN STRESS PERIOD    5
                    SECONDS     MINUTES      HOURS       DAYS        YEARS
                    -----------------------------------------------------------
   TIME STEP LENGTH 7.94880E+06 1.32480E+05  2208.0      92.000     0.25188    
 STRESS PERIOD TIME 7.94880E+06 1.32480E+05  2208.0      92.000     0.25188    
         TOTAL TIME 3.94848E+07 6.58080E+05  10968.      457.00      1.2512    
1
1
                            STRESS PERIOD NO.    6, LENGTH =   91.00000    
                            -----------------------------------------------

                              NUMBER OF TIME STEPS =     1

                               MULTIPLIER FOR DELT =     1.500

                            INITIAL TIME STEP SIZE =   91.00000    

 WELL NO.  LAYER   ROW   COL   STRESS RATE         
 --------------------------------------------------
      1      1      9     21      -9430.    
      2      1      5     25      -7885.    
      3      1     22     18      -7019.    
      4      1     19      6      -9882.    

      4 WELLS

                 RECHARGE =  2.000000E-03

 REUSING STREAM SEGMENT DATA FROM LAST STRESS PERIOD
 
 SOLVING FOR HEAD 


     7 CALLS TO PCG ROUTINE FOR TIME STEP   1 IN STRESS PERIOD    6
    26 TOTAL ITERATIONS

 OUTPUT CONTROL FOR STRESS PERIOD    6   TIME STEP    1
    SAVE BUDGET
    SAVE HEAD FOR ALL LAYERS
    PRINT HEAD FOR ALL LAYERS
 UBDSV2 SAVING "STREAMFLOW OUT  " ON UNIT  50 AT TIME STEP  1, STRESS PERIOD   6



 STREAM LISTING     PERIOD      6   STEP        1

 LAYER ROW COL. STREAM  RCH.  FLOW INTO     FLOW TO   FLOW OUT OF   OVRLND.     DIRECT     STREAM       STREAM     STREAM     STREAM   STREAMBED  STREAMBED
                SEG.NO.  NO.  STRM. RCH.    AQUIFER    STRM. RCH.    RUNOFF     PRECIP       ET          HEAD       DEPTH      WIDTH   CONDCTNC.   GRADIENT

   1   13    1     1     1    1.0000E+05 -2.0937E+03   1.0209E+05  0.000E+00  0.000E+00  0.000E+00  4.84069E+01  1.456E-01  2.000E+01  2.000E+04 -1.047E-01
   1   13    2     1     2    1.0209E+05 -3.1581E+03   1.0525E+05  0.000E+00  0.000E+00  0.000E+00  4.79319E+01  1.478E-01  2.000E+01  2.000E+04 -1.579E-01
   1   14    3     1     3    1.0525E+05 -5.4244E+02   1.0579E+05  0.000E+00  0.000E+00  0.000E+00  4.74562E+01  1.494E-01  2.000E+01  2.000E+04 -2.712E-02
   1   15    4     1     4    1.0579E+05 -4.2855E+02   1.0622E+05  0.000E+00  0.000E+00  0.000E+00  4.69794E+01  1.498E-01  2.000E+01  2.000E+04 -2.143E-02
   1   16    5     1     5    1.0622E+05 -1.1884E+02   1.0634E+05  0.000E+00  0.000E+00  0.000E+00  4.65023E+01  1.500E-01  2.000E+01  2.000E+04 -5.942E-03
   1   16    6     1     6    1.0634E+05  1.9018E+01   1.0632E+05  0.000E+00  0.000E+00  0.000E+00  4.60251E+01  1.501E-01  2.000E+01  2.000E+04  9.509E-04
   1   16    7     1     7    1.0632E+05 -1.9295E+02   1.0652E+05  0.000E+00  0.000E+00  0.000E+00  4.55479E+01  1.502E-01  2.000E+01  2.000E+04 -9.648E-03
   1   16    8     1     8    1.0652E+05 -4.4428E+02   1.0696E+05  0.000E+00  0.000E+00  0.000E+00  4.50709E+01  1.504E-01  2.000E+01  2.000E+04 -2.221E-02
   1   16    9     1     9    1.0696E+05 -6.3193E+02   1.0759E+05  0.000E+00  0.000E+00  0.000E+00  4.45941E+01  1.509E-01  2.000E+01  2.000E+04 -3.160E-02
   1   16   10     1    10    1.0759E+05 -7.4223E+02   1.0833E+05  0.000E+00  0.000E+00  0.000E+00  4.41174E+01  1.515E-01  2.000E+01  2.000E+04 -3.711E-02
   1   16   11     1    11    1.0833E+05 -7.9815E+02   1.0913E+05  0.000E+00  0.000E+00  0.000E+00  4.36407E+01  1.521E-01  2.000E+01  2.000E+04 -3.991E-02
   1   16   12     1    12    1.0913E+05 -1.4703E+03   1.1060E+05  0.000E+00  0.000E+00  0.000E+00  4.31644E+01  1.531E-01  2.000E+01  2.000E+04 -7.351E-02
   1   15   13     1    13    1.1060E+05 -1.7072E+03   1.1231E+05  0.000E+00  0.000E+00  0.000E+00  4.26885E+01  1.544E-01  2.000E+01  2.000E+04 -8.536E-02
   1   14   14     1    14    1.1231E+05 -2.0946E+03   1.1440E+05  0.000E+00  0.000E+00  0.000E+00  4.22128E+01  1.560E-01  2.000E+01  2.000E+04 -1.047E-01
   1   13   15     1    15    1.1440E+05 -2.4319E+03   1.1684E+05  0.000E+00  0.000E+00  0.000E+00  4.17374E+01  1.578E-01  2.000E+01  2.000E+04 -1.216E-01
   1   12   16     1    16    1.1684E+05 -2.9388E+03   1.1977E+05  0.000E+00  0.000E+00  0.000E+00  4.12623E+01  1.600E-01  2.000E+01  2.000E+04 -1.469E-01
   1   12   17     1    17    1.1977E+05 -1.7135E+03   1.2149E+05  0.000E+00  0.000E+00  0.000E+00  4.07869E+01  1.619E-01  2.000E+01  2.000E+04 -8.568E-02
   1   12   18     1    18    1.2149E+05 -1.4155E+03   1.2290E+05  0.000E+00  0.000E+00  0.000E+00  4.03109E+01  1.631E-01  2.000E+01  2.000E+04 -7.077E-02
   1   12   19     1    19    1.2290E+05 -1.2806E+03   1.2418E+05  0.000E+00  0.000E+00  0.000E+00  3.98347E+01  1.642E-01  2.000E+01  2.000E+04 -6.403E-02
   1   13   20     1    20    1.2418E+05 -1.0931E+03   1.2528E+05  0.000E+00  0.000E+00  0.000E+00  3.93583E+01  1.652E-01  2.000E+01  2.000E+04 -5.465E-02
   1   14   21     1    21    1.2528E+05 -1.2370E+03   1.2651E+05  0.000E+00  0.000E+00  0.000E+00  3.88820E+01  1.661E-01  2.000E+01  2.000E+04 -6.185E-02
   1   14   22     1    22    1.2651E+05  4.9797E+03   1.2153E+05  0.000E+00  0.000E+00  0.000E+00  3.84032E+01  1.646E-01  2.000E+01  2.000E+04  2.490E-01
   1    9   30     2     1    5.0000E+04 -3.6641E+02   5.0366E+04  0.000E+00  0.000E+00  0.000E+00  4.02411E+01  1.161E-01  2.000E+01  2.000E+04 -1.832E-02
   1    9   29     2     2    5.0366E+04 -5.9858E+02   5.0965E+04  0.000E+00  0.000E+00  0.000E+00  3.99918E+01  1.168E-01  2.000E+01  2.000E+04 -2.993E-02
   1    9   28     2     3    5.0965E+04 -6.9299E+02   5.1658E+04  0.000E+00  0.000E+00  0.000E+00  3.97427E+01  1.177E-01  2.000E+01  2.000E+04 -3.465E-02
   1    9   27     2     4    5.1658E+04 -1.1501E+03   5.2808E+04  0.000E+00  0.000E+00  0.000E+00  3.94939E+01  1.189E-01  2.000E+01  2.000E+04 -5.751E-02
   1   10   26     2     5    5.2808E+04 -7.3800E+02   5.3546E+04  0.000E+00  0.000E+00  0.000E+00  3.92452E+01  1.202E-01  2.000E+01  2.000E+04 -3.690E-02
   1   11   25     2     6    5.3546E+04 -6.3839E+02   5.4184E+04  0.000E+00  0.000E+00  0.000E+00  3.89962E+01  1.212E-01  2.000E+01  2.000E+04 -3.192E-02
   1   12   24     2     7    5.4184E+04 -6.8815E+02   5.4873E+04  0.000E+00  0.000E+00  0.000E+00  3.87471E+01  1.221E-01  2.000E+01  2.000E+04 -3.441E-02
   1   13   23     2     8    5.4873E+04 -1.8677E+02   5.5059E+04  0.000E+00  0.000E+00  0.000E+00  3.84976E+01  1.226E-01  2.000E+01  2.000E+04 -9.339E-03
   1   14   22     2     9    5.5059E+04  1.8455E+03   5.3214E+04  0.000E+00  0.000E+00  0.000E+00  3.82465E+01  1.215E-01  2.000E+01  2.000E+04  9.227E-02
   1   14   22     3     1    1.7475E+05 -8.5691E+03   1.8332E+05  0.000E+00  0.000E+00  0.000E+00  3.77258E+01  1.702E-01  2.000E+01  2.000E+04 -4.285E-01
   1   15   23     3     2    1.8332E+05 -5.6694E+02   1.8388E+05  0.000E+00  0.000E+00  0.000E+00  3.68395E+01  1.728E-01  2.000E+01  2.000E+04 -2.835E-02
   1   15   24     3     3    1.8388E+05 -3.6055E+02   1.8425E+05  0.000E+00  0.000E+00  0.000E+00  3.59509E+01  1.731E-01  2.000E+01  2.000E+04 -1.803E-02
   1   15   25     3     4    1.8425E+05 -3.6623E+02   1.8461E+05  0.000E+00  0.000E+00  0.000E+00  3.50622E+01  1.733E-01  2.000E+01  2.000E+04 -1.831E-02
   1   15   26     3     5    1.8461E+05 -4.4581E+02   1.8506E+05  0.000E+00  0.000E+00  0.000E+00  3.41735E+01  1.735E-01  2.000E+01  2.000E+04 -2.229E-02
   1   16   27     3     6    1.8506E+05 -4.9011E+02   1.8555E+05  0.000E+00  0.000E+00  0.000E+00  3.32849E+01  1.738E-01  2.000E+01  2.000E+04 -2.451E-02
   1   17   28     3     7    1.8555E+05 -1.8730E+03   1.8742E+05  0.000E+00  0.000E+00  0.000E+00  3.23967E+01  1.745E-01  2.000E+01  2.000E+04 -9.365E-02
   1   18   29     3     8    1.8742E+05 -3.1467E+03   1.9057E+05  0.000E+00  0.000E+00  0.000E+00  3.15092E+01  1.759E-01  2.000E+01  2.000E+04 -1.573E-01
   1   18   30     3     9    1.9057E+05 -3.3969E+03   1.9396E+05  0.000E+00  0.000E+00  0.000E+00  3.06221E+01  1.777E-01  2.000E+01  2.000E+04 -1.698E-01



1
              HEAD IN LAYER   1 AT END OF TIME STEP   1 IN STRESS PERIOD    6
  ---------------------------------------------------------------------------

          1      2      3      4      5      6      7      8      9     10
         11     12     13     14     15     16     17     18     19     20
         21     22     23     24     25     26     27     28     29     30
 .........................................................................
   1  ****** ****** ****** ****** ****** ****** ****** ****** ****** ******
      ****** ****** ****** ****** ****** ****** ****** ****** ****** ******
      ****** ****** ****** ****** ****** ****** ****** ****** ****** ******
   2  ****** ****** ****** ****** ****** ****** ****** ****** ****** ******
      ****** ****** ****** ****** ****** ****** ****** ****** ****** ******
      ****** ****** ****** ****** ****** ****** ****** ****** ****** ******
   3  ****** ****** ****** ****** ****** ****** ****** ****** ****** ******
      ****** ****** ****** ****** ****** ****** ****** ****** ****** ******
      ****** ****** ****** ****** ****** ****** ****** ****** ****** ******
   4  ****** ****** ****** ****** ****** ****** ****** ****** ****** ******
      ****** ****** ****** ****** ****** ****** ****** ****** ****** ******
      ****** ****** ****** ****** ****** ****** ****** ****** ****** ******
   5  ****** ****** ****** ****** ****** ****** ****** ****** ****** ******
      ****** ****** ****** ****** ****** ****** ****** ****** ****** ******
      ****** ****** ****** ****** ****** ****** ****** ****** ****** ******
   6  ****** ****** ****** ****** ****** ****** ****** ****** ****** ******
      ****** ****** ****** ****** ****** ****** ****** ****** ****** ******
      ****** ****** ****** ****** ****** ****** ****** ****** ****** ******
   7  ****** ****** ****** ****** ****** ****** ****** ****** ****** ******
      ****** ****** ****** ****** ****** ****** ****** ****** ****** ******
      ****** ****** ****** ****** ****** ****** ****** ****** ****** ******
   8  ****** ****** ****** ****** ****** ****** ****** ****** ****** ******
      ****** ****** ****** ****** ****** ****** ****** ****** ****** ******
      ****** ****** ****** ****** ****** ****** ****** ****** ****** ******
   9  ****** ****** ****** ****** ****** ****** ****** ****** ****** ******
      ****** ****** ****** ****** ****** ****** ****** ****** ****** ******
      ****** ****** ****** ****** ****** ****** ****** ****** ****** ******
  10  ****** ****** ****** ****** ****** ****** ****** ****** ****** ******
      ****** ****** ****** ****** ****** ****** ****** ****** ****** ******
      ****** ****** ****** ****** ****** ****** ****** ****** ****** ******
  11  ****** ****** ****** ****** ****** ****** ****** ****** ****** ******
      ****** ****** ****** ****** ****** ****** ****** ****** ****** ******
      ****** ****** ****** ****** ****** ****** ****** ****** ****** ******
  12  ****** ****** ****** ****** ****** ****** ****** ****** ****** ******
      ****** ****** ****** ****** ****** ****** ****** ****** ****** ******
      ****** ****** ****** ****** ****** ****** ****** ****** ****** ******
  13  ****** ****** ****** ****** ****** ****** ****** ****** ****** ******
      ****** ****** ****** ****** ****** ****** ****** ****** ****** ******
      ****** ****** ****** ****** ****** ****** ****** ****** ****** ******
  14  ****** ****** ****** ****** ****** ****** ****** ****** ****** ******
      ****** ****** ****** ****** ****** ****** ****** ****** ****** ******
      ****** ****** ****** ****** ****** ****** ****** ****** ****** ******
  15  ****** ****** ****** ****** ****** ****** ****** ****** ****** ******
      ****** ****** ****** ****** ****** ****** ****** ****** ****** ******
      ****** ****** ****** ****** ****** ****** ****** ****** ****** ******
  16  ****** ****** ****** ****** ****** ****** ****** ****** ****** ******
      ****** ****** ****** ****** ****** ****** ****** ****** ****** ******
      ****** ****** ****** ****** ****** ****** ****** ****** ****** ******
  17  ****** ****** ****** ****** ****** ****** ****** ****** ****** ******
      ****** ****** ****** ****** ****** ****** ****** ****** ****** ******
      ****** ****** ****** ****** ****** ****** ****** ****** ****** ******
  18  ****** ****** ****** ****** ****** ****** ****** ****** ****** ******
      ****** ****** ****** ****** ****** ****** ****** ****** ****** ******
      ****** ****** ****** ****** ****** ****** ****** ****** ****** ******
  19  ****** ****** ****** ****** ****** ****** ****** ****** ****** ******
      ****** ****** ****** ****** ****** ****** ****** ****** ****** ******
      ****** ****** ****** ****** ****** ****** ****** ****** ****** ******
  20  ****** ****** ****** ****** ****** ****** ****** ****** ****** ******
      ****** ****** ****** ****** ****** ****** ****** ****** ****** ******
      ****** ****** ****** ****** ****** ****** ****** ****** ****** ******
  21  ****** ****** ****** ****** ****** ****** ****** ****** ****** ******
      ****** ****** ****** ****** ****** ****** ****** ****** ****** ******
      ****** ****** ****** ****** ****** ****** ****** ****** ****** ******
  22  ****** ****** ****** ****** ****** ****** ****** ****** ****** ******
      ****** ****** ****** ****** ****** ****** ****** ****** ****** ******
      ****** ****** ****** ****** ****** ****** ****** ****** ****** ******
  23  ****** ****** ****** ****** ****** ****** ****** ****** ****** ******
      ****** ****** ****** ****** ****** ****** ****** ****** ****** ******
      ****** ****** ****** ****** ****** ****** ****** ****** ****** ******
  24  ****** ****** ****** ****** ****** ****** ****** ****** ****** ******
      ****** ****** ****** ****** ****** ****** ****** ****** ****** ******
      ****** ****** ****** ****** ****** ****** ****** ****** ****** ******
  25  ****** ****** ****** ****** ****** ****** ****** ****** ****** ******
      ****** ****** ****** ****** ****** ****** ****** ****** ****** ******
      ****** ****** ****** ****** ****** ****** ****** ****** ****** ******

 HEAD WILL BE SAVED ON UNIT   51 AT END OF TIME STEP    1, STRESS PERIOD    6
1
  VOLUMETRIC BUDGET FOR ENTIRE MODEL AT END OF TIME STEP    1, STRESS PERIOD   6
  ------------------------------------------------------------------------------

     CUMULATIVE VOLUMES      L**3       RATES FOR THIS TIME STEP      L**3/T
     ------------------                 ------------------------

           IN:                                      IN:
           ---                                      ---
             STORAGE =    32006527.2953               STORAGE =           0.0000
       CONSTANT HEAD =    14157153.7507         CONSTANT HEAD =       31572.7719
               WELLS =           0.0000                 WELLS =           0.0000
            RECHARGE =    15097200.0000              RECHARGE =       55200.0000
      STREAM LEAKAGE =     3478332.5156        STREAM LEAKAGE =        6844.1685

            TOTAL IN =    64739213.5615              TOTAL IN =       93616.9404

          OUT:                                     OUT:
          ----                                     ----
             STORAGE =      783043.9779               STORAGE =        8592.4524
       CONSTANT HEAD =           0.0000         CONSTANT HEAD =           0.0000
               WELLS =    18750525.9192                 WELLS =       34216.2882
            RECHARGE =           0.0000              RECHARGE =           0.0000
      STREAM LEAKAGE =    45205645.8240        STREAM LEAKAGE =       50808.1969

           TOTAL OUT =    64739215.7212             TOTAL OUT =       93616.9375

            IN - OUT =          -2.1597              IN - OUT =       2.9299E-03

 PERCENT DISCREPANCY =          -0.00     PERCENT DISCREPANCY =           0.00






         TIME SUMMARY AT END OF TIME STEP    1 IN STRESS PERIOD    6
                    SECONDS     MINUTES      HOURS       DAYS        YEARS
                    -----------------------------------------------------------
   TIME STEP LENGTH 7.86240E+06 1.31040E+05  2184.0      91.000     0.24914    
 STRESS PERIOD TIME 7.86240E+06 1.31040E+05  2184.0      91.000     0.24914    
         TOTAL TIME 4.73472E+07 7.89120E+05  13152.      548.00      1.5003    
1
1
                            STRESS PERIOD NO.    7, LENGTH =   91.00000    
                            -----------------------------------------------

                              NUMBER OF TIME STEPS =     1

                               MULTIPLIER FOR DELT =     1.500

                            INITIAL TIME STEP SIZE =   91.00000    

 WELL NO.  LAYER   ROW   COL   STRESS RATE         
 --------------------------------------------------
      1      1      9     21      -9430.    
      2      1      5     25      -7885.    
      3      1     22     18      -7019.    
      4      1     19      6      -9882.    

      4 WELLS

                 RECHARGE =   0.00000    

 REUSING STREAM SEGMENT DATA FROM LAST STRESS PERIOD
 
 SOLVING FOR HEAD 


     7 CALLS TO PCG ROUTINE FOR TIME STEP   1 IN STRESS PERIOD    7
    26 TOTAL ITERATIONS

 OUTPUT CONTROL FOR STRESS PERIOD    7   TIME STEP    1
    SAVE BUDGET
    SAVE HEAD FOR ALL LAYERS
    PRINT HEAD FOR ALL LAYERS
 UBDSV2 SAVING "STREAMFLOW OUT  " ON UNIT  50 AT TIME STEP  1, STRESS PERIOD   7



 STREAM LISTING     PERIOD      7   STEP        1

 LAYER ROW COL. STREAM  RCH.  FLOW INTO     FLOW TO   FLOW OUT OF   OVRLND.     DIRECT     STREAM       STREAM     STREAM     STREAM   STREAMBED  STREAMBED
                SEG.NO.  NO.  STRM. RCH.    AQUIFER    STRM. RCH.    RUNOFF     PRECIP       ET          HEAD       DEPTH      WIDTH   CONDCTNC.   GRADIENT

   1   13    1     1     1    1.0000E+05 -1.4270E+03   1.0143E+05  0.000E+00  0.000E+00  0.000E+00  4.84066E+01  1.453E-01  2.000E+01  2.000E+04 -7.135E-02
   1   13    2     1     2    1.0143E+05 -2.4128E+03   1.0384E+05  0.000E+00  0.000E+00  0.000E+00  4.79310E+01  1.469E-01  2.000E+01  2.000E+04 -1.206E-01
   1   14    3     1     3    1.0384E+05 -2.8996E+02   1.0413E+05  0.000E+00  0.000E+00  0.000E+00  4.74549E+01  1.481E-01  2.000E+01  2.000E+04 -1.450E-02
   1   15    4     1     4    1.0413E+05 -1.6478E+02   1.0429E+05  0.000E+00  0.000E+00  0.000E+00  4.69778E+01  1.483E-01  2.000E+01  2.000E+04 -8.239E-03
   1   16    5     1     5    1.0429E+05  6.4441E+02   1.0365E+05  0.000E+00  0.000E+00  0.000E+00  4.65003E+01  1.481E-01  2.000E+01  2.000E+04  3.222E-02
   1   16    6     1     6    1.0365E+05  4.7794E+02   1.0317E+05  0.000E+00  0.000E+00  0.000E+00  4.60226E+01  1.476E-01  2.000E+01  2.000E+04  2.390E-02
   1   16    7     1     7    1.0317E+05  2.4699E+02   1.0293E+05  0.000E+00  0.000E+00  0.000E+00  4.55450E+01  1.473E-01  2.000E+01  2.000E+04  1.235E-02
   1   16    8     1     8    1.0293E+05 -1.0504E+01   1.0294E+05  0.000E+00  0.000E+00  0.000E+00  4.50676E+01  1.472E-01  2.000E+01  2.000E+04 -5.252E-04
   1   16    9     1     9    1.0294E+05 -2.0135E+02   1.0314E+05  0.000E+00  0.000E+00  0.000E+00  4.45905E+01  1.473E-01  2.000E+01  2.000E+04 -1.007E-02
   1   16   10     1    10    1.0314E+05 -3.1402E+02   1.0345E+05  0.000E+00  0.000E+00  0.000E+00  4.41134E+01  1.475E-01  2.000E+01  2.000E+04 -1.570E-02
   1   16   11     1    11    1.0345E+05 -3.6839E+02   1.0382E+05  0.000E+00  0.000E+00  0.000E+00  4.36364E+01  1.478E-01  2.000E+01  2.000E+04 -1.842E-02
   1   16   12     1    12    1.0382E+05 -7.4797E+02   1.0457E+05  0.000E+00  0.000E+00  0.000E+00  4.31596E+01  1.483E-01  2.000E+01  2.000E+04 -3.740E-02
   1   15   13     1    13    1.0457E+05 -9.3551E+02   1.0550E+05  0.000E+00  0.000E+00  0.000E+00  4.26831E+01  1.490E-01  2.000E+01  2.000E+04 -4.678E-02
   1   14   14     1    14    1.0550E+05 -1.2961E+03   1.0680E+05  0.000E+00  0.000E+00  0.000E+00  4.22067E+01  1.499E-01  2.000E+01  2.000E+04 -6.481E-02
   1   13   15     1    15    1.0680E+05 -1.6322E+03   1.0843E+05  0.000E+00  0.000E+00  0.000E+00  4.17307E+01  1.512E-01  2.000E+01  2.000E+04 -8.161E-02
   1   12   16     1    16    1.0843E+05 -2.1461E+03   1.1058E+05  0.000E+00  0.000E+00  0.000E+00  4.12550E+01  1.528E-01  2.000E+01  2.000E+04 -1.073E-01
   1   12   17     1    17    1.1058E+05 -1.1359E+03   1.1171E+05  0.000E+00  0.000E+00  0.000E+00  4.07791E+01  1.541E-01  2.000E+01  2.000E+04 -5.680E-02
   1   12   18     1    18    1.1171E+05 -8.5148E+02   1.1256E+05  0.000E+00  0.000E+00  0.000E+00  4.03027E+01  1.549E-01  2.000E+01  2.000E+04 -4.257E-02
   1   12   19     1    19    1.1256E+05 -5.9145E+02   1.1316E+05  0.000E+00  0.000E+00  0.000E+00  3.98260E+01  1.555E-01  2.000E+01  2.000E+04 -2.957E-02
   1   13   20     1    20    1.1316E+05 -4.2050E+02   1.1358E+05  0.000E+00  0.000E+00  0.000E+00  3.93491E+01  1.560E-01  2.000E+01  2.000E+04 -2.102E-02
   1   14   21     1    21    1.1358E+05 -5.7127E+02   1.1415E+05  0.000E+00  0.000E+00  0.000E+00  3.88723E+01  1.564E-01  2.000E+01  2.000E+04 -2.856E-02
   1   14   22     1    22    1.1415E+05  5.1383E+03   1.0901E+05  0.000E+00  0.000E+00  0.000E+00  3.83931E+01  1.545E-01  2.000E+01  2.000E+04  2.569E-01
   1    9   30     2     1    5.0000E+04  1.4940E+02   4.9851E+04  0.000E+00  0.000E+00  0.000E+00  4.02408E+01  1.158E-01  2.000E+01  2.000E+04  7.470E-03
   1    9   29     2     2    4.9851E+04 -8.4488E+01   4.9935E+04  0.000E+00  0.000E+00  0.000E+00  3.99907E+01  1.157E-01  2.000E+01  2.000E+04 -4.224E-03
   1    9   28     2     3    4.9935E+04 -1.7738E+02   5.0112E+04  0.000E+00  0.000E+00  0.000E+00  3.97409E+01  1.159E-01  2.000E+01  2.000E+04 -8.869E-03
   1    9   27     2     4    5.0112E+04 -4.4877E+02   5.0561E+04  0.000E+00  0.000E+00  0.000E+00  3.94913E+01  1.163E-01  2.000E+01  2.000E+04 -2.244E-02
   1   10   26     2     5    5.0561E+04 -3.6244E+01   5.0597E+04  0.000E+00  0.000E+00  0.000E+00  3.92417E+01  1.167E-01  2.000E+01  2.000E+04 -1.812E-03
   1   11   25     2     6    5.0597E+04  3.4059E+01   5.0563E+04  0.000E+00  0.000E+00  0.000E+00  3.89917E+01  1.167E-01  2.000E+01  2.000E+04  1.703E-03
   1   12   24     2     7    5.0563E+04 -7.5244E+01   5.0639E+04  0.000E+00  0.000E+00  0.000E+00  3.87417E+01  1.167E-01  2.000E+01  2.000E+04 -3.762E-03
   1   13   23     2     8    5.0639E+04  5.3012E+00   5.0633E+04  0.000E+00  0.000E+00  0.000E+00  3.84917E+01  1.167E-01  2.000E+01  2.000E+04  2.651E-04
   1   14   22     2     9    5.0633E+04  2.0819E+03   4.8551E+04  0.000E+00  0.000E+00  0.000E+00  3.82403E+01  1.153E-01  2.000E+01  2.000E+04  1.041E-01
   1   14   22     3     1    1.5756E+05 -8.4092E+03   1.6597E+05  0.000E+00  0.000E+00  0.000E+00  3.77157E+01  1.602E-01  2.000E+01  2.000E+04 -4.205E-01
   1   15   23     3     2    1.6597E+05 -3.5966E+02   1.6633E+05  0.000E+00  0.000E+00  0.000E+00  3.68294E+01  1.628E-01  2.000E+01  2.000E+04 -1.798E-02
   1   15   24     3     3    1.6633E+05 -1.8656E+02   1.6652E+05  0.000E+00  0.000E+00  0.000E+00  3.59407E+01  1.629E-01  2.000E+01  2.000E+04 -9.328E-03
   1   15   25     3     4    1.6652E+05 -1.8926E+02   1.6671E+05  0.000E+00  0.000E+00  0.000E+00  3.50519E+01  1.631E-01  2.000E+01  2.000E+04 -9.463E-03
   1   15   26     3     5    1.6671E+05 -2.4446E+02   1.6695E+05  0.000E+00  0.000E+00  0.000E+00  3.41632E+01  1.632E-01  2.000E+01  2.000E+04 -1.222E-02
   1   16   27     3     6    1.6695E+05 -2.5748E+02   1.6721E+05  0.000E+00  0.000E+00  0.000E+00  3.32744E+01  1.633E-01  2.000E+01  2.000E+04 -1.287E-02
   1   17   28     3     7    1.6721E+05 -1.2304E+03   1.6844E+05  0.000E+00  0.000E+00  0.000E+00  3.23860E+01  1.638E-01  2.000E+01  2.000E+04 -6.152E-02
   1   18   29     3     8    1.6844E+05 -2.4579E+03   1.7090E+05  0.000E+00  0.000E+00  0.000E+00  3.14982E+01  1.648E-01  2.000E+01  2.000E+04 -1.229E-01
   1   18   30     3     9    1.7090E+05 -2.8668E+03   1.7376E+05  0.000E+00  0.000E+00  0.000E+00  3.06108E+01  1.664E-01  2.000E+01  2.000E+04 -1.433E-01



1
              HEAD IN LAYER   1 AT END OF TIME STEP   1 IN STRESS PERIOD    7
  ---------------------------------------------------------------------------

          1      2      3      4      5      6      7      8      9     10
         11     12     13     14     15     16     17     18     19     20
         21     22     23     24     25     26     27     28     29     30
 .........................................................................
   1  ****** ****** ****** ****** ****** ****** ****** ****** ****** ******
      ****** ****** ****** ****** ****** ****** ****** ****** ****** ******
      ****** ****** ****** ****** ****** ****** ****** ****** ****** ******
   2  ****** ****** ****** ****** ****** ****** ****** ****** ****** ******
      ****** ****** ****** ****** ****** ****** ****** ****** ****** ******
      ****** ****** ****** ****** ****** ****** ****** ****** ****** ******
   3  ****** ****** ****** ****** ****** ****** ****** ****** ****** ******
      ****** ****** ****** ****** ****** ****** ****** ****** ****** ******
      ****** ****** ****** ****** ****** ****** ****** ****** ****** ******
   4  ****** ****** ****** ****** ****** ****** ****** ****** ****** ******
      ****** ****** ****** ****** ****** ****** ****** ****** ****** ******
      ****** ****** ****** ****** ****** ****** ****** ****** ****** ******
   5  ****** ****** ****** ****** ****** ****** ****** ****** ****** ******
      ****** ****** ****** ****** ****** ****** ****** ****** ****** ******
      ****** ****** ****** ****** ****** ****** ****** ****** ****** ******
   6  ****** ****** ****** ****** ****** ****** ****** ****** ****** ******
      ****** ****** ****** ****** ****** ****** ****** ****** ****** ******
      ****** ****** ****** ****** ****** ****** ****** ****** ****** ******
   7  ****** ****** ****** ****** ****** ****** ****** ****** ****** ******
      ****** ****** ****** ****** ****** ****** ****** ****** ****** ******
      ****** ****** ****** ****** ****** ****** ****** ****** ****** ******
   8  ****** ****** ****** ****** ****** ****** ****** ****** ****** ******
      ****** ****** ****** ****** ****** ****** ****** ****** ****** ******
      ****** ****** ****** ****** ****** ****** ****** ****** ****** ******
   9  ****** ****** ****** ****** ****** ****** ****** ****** ****** ******
      ****** ****** ****** ****** ****** ****** ****** ****** ****** ******
      ****** ****** ****** ****** ****** ****** ****** ****** ****** ******
  10  ****** ****** ****** ****** ****** ****** ****** ****** ****** ******
      ****** ****** ****** ****** ****** ****** ****** ****** ****** ******
      ****** ****** ****** ****** ****** ****** ****** ****** ****** ******
  11  ****** ****** ****** ****** ****** ****** ****** ****** ****** ******
      ****** ****** ****** ****** ****** ****** ****** ****** ****** ******
      ****** ****** ****** ****** ****** ****** ****** ****** ****** ******
  12  ****** ****** ****** ****** ****** ****** ****** ****** ****** ******
      ****** ****** ****** ****** ****** ****** ****** ****** ****** ******
      ****** ****** ****** ****** ****** ****** ****** ****** ****** ******
  13  ****** ****** ****** ****** ****** ****** ****** ****** ****** ******
      ****** ****** ****** ****** ****** ****** ****** ****** ****** ******
      ****** ****** ****** ****** ****** ****** ****** ****** ****** ******
  14  ****** ****** ****** ****** ****** ****** ****** ****** ****** ******
      ****** ****** ****** ****** ****** ****** ****** ****** ****** ******
      ****** ****** ****** ****** ****** ****** ****** ****** ****** ******
  15  ****** ****** ****** ****** ****** ****** ****** ****** ****** ******
      ****** ****** ****** ****** ****** ****** ****** ****** ****** ******
      ****** ****** ****** ****** ****** ****** ****** ****** ****** ******
  16  ****** ****** ****** ****** ****** ****** ****** ****** ****** ******
      ****** ****** ****** ****** ****** ****** ****** ****** ****** ******
      ****** ****** ****** ****** ****** ****** ****** ****** ****** ******
  17  ****** ****** ****** ****** ****** ****** ****** ****** ****** ******
      ****** ****** ****** ****** ****** ****** ****** ****** ****** ******
      ****** ****** ****** ****** ****** ****** ****** ****** ****** ******
  18  ****** ****** ****** ****** ****** ****** ****** ****** ****** ******
      ****** ****** ****** ****** ****** ****** ****** ****** ****** ******
      ****** ****** ****** ****** ****** ****** ****** ****** ****** ******
  19  ****** ****** ****** ****** ****** ****** ****** ****** ****** ******
      ****** ****** ****** ****** ****** ****** ****** ****** ****** ******
      ****** ****** ****** ****** ****** ****** ****** ****** ****** ******
  20  ****** ****** ****** ****** ****** ****** ****** ****** ****** ******
      ****** ****** ****** ****** ****** ****** ****** ****** ****** ******
      ****** ****** ****** ****** ****** ****** ****** ****** ****** ******
  21  ****** ****** ****** ****** ****** ****** ****** ****** ****** ******
      ****** ****** ****** ****** ****** ****** ****** ****** ****** ******
      ****** ****** ****** ****** ****** ****** ****** ****** ****** ******
  22  ****** ****** ****** ****** ****** ****** ****** ****** ****** ******
      ****** ****** ****** ****** ****** ****** ****** ****** ****** ******
      ****** ****** ****** ****** ****** ****** ****** ****** ****** ******
  23  ****** ****** ****** ****** ****** ****** ****** ****** ****** ******
      ****** ****** ****** ****** ****** ****** ****** ****** ****** ******
      ****** ****** ****** ****** ****** ****** ****** ****** ****** ******
  24  ****** ****** ****** ****** ****** ****** ****** ****** ****** ******
      ****** ****** ****** ****** ****** ****** ****** ****** ****** ******
      ****** ****** ****** ****** ****** ****** ****** ****** ****** ******
  25  ****** ****** ****** ****** ****** ****** ****** ****** ****** ******
      ****** ****** ****** ****** ****** ****** ****** ****** ****** ******
      ****** ****** ****** ****** ****** ****** ****** ****** ****** ******

 HEAD WILL BE SAVED ON UNIT   51 AT END OF TIME STEP    1, STRESS PERIOD    7
1
  VOLUMETRIC BUDGET FOR ENTIRE MODEL AT END OF TIME STEP    1, STRESS PERIOD   7
  ------------------------------------------------------------------------------

     CUMULATIVE VOLUMES      L**3       RATES FOR THIS TIME STEP      L**3/T
     ------------------                 ------------------------

           IN:                                      IN:
           ---                                      ---
             STORAGE =    34049833.2674               STORAGE =       22453.9118
       CONSTANT HEAD =    17389946.8617         CONSTANT HEAD =       35525.1990
               WELLS =           0.0000                 WELLS =           0.0000
            RECHARGE =    15097200.0000              RECHARGE =           0.0000
      STREAM LEAKAGE =     4277154.6242        STREAM LEAKAGE =        8778.2649

            TOTAL IN =    70814134.7533              TOTAL IN =       66757.3757

          OUT:                                     OUT:
          ----                                     ----
             STORAGE =      783043.9779               STORAGE =           0.0000
       CONSTANT HEAD =           0.0000         CONSTANT HEAD =           0.0000
               WELLS =    21864208.1431                 WELLS =       34216.2882
            RECHARGE =           0.0000              RECHARGE =           0.0000
      STREAM LEAKAGE =    48166885.3150        STREAM LEAKAGE =       32541.0933

           TOTAL OUT =    70814137.4360             TOTAL OUT =       66757.3815

            IN - OUT =          -2.6827              IN - OUT =      -5.7477E-03

 PERCENT DISCREPANCY =          -0.00     PERCENT DISCREPANCY =          -0.00






         TIME SUMMARY AT END OF TIME STEP    1 IN STRESS PERIOD    7
                    SECONDS     MINUTES      HOURS       DAYS        YEARS
                    -----------------------------------------------------------
   TIME STEP LENGTH 7.86240E+06 1.31040E+05  2184.0      91.000     0.24914    
 STRESS PERIOD TIME 7.86240E+06 1.31040E+05  2184.0      91.000     0.24914    
         TOTAL TIME 5.52096E+07 9.20160E+05  15336.      639.00      1.7495    
1
1
                            STRESS PERIOD NO.    8, LENGTH =   91.00000    
                            -----------------------------------------------

                              NUMBER OF TIME STEPS =     1

                               MULTIPLIER FOR DELT =     1.500

                            INITIAL TIME STEP SIZE =   91.00000    

 WELL NO.  LAYER   ROW   COL   STRESS RATE         
 --------------------------------------------------
      1      1      9     21      -9430.    
      2      1      5     25      -7885.    
      3      1     22     18      -7019.    
      4      1     19      6      -9882.    

      4 WELLS

                 RECHARGE =  1.000000E-03

 REUSING STREAM SEGMENT DATA FROM LAST STRESS PERIOD
 
 SOLVING FOR HEAD 


     6 CALLS TO PCG ROUTINE FOR TIME STEP   1 IN STRESS PERIOD    8
    22 TOTAL ITERATIONS

 OUTPUT CONTROL FOR STRESS PERIOD    8   TIME STEP    1
    SAVE BUDGET
    SAVE HEAD FOR ALL LAYERS
    PRINT HEAD FOR ALL LAYERS
 UBDSV2 SAVING "STREAMFLOW OUT  " ON UNIT  50 AT TIME STEP  1, STRESS PERIOD   8



 STREAM LISTING     PERIOD      8   STEP        1

 LAYER ROW COL. STREAM  RCH.  FLOW INTO     FLOW TO   FLOW OUT OF   OVRLND.     DIRECT     STREAM       STREAM     STREAM     STREAM   STREAMBED  STREAMBED
                SEG.NO.  NO.  STRM. RCH.    AQUIFER    STRM. RCH.    RUNOFF     PRECIP       ET          HEAD       DEPTH      WIDTH   CONDCTNC.   GRADIENT

   1   13    1     1     1    1.0000E+05 -1.5008E+03   1.0150E+05  0.000E+00  0.000E+00  0.000E+00  4.84067E+01  1.453E-01  2.000E+01  2.000E+04 -7.504E-02
   1   13    2     1     2    1.0150E+05 -2.4865E+03   1.0399E+05  0.000E+00  0.000E+00  0.000E+00  4.79311E+01  1.470E-01  2.000E+01  2.000E+04 -1.243E-01
   1   14    3     1     3    1.0399E+05 -3.5383E+02   1.0434E+05  0.000E+00  0.000E+00  0.000E+00  4.74551E+01  1.482E-01  2.000E+01  2.000E+04 -1.769E-02
   1   15    4     1     4    1.0434E+05 -2.3302E+02   1.0457E+05  0.000E+00  0.000E+00  0.000E+00  4.69780E+01  1.485E-01  2.000E+01  2.000E+04 -1.165E-02
   1   16    5     1     5    1.0457E+05  4.7539E+02   1.0410E+05  0.000E+00  0.000E+00  0.000E+00  4.65007E+01  1.484E-01  2.000E+01  2.000E+04  2.377E-02
   1   16    6     1     6    1.0410E+05  3.7318E+02   1.0373E+05  0.000E+00  0.000E+00  0.000E+00  4.60230E+01  1.480E-01  2.000E+01  2.000E+04  1.866E-02
   1   16    7     1     7    1.0373E+05  1.4694E+02   1.0358E+05  0.000E+00  0.000E+00  0.000E+00  4.55455E+01  1.478E-01  2.000E+01  2.000E+04  7.347E-03
   1   16    8     1     8    1.0358E+05 -1.0982E+02   1.0369E+05  0.000E+00  0.000E+00  0.000E+00  4.50682E+01  1.478E-01  2.000E+01  2.000E+04 -5.491E-03
   1   16    9     1     9    1.0369E+05 -3.0185E+02   1.0399E+05  0.000E+00  0.000E+00  0.000E+00  4.45911E+01  1.480E-01  2.000E+01  2.000E+04 -1.509E-02
   1   16   10     1    10    1.0399E+05 -4.1698E+02   1.0441E+05  0.000E+00  0.000E+00  0.000E+00  4.41142E+01  1.483E-01  2.000E+01  2.000E+04 -2.085E-02
   1   16   11     1    11    1.0441E+05 -4.7426E+02   1.0488E+05  0.000E+00  0.000E+00  0.000E+00  4.36373E+01  1.486E-01  2.000E+01  2.000E+04 -2.371E-02
   1   16   12     1    12    1.0488E+05 -9.0593E+02   1.0579E+05  0.000E+00  0.000E+00  0.000E+00  4.31606E+01  1.492E-01  2.000E+01  2.000E+04 -4.530E-02
   1   15   13     1    13    1.0579E+05 -1.1014E+03   1.0689E+05  0.000E+00  0.000E+00  0.000E+00  4.26842E+01  1.501E-01  2.000E+01  2.000E+04 -5.507E-02
   1   14   14     1    14    1.0689E+05 -1.4554E+03   1.0834E+05  0.000E+00  0.000E+00  0.000E+00  4.22080E+01  1.512E-01  2.000E+01  2.000E+04 -7.277E-02
   1   13   15     1    15    1.0834E+05 -1.7787E+03   1.1012E+05  0.000E+00  0.000E+00  0.000E+00  4.17321E+01  1.525E-01  2.000E+01  2.000E+04 -8.894E-02
   1   12   16     1    16    1.1012E+05 -2.2546E+03   1.1238E+05  0.000E+00  0.000E+00  0.000E+00  4.12565E+01  1.542E-01  2.000E+01  2.000E+04 -1.127E-01
   1   12   17     1    17    1.1238E+05 -1.2451E+03   1.1362E+05  0.000E+00  0.000E+00  0.000E+00  4.07807E+01  1.557E-01  2.000E+01  2.000E+04 -6.226E-02
   1   12   18     1    18    1.1362E+05 -9.6741E+02   1.1459E+05  0.000E+00  0.000E+00  0.000E+00  4.03043E+01  1.566E-01  2.000E+01  2.000E+04 -4.837E-02
   1   12   19     1    19    1.1459E+05 -7.3774E+02   1.1533E+05  0.000E+00  0.000E+00  0.000E+00  3.98277E+01  1.573E-01  2.000E+01  2.000E+04 -3.689E-02
   1   13   20     1    20    1.1533E+05 -5.9618E+02   1.1592E+05  0.000E+00  0.000E+00  0.000E+00  3.93510E+01  1.578E-01  2.000E+01  2.000E+04 -2.981E-02
   1   14   21     1    21    1.1592E+05 -7.2680E+02   1.1665E+05  0.000E+00  0.000E+00  0.000E+00  3.88743E+01  1.584E-01  2.000E+01  2.000E+04 -3.634E-02
   1   14   22     1    22    1.1665E+05  5.0909E+03   1.1156E+05  0.000E+00  0.000E+00  0.000E+00  3.83952E+01  1.566E-01  2.000E+01  2.000E+04  2.545E-01
   1    9   30     2     1    5.0000E+04 -1.2444E+01   5.0012E+04  0.000E+00  0.000E+00  0.000E+00  4.02409E+01  1.159E-01  2.000E+01  2.000E+04 -6.222E-04
   1    9   29     2     2    5.0012E+04 -2.4349E+02   5.0256E+04  0.000E+00  0.000E+00  0.000E+00  3.99911E+01  1.161E-01  2.000E+01  2.000E+04 -1.217E-02
   1    9   28     2     3    5.0256E+04 -3.3066E+02   5.0587E+04  0.000E+00  0.000E+00  0.000E+00  3.97415E+01  1.165E-01  2.000E+01  2.000E+04 -1.653E-02
   1    9   27     2     4    5.0587E+04 -6.2398E+02   5.1211E+04  0.000E+00  0.000E+00  0.000E+00  3.94921E+01  1.171E-01  2.000E+01  2.000E+04 -3.120E-02
   1   10   26     2     5    5.1211E+04 -2.3936E+02   5.1450E+04  0.000E+00  0.000E+00  0.000E+00  3.92427E+01  1.177E-01  2.000E+01  2.000E+04 -1.197E-02
   1   11   25     2     6    5.1450E+04 -1.6786E+02   5.1618E+04  0.000E+00  0.000E+00  0.000E+00  3.89930E+01  1.180E-01  2.000E+01  2.000E+04 -8.393E-03
   1   12   24     2     7    5.1618E+04 -2.5850E+02   5.1876E+04  0.000E+00  0.000E+00  0.000E+00  3.87433E+01  1.183E-01  2.000E+01  2.000E+04 -1.293E-02
   1   13   23     2     8    5.1876E+04 -6.8712E+01   5.1945E+04  0.000E+00  0.000E+00  0.000E+00  3.84935E+01  1.185E-01  2.000E+01  2.000E+04 -3.436E-03
   1   14   22     2     9    5.1945E+04  2.0299E+03   4.9915E+04  0.000E+00  0.000E+00  0.000E+00  3.82422E+01  1.172E-01  2.000E+01  2.000E+04  1.015E-01
   1   14   22     3     1    1.6148E+05 -8.4518E+03   1.6993E+05  0.000E+00  0.000E+00  0.000E+00  3.77181E+01  1.625E-01  2.000E+01  2.000E+04 -4.226E-01
   1   15   23     3     2    1.6993E+05 -4.2321E+02   1.7035E+05  0.000E+00  0.000E+00  0.000E+00  3.68318E+01  1.651E-01  2.000E+01  2.000E+04 -2.116E-02
   1   15   24     3     3    1.7035E+05 -2.4674E+02   1.7060E+05  0.000E+00  0.000E+00  0.000E+00  3.59431E+01  1.653E-01  2.000E+01  2.000E+04 -1.234E-02
   1   15   25     3     4    1.7060E+05 -2.5121E+02   1.7085E+05  0.000E+00  0.000E+00  0.000E+00  3.50543E+01  1.655E-01  2.000E+01  2.000E+04 -1.256E-02
   1   15   26     3     5    1.7085E+05 -3.1893E+02   1.7117E+05  0.000E+00  0.000E+00  0.000E+00  3.41656E+01  1.656E-01  2.000E+01  2.000E+04 -1.595E-02
   1   16   27     3     6    1.7117E+05 -3.3898E+02   1.7151E+05  0.000E+00  0.000E+00  0.000E+00  3.32769E+01  1.658E-01  2.000E+01  2.000E+04 -1.695E-02
   1   17   28     3     7    1.7151E+05 -1.4329E+03   1.7294E+05  0.000E+00  0.000E+00  0.000E+00  3.23885E+01  1.663E-01  2.000E+01  2.000E+04 -7.165E-02
   1   18   29     3     8    1.7294E+05 -2.6208E+03   1.7556E+05  0.000E+00  0.000E+00  0.000E+00  3.15008E+01  1.675E-01  2.000E+01  2.000E+04 -1.310E-01
   1   18   30     3     9    1.7556E+05 -3.0120E+03   1.7857E+05  0.000E+00  0.000E+00  0.000E+00  3.06136E+01  1.691E-01  2.000E+01  2.000E+04 -1.506E-01



1
              HEAD IN LAYER   1 AT END OF TIME STEP   1 IN STRESS PERIOD    8
  ---------------------------------------------------------------------------

          1      2      3      4      5      6      7      8      9     10
         11     12     13     14     15     16     17     18     19     20
         21     22     23     24     25     26     27     28     29     30
 .........................................................................
   1  ****** ****** ****** ****** ****** ****** ****** ****** ****** ******
      ****** ****** ****** ****** ****** ****** ****** ****** ****** ******
      ****** ****** ****** ****** ****** ****** ****** ****** ****** ******
   2  ****** ****** ****** ****** ****** ****** ****** ****** ****** ******
      ****** ****** ****** ****** ****** ****** ****** ****** ****** ******
      ****** ****** ****** ****** ****** ****** ****** ****** ****** ******
   3  ****** ****** ****** ****** ****** ****** ****** ****** ****** ******
      ****** ****** ****** ****** ****** ****** ****** ****** ****** ******
      ****** ****** ****** ****** ****** ****** ****** ****** ****** ******
   4  ****** ****** ****** ****** ****** ****** ****** ****** ****** ******
      ****** ****** ****** ****** ****** ****** ****** ****** ****** ******
      ****** ****** ****** ****** ****** ****** ****** ****** ****** ******
   5  ****** ****** ****** ****** ****** ****** ****** ****** ****** ******
      ****** ****** ****** ****** ****** ****** ****** ****** ****** ******
      ****** ****** ****** ****** ****** ****** ****** ****** ****** ******
   6  ****** ****** ****** ****** ****** ****** ****** ****** ****** ******
      ****** ****** ****** ****** ****** ****** ****** ****** ****** ******
      ****** ****** ****** ****** ****** ****** ****** ****** ****** ******
   7  ****** ****** ****** ****** ****** ****** ****** ****** ****** ******
      ****** ****** ****** ****** ****** ****** ****** ****** ****** ******
      ****** ****** ****** ****** ****** ****** ****** ****** ****** ******
   8  ****** ****** ****** ****** ****** ****** ****** ****** ****** ******
      ****** ****** ****** ****** ****** ****** ****** ****** ****** ******
      ****** ****** ****** ****** ****** ****** ****** ****** ****** ******
   9  ****** ****** ****** ****** ****** ****** ****** ****** ****** ******
      ****** ****** ****** ****** ****** ****** ****** ****** ****** ******
      ****** ****** ****** ****** ****** ****** ****** ****** ****** ******
  10  ****** ****** ****** ****** ****** ****** ****** ****** ****** ******
      ****** ****** ****** ****** ****** ****** ****** ****** ****** ******
      ****** ****** ****** ****** ****** ****** ****** ****** ****** ******
  11  ****** ****** ****** ****** ****** ****** ****** ****** ****** ******
      ****** ****** ****** ****** ****** ****** ****** ****** ****** ******
      ****** ****** ****** ****** ****** ****** ****** ****** ****** ******
  12  ****** ****** ****** ****** ****** ****** ****** ****** ****** ******
      ****** ****** ****** ****** ****** ****** ****** ****** ****** ******
      ****** ****** ****** ****** ****** ****** ****** ****** ****** ******
  13  ****** ****** ****** ****** ****** ****** ****** ****** ****** ******
      ****** ****** ****** ****** ****** ****** ****** ****** ****** ******
      ****** ****** ****** ****** ****** ****** ****** ****** ****** ******
  14  ****** ****** ****** ****** ****** ****** ****** ****** ****** ******
      ****** ****** ****** ****** ****** ****** ****** ****** ****** ******
      ****** ****** ****** ****** ****** ****** ****** ****** ****** ******
  15  ****** ****** ****** ****** ****** ****** ****** ****** ****** ******
      ****** ****** ****** ****** ****** ****** ****** ****** ****** ******
      ****** ****** ****** ****** ****** ****** ****** ****** ****** ******
  16  ****** ****** ****** ****** ****** ****** ****** ****** ****** ******
      ****** ****** ****** ****** ****** ****** ****** ****** ****** ******
      ****** ****** ****** ****** ****** ****** ****** ****** ****** ******
  17  ****** ****** ****** ****** ****** ****** ****** ****** ****** ******
      ****** ****** ****** ****** ****** ****** ****** ****** ****** ******
      ****** ****** ****** ****** ****** ****** ****** ****** ****** ******
  18  ****** ****** ****** ****** ****** ****** ****** ****** ****** ******
      ****** ****** ****** ****** ****** ****** ****** ****** ****** ******
      ****** ****** ****** ****** ****** ****** ****** ****** ****** ******
  19  ****** ****** ****** ****** ****** ****** ****** ****** ****** ******
      ****** ****** ****** ****** ****** ****** ****** ****** ****** ******
      ****** ****** ****** ****** ****** ****** ****** ****** ****** ******
  20  ****** ****** ****** ****** ****** ****** ****** ****** ****** ******
      ****** ****** ****** ****** ****** ****** ****** ****** ****** ******
      ****** ****** ****** ****** ****** ****** ****** ****** ****** ******
  21  ****** ****** ****** ****** ****** ****** ****** ****** ****** ******
      ****** ****** ****** ****** ****** ****** ****** ****** ****** ******
      ****** ****** ****** ****** ****** ****** ****** ****** ****** ******
  22  ****** ****** ****** ****** ****** ****** ****** ****** ****** ******
      ****** ****** ****** ****** ****** ****** ****** ****** ****** ******
      ****** ****** ****** ****** ****** ****** ****** ****** ****** ******
  23  ****** ****** ****** ****** ****** ****** ****** ****** ****** ******
      ****** ****** ****** ****** ****** ****** ****** ****** ****** ******
      ****** ****** ****** ****** ****** ****** ****** ****** ****** ******
  24  ****** ****** ****** ****** ****** ****** ****** ****** ****** ******
      ****** ****** ****** ****** ****** ****** ****** ****** ****** ******
      ****** ****** ****** ****** ****** ****** ****** ****** ****** ******
  25  ****** ****** ****** ****** ****** ****** ****** ****** ****** ******
      ****** ****** ****** ****** ****** ****** ****** ****** ****** ******
      ****** ****** ****** ****** ****** ****** ****** ****** ****** ******

 HEAD WILL BE SAVED ON UNIT   51 AT END OF TIME STEP    1, STRESS PERIOD    8
1
  VOLUMETRIC BUDGET FOR ENTIRE MODEL AT END OF TIME STEP    1, STRESS PERIOD   8
  ------------------------------------------------------------------------------

     CUMULATIVE VOLUMES      L**3       RATES FOR THIS TIME STEP      L**3/T
     ------------------                 ------------------------

           IN:                                      IN:
           ---                                      ---
             STORAGE =    34180706.1777               STORAGE =        1438.1638
       CONSTANT HEAD =    20597009.7061         CONSTANT HEAD =       35242.4488
               WELLS =           0.0000                 WELLS =           0.0000
            RECHARGE =    17608800.0000              RECHARGE =       27600.0000
      STREAM LEAKAGE =     5015736.9827        STREAM LEAKAGE =        8116.2897

            TOTAL IN =    77402252.8665              TOTAL IN =       72396.9023

          OUT:                                     OUT:
          ----                                     ----
             STORAGE =      918866.9502               STORAGE =        1492.5601
       CONSTANT HEAD =           0.0000         CONSTANT HEAD =           0.0000
               WELLS =    24977890.3669                 WELLS =       34216.2882
            RECHARGE =           0.0000              RECHARGE =           0.0000
      STREAM LEAKAGE =    51505497.4666        STREAM LEAKAGE =       36688.0456

           TOTAL OUT =    77402254.7837             TOTAL OUT =       72396.8939

            IN - OUT =          -1.9172              IN - OUT =       8.4122E-03

 PERCENT DISCREPANCY =          -0.00     PERCENT DISCREPANCY =           0.00






         TIME SUMMARY AT END OF TIME STEP    1 IN STRESS PERIOD    8
                    SECONDS     MINUTES      HOURS       DAYS        YEARS
                    -----------------------------------------------------------
   TIME STEP LENGTH 7.86240E+06 1.31040E+05  2184.0      91.000     0.24914    
 STRESS PERIOD TIME 7.86240E+06 1.31040E+05  2184.0      91.000     0.24914    
         TOTAL TIME 6.30720E+07 1.05120E+06  17520.      730.00      1.9986    
1
1
                            STRESS PERIOD NO.    9, LENGTH =   92.00000    
                            -----------------------------------------------

                              NUMBER OF TIME STEPS =     1

                               MULTIPLIER FOR DELT =     1.500

                            INITIAL TIME STEP SIZE =   92.00000    

 WELL NO.  LAYER   ROW   COL   STRESS RATE         
 --------------------------------------------------
      1      1      9     21      -9430.    
      2      1      5     25      -7885.    
      3      1     22     18      -7019.    
      4      1     19      6      -9882.    

      4 WELLS

                 RECHARGE =  5.000000E-04

 REUSING STREAM SEGMENT DATA FROM LAST STRESS PERIOD
 
 SOLVING FOR HEAD 


     6 CALLS TO PCG ROUTINE FOR TIME STEP   1 IN STRESS PERIOD    9
    23 TOTAL ITERATIONS

 OUTPUT CONTROL FOR STRESS PERIOD    9   TIME STEP    1
    SAVE BUDGET
    SAVE HEAD FOR ALL LAYERS
    PRINT HEAD FOR ALL LAYERS
 UBDSV2 SAVING "STREAMFLOW OUT  " ON UNIT  50 AT TIME STEP  1, STRESS PERIOD   9



 STREAM LISTING     PERIOD      9   STEP        1

 LAYER ROW COL. STREAM  RCH.  FLOW INTO     FLOW TO   FLOW OUT OF   OVRLND.     DIRECT     STREAM       STREAM     STREAM     STREAM   STREAMBED  STREAMBED
                SEG.NO.  NO.  STRM. RCH.    AQUIFER    STRM. RCH.    RUNOFF     PRECIP       ET          HEAD       DEPTH      WIDTH   CONDCTNC.   GRADIENT

   1   13    1     1     1    1.0000E+05 -1.2869E+03   1.0129E+05  0.000E+00  0.000E+00  0.000E+00  4.84066E+01  1.452E-01  2.000E+01  2.000E+04 -6.434E-02
   1   13    2     1     2    1.0129E+05 -2.2444E+03   1.0353E+05  0.000E+00  0.000E+00  0.000E+00  4.79308E+01  1.467E-01  2.000E+01  2.000E+04 -1.122E-01
   1   14    3     1     3    1.0353E+05 -2.8300E+02   1.0381E+05  0.000E+00  0.000E+00  0.000E+00  4.74546E+01  1.478E-01  2.000E+01  2.000E+04 -1.415E-02
   1   15    4     1     4    1.0381E+05 -1.6103E+02   1.0398E+05  0.000E+00  0.000E+00  0.000E+00  4.69776E+01  1.480E-01  2.000E+01  2.000E+04 -8.051E-03
   1   16    5     1     5    1.0398E+05  6.7011E+02   1.0331E+05  0.000E+00  0.000E+00  0.000E+00  4.65001E+01  1.478E-01  2.000E+01  2.000E+04  3.351E-02
   1   16    6     1     6    1.0331E+05  4.9413E+02   1.0281E+05  0.000E+00  0.000E+00  0.000E+00  4.60223E+01  1.473E-01  2.000E+01  2.000E+04  2.471E-02
   1   16    7     1     7    1.0281E+05  2.6403E+02   1.0255E+05  0.000E+00  0.000E+00  0.000E+00  4.55447E+01  1.470E-01  2.000E+01  2.000E+04  1.320E-02
   1   16    8     1     8    1.0255E+05  5.6893E+00   1.0254E+05  0.000E+00  0.000E+00  0.000E+00  4.50673E+01  1.468E-01  2.000E+01  2.000E+04  2.845E-04
   1   16    9     1     9    1.0254E+05 -1.8795E+02   1.0273E+05  0.000E+00  0.000E+00  0.000E+00  4.45901E+01  1.469E-01  2.000E+01  2.000E+04 -9.398E-03
   1   16   10     1    10    1.0273E+05 -3.0506E+02   1.0303E+05  0.000E+00  0.000E+00  0.000E+00  4.41130E+01  1.471E-01  2.000E+01  2.000E+04 -1.525E-02
   1   16   11     1    11    1.0303E+05 -3.6325E+02   1.0340E+05  0.000E+00  0.000E+00  0.000E+00  4.36361E+01  1.474E-01  2.000E+01  2.000E+04 -1.816E-02
   1   16   12     1    12    1.0340E+05 -7.1600E+02   1.0411E+05  0.000E+00  0.000E+00  0.000E+00  4.31593E+01  1.479E-01  2.000E+01  2.000E+04 -3.580E-02
   1   15   13     1    13    1.0411E+05 -8.9092E+02   1.0500E+05  0.000E+00  0.000E+00  0.000E+00  4.26827E+01  1.486E-01  2.000E+01  2.000E+04 -4.455E-02
   1   14   14     1    14    1.0500E+05 -1.2318E+03   1.0624E+05  0.000E+00  0.000E+00  0.000E+00  4.22063E+01  1.495E-01  2.000E+01  2.000E+04 -6.159E-02
   1   13   15     1    15    1.0624E+05 -1.5495E+03   1.0779E+05  0.000E+00  0.000E+00  0.000E+00  4.17302E+01  1.507E-01  2.000E+01  2.000E+04 -7.747E-02
   1   12   16     1    16    1.0779E+05 -2.0174E+03   1.0980E+05  0.000E+00  0.000E+00  0.000E+00  4.12544E+01  1.522E-01  2.000E+01  2.000E+04 -1.009E-01
   1   12   17     1    17    1.0980E+05 -1.0820E+03   1.1089E+05  0.000E+00  0.000E+00  0.000E+00  4.07785E+01  1.535E-01  2.000E+01  2.000E+04 -5.410E-02
   1   12   18     1    18    1.1089E+05 -8.1164E+02   1.1170E+05  0.000E+00  0.000E+00  0.000E+00  4.03020E+01  1.542E-01  2.000E+01  2.000E+04 -4.058E-02
   1   12   19     1    19    1.1170E+05 -5.5022E+02   1.1225E+05  0.000E+00  0.000E+00  0.000E+00  3.98253E+01  1.548E-01  2.000E+01  2.000E+04 -2.751E-02
   1   13   20     1    20    1.1225E+05 -4.2178E+02   1.1267E+05  0.000E+00  0.000E+00  0.000E+00  3.93484E+01  1.552E-01  2.000E+01  2.000E+04 -2.109E-02
   1   14   21     1    21    1.1267E+05 -5.5389E+02   1.1322E+05  0.000E+00  0.000E+00  0.000E+00  3.88715E+01  1.556E-01  2.000E+01  2.000E+04 -2.769E-02
   1   14   22     1    22    1.1322E+05  5.1293E+03   1.0809E+05  0.000E+00  0.000E+00  0.000E+00  3.83924E+01  1.537E-01  2.000E+01  2.000E+04  2.565E-01
   1    9   30     2     1    5.0000E+04  1.1135E+02   4.9889E+04  0.000E+00  0.000E+00  0.000E+00  4.02408E+01  1.158E-01  2.000E+01  2.000E+04  5.568E-03
   1    9   29     2     2    4.9889E+04 -1.1946E+02   5.0008E+04  0.000E+00  0.000E+00  0.000E+00  3.99908E+01  1.158E-01  2.000E+01  2.000E+04 -5.973E-03
   1    9   28     2     3    5.0008E+04 -2.0469E+02   5.0213E+04  0.000E+00  0.000E+00  0.000E+00  3.97410E+01  1.160E-01  2.000E+01  2.000E+04 -1.023E-02
   1    9   27     2     4    5.0213E+04 -4.4656E+02   5.0659E+04  0.000E+00  0.000E+00  0.000E+00  3.94915E+01  1.165E-01  2.000E+01  2.000E+04 -2.233E-02
   1   10   26     2     5    5.0659E+04 -6.5108E+01   5.0724E+04  0.000E+00  0.000E+00  0.000E+00  3.92418E+01  1.168E-01  2.000E+01  2.000E+04 -3.255E-03
   1   11   25     2     6    5.0724E+04 -1.2178E+00   5.0726E+04  0.000E+00  0.000E+00  0.000E+00  3.89919E+01  1.169E-01  2.000E+01  2.000E+04 -6.089E-05
   1   12   24     2     7    5.0726E+04 -1.0532E+02   5.0831E+04  0.000E+00  0.000E+00  0.000E+00  3.87419E+01  1.169E-01  2.000E+01  2.000E+04 -5.266E-03
   1   13   23     2     8    5.0831E+04 -2.1549E+01   5.0853E+04  0.000E+00  0.000E+00  0.000E+00  3.84920E+01  1.170E-01  2.000E+01  2.000E+04 -1.077E-03
   1   14   22     2     9    5.0853E+04  2.0942E+03   4.8758E+04  0.000E+00  0.000E+00  0.000E+00  3.82406E+01  1.156E-01  2.000E+01  2.000E+04  1.047E-01
   1   14   22     3     1    1.5685E+05 -8.4112E+03   1.6526E+05  0.000E+00  0.000E+00  0.000E+00  3.77153E+01  1.598E-01  2.000E+01  2.000E+04 -4.206E-01
   1   15   23     3     2    1.6526E+05 -3.7036E+02   1.6563E+05  0.000E+00  0.000E+00  0.000E+00  3.68290E+01  1.624E-01  2.000E+01  2.000E+04 -1.852E-02
   1   15   24     3     3    1.6563E+05 -2.0359E+02   1.6584E+05  0.000E+00  0.000E+00  0.000E+00  3.59403E+01  1.625E-01  2.000E+01  2.000E+04 -1.018E-02
   1   15   25     3     4    1.6584E+05 -2.0783E+02   1.6604E+05  0.000E+00  0.000E+00  0.000E+00  3.50515E+01  1.627E-01  2.000E+01  2.000E+04 -1.039E-02
   1   15   26     3     5    1.6604E+05 -2.7128E+02   1.6632E+05  0.000E+00  0.000E+00  0.000E+00  3.41628E+01  1.628E-01  2.000E+01  2.000E+04 -1.356E-02
   1   16   27     3     6    1.6632E+05 -2.8286E+02   1.6660E+05  0.000E+00  0.000E+00  0.000E+00  3.32741E+01  1.630E-01  2.000E+01  2.000E+04 -1.414E-02
   1   17   28     3     7    1.6660E+05 -1.2789E+03   1.6788E+05  0.000E+00  0.000E+00  0.000E+00  3.23856E+01  1.634E-01  2.000E+01  2.000E+04 -6.395E-02
   1   18   29     3     8    1.6788E+05 -2.4439E+03   1.7032E+05  0.000E+00  0.000E+00  0.000E+00  3.14978E+01  1.645E-01  2.000E+01  2.000E+04 -1.222E-01
   1   18   30     3     9    1.7032E+05 -2.8791E+03   1.7320E+05  0.000E+00  0.000E+00  0.000E+00  3.06105E+01  1.661E-01  2.000E+01  2.000E+04 -1.440E-01



1
              HEAD IN LAYER   1 AT END OF TIME STEP   1 IN STRESS PERIOD    9
  ---------------------------------------------------------------------------

          1      2      3      4      5      6      7      8      9     10
         11     12     13     14     15     16     17     18     19     20
         21     22     23     24     25     26     27     28     29     30
 .........................................................................
   1  ****** ****** ****** ****** ****** ****** ****** ****** ****** ******
      ****** ****** ****** ****** ****** ****** ****** ****** ****** ******
      ****** ****** ****** ****** ****** ****** ****** ****** ****** ******
   2  ****** ****** ****** ****** ****** ****** ****** ****** ****** ******
      ****** ****** ****** ****** ****** ****** ****** ****** ****** ******
      ****** ****** ****** ****** ****** ****** ****** ****** ****** ******
   3  ****** ****** ****** ****** ****** ****** ****** ****** ****** ******
      ****** ****** ****** ****** ****** ****** ****** ****** ****** ******
      ****** ****** ****** ****** ****** ****** ****** ****** ****** ******
   4  ****** ****** ****** ****** ****** ****** ****** ****** ****** ******
      ****** ****** ****** ****** ****** ****** ****** ****** ****** ******
      ****** ****** ****** ****** ****** ****** ****** ****** ****** ******
   5  ****** ****** ****** ****** ****** ****** ****** ****** ****** ******
      ****** ****** ****** ****** ****** ****** ****** ****** ****** ******
      ****** ****** ****** ****** ****** ****** ****** ****** ****** ******
   6  ****** ****** ****** ****** ****** ****** ****** ****** ****** ******
      ****** ****** ****** ****** ****** ****** ****** ****** ****** ******
      ****** ****** ****** ****** ****** ****** ****** ****** ****** ******
   7  ****** ****** ****** ****** ****** ****** ****** ****** ****** ******
      ****** ****** ****** ****** ****** ****** ****** ****** ****** ******
      ****** ****** ****** ****** ****** ****** ****** ****** ****** ******
   8  ****** ****** ****** ****** ****** ****** ****** ****** ****** ******
      ****** ****** ****** ****** ****** ****** ****** ****** ****** ******
      ****** ****** ****** ****** ****** ****** ****** ****** ****** ******
   9  ****** ****** ****** ****** ****** ****** ****** ****** ****** ******
      ****** ****** ****** ****** ****** ****** ****** ****** ****** ******
      ****** ****** ****** ****** ****** ****** ****** ****** ****** ******
  10  ****** ****** ****** ****** ****** ****** ****** ****** ****** ******
      ****** ****** ****** ****** ****** ****** ****** ****** ****** ******
      ****** ****** ****** ****** ****** ****** ****** ****** ****** ******
  11  ****** ****** ****** ****** ****** ****** ****** ****** ****** ******
      ****** ****** ****** ****** ****** ****** ****** ****** ****** ******
      ****** ****** ****** ****** ****** ****** ****** ****** ****** ******
  12  ****** ****** ****** ****** ****** ****** ****** ****** ****** ******
      ****** ****** ****** ****** ****** ****** ****** ****** ****** ******
      ****** ****** ****** ****** ****** ****** ****** ****** ****** ******
  13  ****** ****** ****** ****** ****** ****** ****** ****** ****** ******
      ****** ****** ****** ****** ****** ****** ****** ****** ****** ******
      ****** ****** ****** ****** ****** ****** ****** ****** ****** ******
  14  ****** ****** ****** ****** ****** ****** ****** ****** ****** ******
      ****** ****** ****** ****** ****** ****** ****** ****** ****** ******
      ****** ****** ****** ****** ****** ****** ****** ****** ****** ******
  15  ****** ****** ****** ****** ****** ****** ****** ****** ****** ******
      ****** ****** ****** ****** ****** ****** ****** ****** ****** ******
      ****** ****** ****** ****** ****** ****** ****** ****** ****** ******
  16  ****** ****** ****** ****** ****** ****** ****** ****** ****** ******
      ****** ****** ****** ****** ****** ****** ****** ****** ****** ******
      ****** ****** ****** ****** ****** ****** ****** ****** ****** ******
  17  ****** ****** ****** ****** ****** ****** ****** ****** ****** ******
      ****** ****** ****** ****** ****** ****** ****** ****** ****** ******
      ****** ****** ****** ****** ****** ****** ****** ****** ****** ******
  18  ****** ****** ****** ****** ****** ****** ****** ****** ****** ******
      ****** ****** ****** ****** ****** ****** ****** ****** ****** ******
      ****** ****** ****** ****** ****** ****** ****** ****** ****** ******
  19  ****** ****** ****** ****** ****** ****** ****** ****** ****** ******
      ****** ****** ****** ****** ****** ****** ****** ****** ****** ******
      ****** ****** ****** ****** ****** ****** ****** ****** ****** ******
  20  ****** ****** ****** ****** ****** ****** ****** ****** ****** ******
      ****** ****** ****** ****** ****** ****** ****** ****** ****** ******
      ****** ****** ****** ****** ****** ****** ****** ****** ****** ******
  21  ****** ****** ****** ****** ****** ****** ****** ****** ****** ******
      ****** ****** ****** ****** ****** ****** ****** ****** ****** ******
      ****** ****** ****** ****** ****** ****** ****** ****** ****** ******
  22  ****** ****** ****** ****** ****** ****** ****** ****** ****** ******
      ****** ****** ****** ****** ****** ****** ****** ****** ****** ******
      ****** ****** ****** ****** ****** ****** ****** ****** ****** ******
  23  ****** ****** ****** ****** ****** ****** ****** ****** ****** ******
      ****** ****** ****** ****** ****** ****** ****** ****** ****** ******
      ****** ****** ****** ****** ****** ****** ****** ****** ****** ******
  24  ****** ****** ****** ****** ****** ****** ****** ****** ****** ******
      ****** ****** ****** ****** ****** ****** ****** ****** ****** ******
      ****** ****** ****** ****** ****** ****** ****** ****** ****** ******
  25  ****** ****** ****** ****** ****** ****** ****** ****** ****** ******
      ****** ****** ****** ****** ****** ****** ****** ****** ****** ******
      ****** ****** ****** ****** ****** ****** ****** ****** ****** ******

 HEAD WILL BE SAVED ON UNIT   51 AT END OF TIME STEP    1, STRESS PERIOD    9
1
  VOLUMETRIC BUDGET FOR ENTIRE MODEL AT END OF TIME STEP    1, STRESS PERIOD   9
  ------------------------------------------------------------------------------

     CUMULATIVE VOLUMES      L**3       RATES FOR THIS TIME STEP      L**3/T
     ------------------                 ------------------------

           IN:                                      IN:
           ---                                      ---
             STORAGE =    34843440.4999               STORAGE =        7203.6339
       CONSTANT HEAD =    23947048.4833         CONSTANT HEAD =       36413.4650
               WELLS =           0.0000                 WELLS =           0.0000
            RECHARGE =    18878400.0000              RECHARGE =       13800.0000
      STREAM LEAKAGE =     5822470.2723        STREAM LEAKAGE =        8768.8401

            TOTAL IN =    83491359.2555              TOTAL IN =       66185.9390

          OUT:                                     OUT:
          ----                                     ----
             STORAGE =      918866.9502               STORAGE =           0.0000
       CONSTANT HEAD =           0.0000         CONSTANT HEAD =           0.0000
               WELLS =    28125788.8789                 WELLS =       34216.2882
            RECHARGE =           0.0000              RECHARGE =           0.0000
      STREAM LEAKAGE =    54446705.4171        STREAM LEAKAGE =       31969.6516

           TOTAL OUT =    83491361.2461             TOTAL OUT =       66185.9398

            IN - OUT =          -1.9906              IN - OUT =      -7.9795E-04

 PERCENT DISCREPANCY =          -0.00     PERCENT DISCREPANCY =          -0.00






         TIME SUMMARY AT END OF TIME STEP    1 IN STRESS PERIOD    9
                    SECONDS     MINUTES      HOURS       DAYS        YEARS
                    -----------------------------------------------------------
   TIME STEP LENGTH 7.94880E+06 1.32480E+05  2208.0      92.000     0.25188    
 STRESS PERIOD TIME 7.94880E+06 1.32480E+05  2208.0      92.000     0.25188    
         TOTAL TIME 7.10208E+07 1.18368E+06  19728.      822.00      2.2505    
1
1
                            STRESS PERIOD NO.   10, LENGTH =   91.00000    
                            -----------------------------------------------

                              NUMBER OF TIME STEPS =     1

                               MULTIPLIER FOR DELT =     1.500

                            INITIAL TIME STEP SIZE =   91.00000    

 WELL NO.  LAYER   ROW   COL   STRESS RATE         
 --------------------------------------------------
      1      1      9     21      -9430.    
      2      1      5     25      -7885.    
      3      1     22     18      -7019.    
      4      1     19      6      -9882.    

      4 WELLS

                 RECHARGE =  2.000000E-03

 REUSING STREAM SEGMENT DATA FROM LAST STRESS PERIOD
 
 SOLVING FOR HEAD 


     7 CALLS TO PCG ROUTINE FOR TIME STEP   1 IN STRESS PERIOD   10
    26 TOTAL ITERATIONS

 OUTPUT CONTROL FOR STRESS PERIOD   10   TIME STEP    1
    SAVE BUDGET
    SAVE HEAD FOR ALL LAYERS
    PRINT HEAD FOR ALL LAYERS
 UBDSV2 SAVING "STREAMFLOW OUT  " ON UNIT  50 AT TIME STEP  1, STRESS PERIOD  10



 STREAM LISTING     PERIOD     10   STEP        1

 LAYER ROW COL. STREAM  RCH.  FLOW INTO     FLOW TO   FLOW OUT OF   OVRLND.     DIRECT     STREAM       STREAM     STREAM     STREAM   STREAMBED  STREAMBED
                SEG.NO.  NO.  STRM. RCH.    AQUIFER    STRM. RCH.    RUNOFF     PRECIP       ET          HEAD       DEPTH      WIDTH   CONDCTNC.   GRADIENT

   1   13    1     1     1    1.0000E+05 -1.7398E+03   1.0174E+05  0.000E+00  0.000E+00  0.000E+00  4.84068E+01  1.454E-01  2.000E+01  2.000E+04 -8.699E-02
   1   13    2     1     2    1.0174E+05 -2.7466E+03   1.0449E+05  0.000E+00  0.000E+00  0.000E+00  4.79314E+01  1.473E-01  2.000E+01  2.000E+04 -1.373E-01
   1   14    3     1     3    1.0449E+05 -4.6957E+02   1.0496E+05  0.000E+00  0.000E+00  0.000E+00  4.74555E+01  1.487E-01  2.000E+01  2.000E+04 -2.348E-02
   1   15    4     1     4    1.0496E+05 -3.6043E+02   1.0532E+05  0.000E+00  0.000E+00  0.000E+00  4.69786E+01  1.491E-01  2.000E+01  2.000E+04 -1.802E-02
   1   16    5     1     5    1.0532E+05  5.2200E+01   1.0526E+05  0.000E+00  0.000E+00  0.000E+00  4.65015E+01  1.492E-01  2.000E+01  2.000E+04  2.610E-03
   1   16    6     1     6    1.0526E+05  1.3235E+02   1.0513E+05  0.000E+00  0.000E+00  0.000E+00  4.60241E+01  1.491E-01  2.000E+01  2.000E+04  6.617E-03
   1   16    7     1     7    1.0513E+05 -8.0026E+01   1.0521E+05  0.000E+00  0.000E+00  0.000E+00  4.55468E+01  1.491E-01  2.000E+01  2.000E+04 -4.001E-03
   1   16    8     1     8    1.0521E+05 -3.3293E+02   1.0554E+05  0.000E+00  0.000E+00  0.000E+00  4.50697E+01  1.493E-01  2.000E+01  2.000E+04 -1.665E-02
   1   16    9     1     9    1.0554E+05 -5.2503E+02   1.0607E+05  0.000E+00  0.000E+00  0.000E+00  4.45928E+01  1.496E-01  2.000E+01  2.000E+04 -2.625E-02
   1   16   10     1    10    1.0607E+05 -6.4228E+02   1.0671E+05  0.000E+00  0.000E+00  0.000E+00  4.41160E+01  1.501E-01  2.000E+01  2.000E+04 -3.211E-02
   1   16   11     1    11    1.0671E+05 -7.0387E+02   1.0742E+05  0.000E+00  0.000E+00  0.000E+00  4.36393E+01  1.507E-01  2.000E+01  2.000E+04 -3.519E-02
   1   16   12     1    12    1.0742E+05 -1.2846E+03   1.0870E+05  0.000E+00  0.000E+00  0.000E+00  4.31629E+01  1.515E-01  2.000E+01  2.000E+04 -6.423E-02
   1   15   13     1    13    1.0870E+05 -1.4770E+03   1.1018E+05  0.000E+00  0.000E+00  0.000E+00  4.26868E+01  1.527E-01  2.000E+01  2.000E+04 -7.385E-02
   1   14   14     1    14    1.1018E+05 -1.8252E+03   1.1200E+05  0.000E+00  0.000E+00  0.000E+00  4.22109E+01  1.541E-01  2.000E+01  2.000E+04 -9.126E-02
   1   13   15     1    15    1.1200E+05 -2.1331E+03   1.1414E+05  0.000E+00  0.000E+00  0.000E+00  4.17353E+01  1.557E-01  2.000E+01  2.000E+04 -1.067E-01
   1   12   16     1    16    1.1414E+05 -2.5799E+03   1.1672E+05  0.000E+00  0.000E+00  0.000E+00  4.12599E+01  1.577E-01  2.000E+01  2.000E+04 -1.290E-01
   1   12   17     1    17    1.1672E+05 -1.5076E+03   1.1822E+05  0.000E+00  0.000E+00  0.000E+00  4.07843E+01  1.593E-01  2.000E+01  2.000E+04 -7.538E-02
   1   12   18     1    18    1.1822E+05 -1.2330E+03   1.1946E+05  0.000E+00  0.000E+00  0.000E+00  4.03082E+01  1.604E-01  2.000E+01  2.000E+04 -6.165E-02
   1   12   19     1    19    1.1946E+05 -1.0688E+03   1.2053E+05  0.000E+00  0.000E+00  0.000E+00  3.98318E+01  1.614E-01  2.000E+01  2.000E+04 -5.344E-02
   1   13   20     1    20    1.2053E+05 -9.4269E+02   1.2147E+05  0.000E+00  0.000E+00  0.000E+00  3.93554E+01  1.622E-01  2.000E+01  2.000E+04 -4.713E-02
   1   14   21     1    21    1.2147E+05 -1.0782E+03   1.2255E+05  0.000E+00  0.000E+00  0.000E+00  3.88789E+01  1.630E-01  2.000E+01  2.000E+04 -5.391E-02
   1   14   22     1    22    1.2255E+05  5.0026E+03   1.1754E+05  0.000E+00  0.000E+00  0.000E+00  3.84000E+01  1.614E-01  2.000E+01  2.000E+04  2.501E-01
   1    9   30     2     1    5.0000E+04 -3.0273E+02   5.0303E+04  0.000E+00  0.000E+00  0.000E+00  4.02411E+01  1.161E-01  2.000E+01  2.000E+04 -1.514E-02
   1    9   29     2     2    5.0303E+04 -5.3125E+02   5.0834E+04  0.000E+00  0.000E+00  0.000E+00  3.99917E+01  1.167E-01  2.000E+01  2.000E+04 -2.656E-02
   1    9   28     2     3    5.0834E+04 -6.1566E+02   5.1450E+04  0.000E+00  0.000E+00  0.000E+00  3.97424E+01  1.174E-01  2.000E+01  2.000E+04 -3.078E-02
   1    9   27     2     4    5.1450E+04 -9.9925E+02   5.2449E+04  0.000E+00  0.000E+00  0.000E+00  3.94936E+01  1.186E-01  2.000E+01  2.000E+04 -4.996E-02
   1   10   26     2     5    5.2449E+04 -6.1790E+02   5.3067E+04  0.000E+00  0.000E+00  0.000E+00  3.92447E+01  1.197E-01  2.000E+01  2.000E+04 -3.090E-02
   1   11   25     2     6    5.3067E+04 -5.2954E+02   5.3596E+04  0.000E+00  0.000E+00  0.000E+00  3.89954E+01  1.204E-01  2.000E+01  2.000E+04 -2.648E-02
   1   12   24     2     7    5.3596E+04 -5.8348E+02   5.4180E+04  0.000E+00  0.000E+00  0.000E+00  3.87462E+01  1.212E-01  2.000E+01  2.000E+04 -2.917E-02
   1   13   23     2     8    5.4180E+04 -1.7023E+02   5.4350E+04  0.000E+00  0.000E+00  0.000E+00  3.84967E+01  1.217E-01  2.000E+01  2.000E+04 -8.512E-03
   1   14   22     2     9    5.4350E+04  1.9121E+03   5.2438E+04  0.000E+00  0.000E+00  0.000E+00  3.82455E+01  1.205E-01  2.000E+01  2.000E+04  9.561E-02
   1   14   22     3     1    1.6998E+05 -8.5373E+03   1.7852E+05  0.000E+00  0.000E+00  0.000E+00  3.77231E+01  1.675E-01  2.000E+01  2.000E+04 -4.269E-01
   1   15   23     3     2    1.7852E+05 -5.3272E+02   1.7905E+05  0.000E+00  0.000E+00  0.000E+00  3.68368E+01  1.701E-01  2.000E+01  2.000E+04 -2.664E-02
   1   15   24     3     3    1.7905E+05 -3.4068E+02   1.7939E+05  0.000E+00  0.000E+00  0.000E+00  3.59481E+01  1.703E-01  2.000E+01  2.000E+04 -1.703E-02
   1   15   25     3     4    1.7939E+05 -3.4834E+02   1.7974E+05  0.000E+00  0.000E+00  0.000E+00  3.50594E+01  1.705E-01  2.000E+01  2.000E+04 -1.742E-02
   1   15   26     3     5    1.7974E+05 -4.3346E+02   1.8017E+05  0.000E+00  0.000E+00  0.000E+00  3.41708E+01  1.708E-01  2.000E+01  2.000E+04 -2.167E-02
   1   16   27     3     6    1.8017E+05 -4.6862E+02   1.8064E+05  0.000E+00  0.000E+00  0.000E+00  3.32821E+01  1.710E-01  2.000E+01  2.000E+04 -2.343E-02
   1   17   28     3     7    1.8064E+05 -1.7993E+03   1.8244E+05  0.000E+00  0.000E+00  0.000E+00  3.23939E+01  1.717E-01  2.000E+01  2.000E+04 -8.996E-02
   1   18   29     3     8    1.8244E+05 -2.9946E+03   1.8544E+05  0.000E+00  0.000E+00  0.000E+00  3.15064E+01  1.730E-01  2.000E+01  2.000E+04 -1.497E-01
   1   18   30     3     9    1.8544E+05 -3.3041E+03   1.8874E+05  0.000E+00  0.000E+00  0.000E+00  3.06192E+01  1.748E-01  2.000E+01  2.000E+04 -1.652E-01



1
              HEAD IN LAYER   1 AT END OF TIME STEP   1 IN STRESS PERIOD   10
  ---------------------------------------------------------------------------

          1      2      3      4      5      6      7      8      9     10
         11     12     13     14     15     16     17     18     19     20
         21     22     23     24     25     26     27     28     29     30
 .........................................................................
   1  ****** ****** ****** ****** ****** ****** ****** ****** ****** ******
      ****** ****** ****** ****** ****** ****** ****** ****** ****** ******
      ****** ****** ****** ****** ****** ****** ****** ****** ****** ******
   2  ****** ****** ****** ****** ****** ****** ****** ****** ****** ******
      ****** ****** ****** ****** ****** ****** ****** ****** ****** ******
      ****** ****** ****** ****** ****** ****** ****** ****** ****** ******
   3  ****** ****** ****** ****** ****** ****** ****** ****** ****** ******
      ****** ****** ****** ****** ****** ****** ****** ****** ****** ******
      ****** ****** ****** ****** ****** ****** ****** ****** ****** ******
   4  ****** ****** ****** ****** ****** ****** ****** ****** ****** ******
      ****** ****** ****** ****** ****** ****** ****** ****** ****** ******
      ****** ****** ****** ****** ****** ****** ****** ****** ****** ******
   5  ****** ****** ****** ****** ****** ****** ****** ****** ****** ******
      ****** ****** ****** ****** ****** ****** ****** ****** ****** ******
      ****** ****** ****** ****** ****** ****** ****** ****** ****** ******
   6  ****** ****** ****** ****** ****** ****** ****** ****** ****** ******
      ****** ****** ****** ****** ****** ****** ****** ****** ****** ******
      ****** ****** ****** ****** ****** ****** ****** ****** ****** ******
   7  ****** ****** ****** ****** ****** ****** ****** ****** ****** ******
      ****** ****** ****** ****** ****** ****** ****** ****** ****** ******
      ****** ****** ****** ****** ****** ****** ****** ****** ****** ******
   8  ****** ****** ****** ****** ****** ****** ****** ****** ****** ******
      ****** ****** ****** ****** ****** ****** ****** ****** ****** ******
      ****** ****** ****** ****** ****** ****** ****** ****** ****** ******
   9  ****** ****** ****** ****** ****** ****** ****** ****** ****** ******
      ****** ****** ****** ****** ****** ****** ****** ****** ****** ******
      ****** ****** ****** ****** ****** ****** ****** ****** ****** ******
  10  ****** ****** ****** ****** ****** ****** ****** ****** ****** ******
      ****** ****** ****** ****** ****** ****** ****** ****** ****** ******
      ****** ****** ****** ****** ****** ****** ****** ****** ****** ******
  11  ****** ****** ****** ****** ****** ****** ****** ****** ****** ******
      ****** ****** ****** ****** ****** ****** ****** ****** ****** ******
      ****** ****** ****** ****** ****** ****** ****** ****** ****** ******
  12  ****** ****** ****** ****** ****** ****** ****** ****** ****** ******
      ****** ****** ****** ****** ****** ****** ****** ****** ****** ******
      ****** ****** ****** ****** ****** ****** ****** ****** ****** ******
  13  ****** ****** ****** ****** ****** ****** ****** ****** ****** ******
      ****** ****** ****** ****** ****** ****** ****** ****** ****** ******
      ****** ****** ****** ****** ****** ****** ****** ****** ****** ******
  14  ****** ****** ****** ****** ****** ****** ****** ****** ****** ******
      ****** ****** ****** ****** ****** ****** ****** ****** ****** ******
      ****** ****** ****** ****** ****** ****** ****** ****** ****** ******
  15  ****** ****** ****** ****** ****** ****** ****** ****** ****** ******
      ****** ****** ****** ****** ****** ****** ****** ****** ****** ******
      ****** ****** ****** ****** ****** ****** ****** ****** ****** ******
  16  ****** ****** ****** ****** ****** ****** ****** ****** ****** ******
      ****** ****** ****** ****** ****** ****** ****** ****** ****** ******
      ****** ****** ****** ****** ****** ****** ****** ****** ****** ******
  17  ****** ****** ****** ****** ****** ****** ****** ****** ****** ******
      ****** ****** ****** ****** ****** ****** ****** ****** ****** ******
      ****** ****** ****** ****** ****** ****** ****** ****** ****** ******
  18  ****** ****** ****** ****** ****** ****** ****** ****** ****** ******
      ****** ****** ****** ****** ****** ****** ****** ****** ****** ******
      ****** ****** ****** ****** ****** ****** ****** ****** ****** ******
  19  ****** ****** ****** ****** ****** ****** ****** ****** ****** ******
      ****** ****** ****** ****** ****** ****** ****** ****** ****** ******
      ****** ****** ****** ****** ****** ****** ****** ****** ****** ******
  20  ****** ****** ****** ****** ****** ****** ****** ****** ****** ******
      ****** ****** ****** ****** ****** ****** ****** ****** ****** ******
      ****** ****** ****** ****** ****** ****** ****** ****** ****** ******
  21  ****** ****** ****** ****** ****** ****** ****** ****** ****** ******
      ****** ****** ****** ****** ****** ****** ****** ****** ****** ******
      ****** ****** ****** ****** ****** ****** ****** ****** ****** ******
  22  ****** ****** ****** ****** ****** ****** ****** ****** ****** ******
      ****** ****** ****** ****** ****** ****** ****** ****** ****** ******
      ****** ****** ****** ****** ****** ****** ****** ****** ****** ******
  23  ****** ****** ****** ****** ****** ****** ****** ****** ****** ******
      ****** ****** ****** ****** ****** ****** ****** ****** ****** ******
      ****** ****** ****** ****** ****** ****** ****** ****** ****** ******
  24  ****** ****** ****** ****** ****** ****** ****** ****** ****** ******
      ****** ****** ****** ****** ****** ****** ****** ****** ****** ******
      ****** ****** ****** ****** ****** ****** ****** ****** ****** ******
  25  ****** ****** ****** ****** ****** ****** ****** ****** ****** ******
      ****** ****** ****** ****** ****** ****** ****** ****** ****** ******
      ****** ****** ****** ****** ****** ****** ****** ****** ****** ******

 HEAD WILL BE SAVED ON UNIT   51 AT END OF TIME STEP    1, STRESS PERIOD   10
1
  VOLUMETRIC BUDGET FOR ENTIRE MODEL AT END OF TIME STEP    1, STRESS PERIOD  10
  ------------------------------------------------------------------------------

     CUMULATIVE VOLUMES      L**3       RATES FOR THIS TIME STEP      L**3/T
     ------------------                 ------------------------

           IN:                                      IN:
           ---                                      ---
             STORAGE =    34843440.4999               STORAGE =           0.0000
       CONSTANT HEAD =    26992019.4259         CONSTANT HEAD =       33461.2191
               WELLS =           0.0000                 WELLS =           0.0000
            RECHARGE =    23901600.0000              RECHARGE =       55200.0000
      STREAM LEAKAGE =     6468501.1329        STREAM LEAKAGE =        7099.2402

            TOTAL IN =    92205561.0587              TOTAL IN =       95760.4594

          OUT:                                     OUT:
          ----                                     ----
             STORAGE =     2347976.7214               STORAGE =       15704.5030
       CONSTANT HEAD =           0.0000         CONSTANT HEAD =           0.0000
               WELLS =    31239471.1027                 WELLS =       34216.2882
            RECHARGE =           0.0000              RECHARGE =           0.0000
      STREAM LEAKAGE =    58618114.8643        STREAM LEAKAGE =       45839.6643

           TOTAL OUT =    92205562.6884             TOTAL OUT =       95760.4554

            IN - OUT =          -1.6298              IN - OUT =       3.9654E-03

 PERCENT DISCREPANCY =          -0.00     PERCENT DISCREPANCY =           0.00






         TIME SUMMARY AT END OF TIME STEP    1 IN STRESS PERIOD   10
                    SECONDS     MINUTES      HOURS       DAYS        YEARS
                    -----------------------------------------------------------
   TIME STEP LENGTH 7.86240E+06 1.31040E+05  2184.0      91.000     0.24914    
 STRESS PERIOD TIME 7.86240E+06 1.31040E+05  2184.0      91.000     0.24914    
         TOTAL TIME 7.88832E+07 1.31472E+06  21912.      913.00      2.4997    
1
1
                            STRESS PERIOD NO.   11, LENGTH =   91.00000    
                            -----------------------------------------------

                              NUMBER OF TIME STEPS =     1

                               MULTIPLIER FOR DELT =     1.500

                            INITIAL TIME STEP SIZE =   91.00000    

 WELL NO.  LAYER   ROW   COL   STRESS RATE         
 --------------------------------------------------
      1      1      9     21      -9430.    
      2      1      5     25      -7885.    
      3      1     22     18      -7019.    
      4      1     19      6      -9882.    

      4 WELLS

                 RECHARGE =   0.00000    

 REUSING STREAM SEGMENT DATA FROM LAST STRESS PERIOD
 
 SOLVING FOR HEAD 


     7 CALLS TO PCG ROUTINE FOR TIME STEP   1 IN STRESS PERIOD   11
    26 TOTAL ITERATIONS

 OUTPUT CONTROL FOR STRESS PERIOD   11   TIME STEP    1
    SAVE BUDGET
    SAVE HEAD FOR ALL LAYERS
    PRINT HEAD FOR ALL LAYERS
 UBDSV2 SAVING "STREAMFLOW OUT  " ON UNIT  50 AT TIME STEP  1, STRESS PERIOD  11



 STREAM LISTING     PERIOD     11   STEP        1

 LAYER ROW COL. STREAM  RCH.  FLOW INTO     FLOW TO   FLOW OUT OF   OVRLND.     DIRECT     STREAM       STREAM     STREAM     STREAM   STREAMBED  STREAMBED
                SEG.NO.  NO.  STRM. RCH.    AQUIFER    STRM. RCH.    RUNOFF     PRECIP       ET          HEAD       DEPTH      WIDTH   CONDCTNC.   GRADIENT

   1   13    1     1     1    1.0000E+05 -1.1725E+03   1.0117E+05  0.000E+00  0.000E+00  0.000E+00  4.84065E+01  1.452E-01  2.000E+01  2.000E+04 -5.863E-02
   1   13    2     1     2    1.0117E+05 -2.1149E+03   1.0329E+05  0.000E+00  0.000E+00  0.000E+00  4.79307E+01  1.466E-01  2.000E+01  2.000E+04 -1.057E-01
   1   14    3     1     3    1.0329E+05 -2.3874E+02   1.0353E+05  0.000E+00  0.000E+00  0.000E+00  4.74544E+01  1.476E-01  2.000E+01  2.000E+04 -1.194E-02
   1   15    4     1     4    1.0353E+05 -1.1854E+02   1.0364E+05  0.000E+00  0.000E+00  0.000E+00  4.69773E+01  1.477E-01  2.000E+01  2.000E+04 -5.927E-03
   1   16    5     1     5    1.0364E+05  7.4051E+02   1.0290E+05  0.000E+00  0.000E+00  0.000E+00  4.64997E+01  1.475E-01  2.000E+01  2.000E+04  3.703E-02
   1   16    6     1     6    1.0290E+05  5.4681E+02   1.0236E+05  0.000E+00  0.000E+00  0.000E+00  4.60219E+01  1.469E-01  2.000E+01  2.000E+04  2.734E-02
   1   16    7     1     7    1.0236E+05  3.1680E+02   1.0204E+05  0.000E+00  0.000E+00  0.000E+00  4.55443E+01  1.466E-01  2.000E+01  2.000E+04  1.584E-02
   1   16    8     1     8    1.0204E+05  5.8363E+01   1.0198E+05  0.000E+00  0.000E+00  0.000E+00  4.50668E+01  1.464E-01  2.000E+01  2.000E+04  2.918E-03
   1   16    9     1     9    1.0198E+05 -1.3596E+02   1.0212E+05  0.000E+00  0.000E+00  0.000E+00  4.45896E+01  1.464E-01  2.000E+01  2.000E+04 -6.798E-03
   1   16   10     1    10    1.0212E+05 -2.5427E+02   1.0237E+05  0.000E+00  0.000E+00  0.000E+00  4.41125E+01  1.466E-01  2.000E+01  2.000E+04 -1.271E-02
   1   16   11     1    11    1.0237E+05 -3.1400E+02   1.0269E+05  0.000E+00  0.000E+00  0.000E+00  4.36355E+01  1.468E-01  2.000E+01  2.000E+04 -1.570E-02
   1   16   12     1    12    1.0269E+05 -6.3861E+02   1.0333E+05  0.000E+00  0.000E+00  0.000E+00  4.31586E+01  1.472E-01  2.000E+01  2.000E+04 -3.193E-02
   1   15   13     1    13    1.0333E+05 -7.8837E+02   1.0411E+05  0.000E+00  0.000E+00  0.000E+00  4.26819E+01  1.479E-01  2.000E+01  2.000E+04 -3.942E-02
   1   14   14     1    14    1.0411E+05 -1.1190E+03   1.0523E+05  0.000E+00  0.000E+00  0.000E+00  4.22055E+01  1.487E-01  2.000E+01  2.000E+04 -5.595E-02
   1   13   15     1    15    1.0523E+05 -1.4326E+03   1.0667E+05  0.000E+00  0.000E+00  0.000E+00  4.17293E+01  1.498E-01  2.000E+01  2.000E+04 -7.163E-02
   1   12   16     1    16    1.0667E+05 -1.9030E+03   1.0857E+05  0.000E+00  0.000E+00  0.000E+00  4.12534E+01  1.512E-01  2.000E+01  2.000E+04 -9.515E-02
   1   12   17     1    17    1.0857E+05 -1.0010E+03   1.0957E+05  0.000E+00  0.000E+00  0.000E+00  4.07774E+01  1.524E-01  2.000E+01  2.000E+04 -5.005E-02
   1   12   18     1    18    1.0957E+05 -7.3406E+02   1.1030E+05  0.000E+00  0.000E+00  0.000E+00  4.03008E+01  1.531E-01  2.000E+01  2.000E+04 -3.670E-02
   1   12   19     1    19    1.1030E+05 -4.5626E+02   1.1076E+05  0.000E+00  0.000E+00  0.000E+00  3.98241E+01  1.536E-01  2.000E+01  2.000E+04 -2.281E-02
   1   13   20     1    20    1.1076E+05 -3.3033E+02   1.1109E+05  0.000E+00  0.000E+00  0.000E+00  3.93471E+01  1.539E-01  2.000E+01  2.000E+04 -1.652E-02
   1   14   21     1    21    1.1109E+05 -4.8107E+02   1.1157E+05  0.000E+00  0.000E+00  0.000E+00  3.88702E+01  1.543E-01  2.000E+01  2.000E+04 -2.405E-02
   1   14   22     1    22    1.1157E+05  5.1491E+03   1.0642E+05  0.000E+00  0.000E+00  0.000E+00  3.83910E+01  1.523E-01  2.000E+01  2.000E+04  2.575E-01
   1    9   30     2     1    5.0000E+04  1.8534E+02   4.9815E+04  0.000E+00  0.000E+00  0.000E+00  4.02407E+01  1.157E-01  2.000E+01  2.000E+04  9.267E-03
   1    9   29     2     2    4.9815E+04 -4.6230E+01   4.9861E+04  0.000E+00  0.000E+00  0.000E+00  3.99906E+01  1.156E-01  2.000E+01  2.000E+04 -2.311E-03
   1    9   28     2     3    4.9861E+04 -1.3283E+02   4.9994E+04  0.000E+00  0.000E+00  0.000E+00  3.97408E+01  1.158E-01  2.000E+01  2.000E+04 -6.642E-03
   1    9   27     2     4    4.9994E+04 -3.5953E+02   5.0353E+04  0.000E+00  0.000E+00  0.000E+00  3.94911E+01  1.161E-01  2.000E+01  2.000E+04 -1.798E-02
   1   10   26     2     5    5.0353E+04  3.6189E+01   5.0317E+04  0.000E+00  0.000E+00  0.000E+00  3.92413E+01  1.163E-01  2.000E+01  2.000E+04  1.809E-03
   1   11   25     2     6    5.0317E+04  1.0072E+02   5.0216E+04  0.000E+00  0.000E+00  0.000E+00  3.89912E+01  1.162E-01  2.000E+01  2.000E+04  5.036E-03
   1   12   24     2     7    5.0216E+04 -1.0259E+01   5.0227E+04  0.000E+00  0.000E+00  0.000E+00  3.87412E+01  1.162E-01  2.000E+01  2.000E+04 -5.129E-04
   1   13   23     2     8    5.0227E+04  1.5602E+01   5.0211E+04  0.000E+00  0.000E+00  0.000E+00  3.84912E+01  1.162E-01  2.000E+01  2.000E+04  7.801E-04
   1   14   22     2     9    5.0211E+04  2.1235E+03   4.8088E+04  0.000E+00  0.000E+00  0.000E+00  3.82397E+01  1.147E-01  2.000E+01  2.000E+04  1.062E-01
   1   14   22     3     1    1.5451E+05 -8.3917E+03   1.6290E+05  0.000E+00  0.000E+00  0.000E+00  3.77139E+01  1.584E-01  2.000E+01  2.000E+04 -4.196E-01
   1   15   23     3     2    1.6290E+05 -3.4062E+02   1.6324E+05  0.000E+00  0.000E+00  0.000E+00  3.68276E+01  1.610E-01  2.000E+01  2.000E+04 -1.703E-02
   1   15   24     3     3    1.6324E+05 -1.7553E+02   1.6342E+05  0.000E+00  0.000E+00  0.000E+00  3.59389E+01  1.611E-01  2.000E+01  2.000E+04 -8.776E-03
   1   15   25     3     4    1.6342E+05 -1.7936E+02   1.6360E+05  0.000E+00  0.000E+00  0.000E+00  3.50501E+01  1.612E-01  2.000E+01  2.000E+04 -8.968E-03
   1   15   26     3     5    1.6360E+05 -2.3777E+02   1.6383E+05  0.000E+00  0.000E+00  0.000E+00  3.41613E+01  1.613E-01  2.000E+01  2.000E+04 -1.189E-02
   1   16   27     3     6    1.6383E+05 -2.4560E+02   1.6408E+05  0.000E+00  0.000E+00  0.000E+00  3.32726E+01  1.615E-01  2.000E+01  2.000E+04 -1.228E-02
   1   17   28     3     7    1.6408E+05 -1.1895E+03   1.6527E+05  0.000E+00  0.000E+00  0.000E+00  3.23841E+01  1.619E-01  2.000E+01  2.000E+04 -5.947E-02
   1   18   29     3     8    1.6527E+05 -2.3725E+03   1.6764E+05  0.000E+00  0.000E+00  0.000E+00  3.14963E+01  1.630E-01  2.000E+01  2.000E+04 -1.186E-01
   1   18   30     3     9    1.6764E+05 -2.8148E+03   1.7046E+05  0.000E+00  0.000E+00  0.000E+00  3.06089E+01  1.645E-01  2.000E+01  2.000E+04 -1.407E-01



1
              HEAD IN LAYER   1 AT END OF TIME STEP   1 IN STRESS PERIOD   11
  ---------------------------------------------------------------------------

          1      2      3      4      5      6      7      8      9     10
         11     12     13     14     15     16     17     18     19     20
         21     22     23     24     25     26     27     28     29     30
 .........................................................................
   1  ****** ****** ****** ****** ****** ****** ****** ****** ****** ******
      ****** ****** ****** ****** ****** ****** ****** ****** ****** ******
      ****** ****** ****** ****** ****** ****** ****** ****** ****** ******
   2  ****** ****** ****** ****** ****** ****** ****** ****** ****** ******
      ****** ****** ****** ****** ****** ****** ****** ****** ****** ******
      ****** ****** ****** ****** ****** ****** ****** ****** ****** ******
   3  ****** ****** ****** ****** ****** ****** ****** ****** ****** ******
      ****** ****** ****** ****** ****** ****** ****** ****** ****** ******
      ****** ****** ****** ****** ****** ****** ****** ****** ****** ******
   4  ****** ****** ****** ****** ****** ****** ****** ****** ****** ******
      ****** ****** ****** ****** ****** ****** ****** ****** ****** ******
      ****** ****** ****** ****** ****** ****** ****** ****** ****** ******
   5  ****** ****** ****** ****** ****** ****** ****** ****** ****** ******
      ****** ****** ****** ****** ****** ****** ****** ****** ****** ******
      ****** ****** ****** ****** ****** ****** ****** ****** ****** ******
   6  ****** ****** ****** ****** ****** ****** ****** ****** ****** ******
      ****** ****** ****** ****** ****** ****** ****** ****** ****** ******
      ****** ****** ****** ****** ****** ****** ****** ****** ****** ******
   7  ****** ****** ****** ****** ****** ****** ****** ****** ****** ******
      ****** ****** ****** ****** ****** ****** ****** ****** ****** ******
      ****** ****** ****** ****** ****** ****** ****** ****** ****** ******
   8  ****** ****** ****** ****** ****** ****** ****** ****** ****** ******
      ****** ****** ****** ****** ****** ****** ****** ****** ****** ******
      ****** ****** ****** ****** ****** ****** ****** ****** ****** ******
   9  ****** ****** ****** ****** ****** ****** ****** ****** ****** ******
      ****** ****** ****** ****** ****** ****** ****** ****** ****** ******
      ****** ****** ****** ****** ****** ****** ****** ****** ****** ******
  10  ****** ****** ****** ****** ****** ****** ****** ****** ****** ******
      ****** ****** ****** ****** ****** ****** ****** ****** ****** ******
      ****** ****** ****** ****** ****** ****** ****** ****** ****** ******
  11  ****** ****** ****** ****** ****** ****** ****** ****** ****** ******
      ****** ****** ****** ****** ****** ****** ****** ****** ****** ******
      ****** ****** ****** ****** ****** ****** ****** ****** ****** ******
  12  ****** ****** ****** ****** ****** ****** ****** ****** ****** ******
      ****** ****** ****** ****** ****** ****** ****** ****** ****** ******
      ****** ****** ****** ****** ****** ****** ****** ****** ****** ******
  13  ****** ****** ****** ****** ****** ****** ****** ****** ****** ******
      ****** ****** ****** ****** ****** ****** ****** ****** ****** ******
      ****** ****** ****** ****** ****** ****** ****** ****** ****** ******
  14  ****** ****** ****** ****** ****** ****** ****** ****** ****** ******
      ****** ****** ****** ****** ****** ****** ****** ****** ****** ******
      ****** ****** ****** ****** ****** ****** ****** ****** ****** ******
  15  ****** ****** ****** ****** ****** ****** ****** ****** ****** ******
      ****** ****** ****** ****** ****** ****** ****** ****** ****** ******
      ****** ****** ****** ****** ****** ****** ****** ****** ****** ******
  16  ****** ****** ****** ****** ****** ****** ****** ****** ****** ******
      ****** ****** ****** ****** ****** ****** ****** ****** ****** ******
      ****** ****** ****** ****** ****** ****** ****** ****** ****** ******
  17  ****** ****** ****** ****** ****** ****** ****** ****** ****** ******
      ****** ****** ****** ****** ****** ****** ****** ****** ****** ******
      ****** ****** ****** ****** ****** ****** ****** ****** ****** ******
  18  ****** ****** ****** ****** ****** ****** ****** ****** ****** ******
      ****** ****** ****** ****** ****** ****** ****** ****** ****** ******
      ****** ****** ****** ****** ****** ****** ****** ****** ****** ******
  19  ****** ****** ****** ****** ****** ****** ****** ****** ****** ******
      ****** ****** ****** ****** ****** ****** ****** ****** ****** ******
      ****** ****** ****** ****** ****** ****** ****** ****** ****** ******
  20  ****** ****** ****** ****** ****** ****** ****** ****** ****** ******
      ****** ****** ****** ****** ****** ****** ****** ****** ****** ******
      ****** ****** ****** ****** ****** ****** ****** ****** ****** ******
  21  ****** ****** ****** ****** ****** ****** ****** ****** ****** ******
      ****** ****** ****** ****** ****** ****** ****** ****** ****** ******
      ****** ****** ****** ****** ****** ****** ****** ****** ****** ******
  22  ****** ****** ****** ****** ****** ****** ****** ****** ****** ******
      ****** ****** ****** ****** ****** ****** ****** ****** ****** ******
      ****** ****** ****** ****** ****** ****** ****** ****** ****** ******
  23  ****** ****** ****** ****** ****** ****** ****** ****** ****** ******
      ****** ****** ****** ****** ****** ****** ****** ****** ****** ******
      ****** ****** ****** ****** ****** ****** ****** ****** ****** ******
  24  ****** ****** ****** ****** ****** ****** ****** ****** ****** ******
      ****** ****** ****** ****** ****** ****** ****** ****** ****** ******
      ****** ****** ****** ****** ****** ****** ****** ****** ****** ******
  25  ****** ****** ****** ****** ****** ****** ****** ****** ****** ******
      ****** ****** ****** ****** ****** ****** ****** ****** ****** ******
      ****** ****** ****** ****** ****** ****** ****** ****** ****** ******

 HEAD WILL BE SAVED ON UNIT   51 AT END OF TIME STEP    1, STRESS PERIOD   11
1
  VOLUMETRIC BUDGET FOR ENTIRE MODEL AT END OF TIME STEP    1, STRESS PERIOD  11
  ------------------------------------------------------------------------------

     CUMULATIVE VOLUMES      L**3       RATES FOR THIS TIME STEP      L**3/T
     ------------------                 ------------------------

           IN:                                      IN:
           ---                                      ---
             STORAGE =    36474726.4203               STORAGE =       17926.2189
       CONSTANT HEAD =    30335960.4862         CONSTANT HEAD =       36746.6051
               WELLS =           0.0000                 WELLS =           0.0000
            RECHARGE =    23901600.0000              RECHARGE =           0.0000
      STREAM LEAKAGE =     7312340.4865        STREAM LEAKAGE =        9272.9599

            TOTAL IN =    98024627.3930              TOTAL IN =       63945.7839

          OUT:                                     OUT:
          ----                                     ----
             STORAGE =     2347976.7214               STORAGE =           0.0000
       CONSTANT HEAD =           0.0000         CONSTANT HEAD =           0.0000
               WELLS =    34353153.3265                 WELLS =       34216.2882
            RECHARGE =           0.0000              RECHARGE =           0.0000
      STREAM LEAKAGE =    61323499.4378        STREAM LEAKAGE =       29729.5008

           TOTAL OUT =    98024629.4857             TOTAL OUT =       63945.7890

            IN - OUT =          -2.0927              IN - OUT =      -5.0877E-03

 PERCENT DISCREPANCY =          -0.00     PERCENT DISCREPANCY =          -0.00






         TIME SUMMARY AT END OF TIME STEP    1 IN STRESS PERIOD   11
                    SECONDS     MINUTES      HOURS       DAYS        YEARS
                    -----------------------------------------------------------
   TIME STEP LENGTH 7.86240E+06 1.31040E+05  2184.0      91.000     0.24914    
 STRESS PERIOD TIME 7.86240E+06 1.31040E+05  2184.0      91.000     0.24914    
         TOTAL TIME 8.67456E+07 1.44576E+06  24096.      1004.0      2.7488    
1
1
                            STRESS PERIOD NO.   12, LENGTH =   91.00000    
                            -----------------------------------------------

                              NUMBER OF TIME STEPS =     1

                               MULTIPLIER FOR DELT =     1.500

                            INITIAL TIME STEP SIZE =   91.00000    

 WELL NO.  LAYER   ROW   COL   STRESS RATE         
 --------------------------------------------------
      1      1      9     21      -9430.    
      2      1      5     25      -7885.    
      3      1     22     18      -7019.    
      4      1     19      6      -9882.    

      4 WELLS

                 RECHARGE =  1.000000E-03

 REUSING STREAM SEGMENT DATA FROM LAST STRESS PERIOD
 
 SOLVING FOR HEAD 


     7 CALLS TO PCG ROUTINE FOR TIME STEP   1 IN STRESS PERIOD   12
    24 TOTAL ITERATIONS

 OUTPUT CONTROL FOR STRESS PERIOD   12   TIME STEP    1
    SAVE BUDGET
    SAVE HEAD FOR ALL LAYERS
    PRINT HEAD FOR ALL LAYERS
 UBDSV2 SAVING "STREAMFLOW OUT  " ON UNIT  50 AT TIME STEP  1, STRESS PERIOD  12



 STREAM LISTING     PERIOD     12   STEP        1

 LAYER ROW COL. STREAM  RCH.  FLOW INTO     FLOW TO   FLOW OUT OF   OVRLND.     DIRECT     STREAM       STREAM     STREAM     STREAM   STREAMBED  STREAMBED
                SEG.NO.  NO.  STRM. RCH.    AQUIFER    STRM. RCH.    RUNOFF     PRECIP       ET          HEAD       DEPTH      WIDTH   CONDCTNC.   GRADIENT

   1   13    1     1     1    1.0000E+05 -1.3171E+03   1.0132E+05  0.000E+00  0.000E+00  0.000E+00  4.84066E+01  1.452E-01  2.000E+01  2.000E+04 -6.586E-02
   1   13    2     1     2    1.0132E+05 -2.2704E+03   1.0359E+05  0.000E+00  0.000E+00  0.000E+00  4.79309E+01  1.468E-01  2.000E+01  2.000E+04 -1.135E-01
   1   14    3     1     3    1.0359E+05 -3.1735E+02   1.0390E+05  0.000E+00  0.000E+00  0.000E+00  4.74547E+01  1.479E-01  2.000E+01  2.000E+04 -1.587E-02
   1   15    4     1     4    1.0390E+05 -2.0093E+02   1.0411E+05  0.000E+00  0.000E+00  0.000E+00  4.69776E+01  1.481E-01  2.000E+01  2.000E+04 -1.005E-02
   1   16    5     1     5    1.0411E+05  5.3096E+02   1.0357E+05  0.000E+00  0.000E+00  0.000E+00  4.65002E+01  1.480E-01  2.000E+01  2.000E+04  2.655E-02
   1   16    6     1     6    1.0357E+05  4.1643E+02   1.0316E+05  0.000E+00  0.000E+00  0.000E+00  4.60226E+01  1.476E-01  2.000E+01  2.000E+04  2.082E-02
   1   16    7     1     7    1.0316E+05  1.9147E+02   1.0297E+05  0.000E+00  0.000E+00  0.000E+00  4.55450E+01  1.473E-01  2.000E+01  2.000E+04  9.574E-03
   1   16    8     1     8    1.0297E+05 -6.5914E+01   1.0303E+05  0.000E+00  0.000E+00  0.000E+00  4.50677E+01  1.472E-01  2.000E+01  2.000E+04 -3.296E-03
   1   16    9     1     9    1.0303E+05 -2.6065E+02   1.0329E+05  0.000E+00  0.000E+00  0.000E+00  4.45906E+01  1.474E-01  2.000E+01  2.000E+04 -1.303E-02
   1   16   10     1    10    1.0329E+05 -3.8026E+02   1.0367E+05  0.000E+00  0.000E+00  0.000E+00  4.41136E+01  1.477E-01  2.000E+01  2.000E+04 -1.901E-02
   1   16   11     1    11    1.0367E+05 -4.4218E+02   1.0412E+05  0.000E+00  0.000E+00  0.000E+00  4.36366E+01  1.480E-01  2.000E+01  2.000E+04 -2.211E-02
   1   16   12     1    12    1.0412E+05 -8.4011E+02   1.0496E+05  0.000E+00  0.000E+00  0.000E+00  4.31599E+01  1.486E-01  2.000E+01  2.000E+04 -4.201E-02
   1   15   13     1    13    1.0496E+05 -1.0053E+03   1.0596E+05  0.000E+00  0.000E+00  0.000E+00  4.26834E+01  1.493E-01  2.000E+01  2.000E+04 -5.026E-02
   1   14   14     1    14    1.0596E+05 -1.3366E+03   1.0730E+05  0.000E+00  0.000E+00  0.000E+00  4.22072E+01  1.503E-01  2.000E+01  2.000E+04 -6.683E-02
   1   13   15     1    15    1.0730E+05 -1.6430E+03   1.0894E+05  0.000E+00  0.000E+00  0.000E+00  4.17311E+01  1.516E-01  2.000E+01  2.000E+04 -8.215E-02
   1   12   16     1    16    1.0894E+05 -2.0871E+03   1.1103E+05  0.000E+00  0.000E+00  0.000E+00  4.12554E+01  1.532E-01  2.000E+01  2.000E+04 -1.044E-01
   1   12   17     1    17    1.1103E+05 -1.1547E+03   1.1218E+05  0.000E+00  0.000E+00  0.000E+00  4.07795E+01  1.545E-01  2.000E+01  2.000E+04 -5.774E-02
   1   12   18     1    18    1.1218E+05 -8.8990E+02   1.1307E+05  0.000E+00  0.000E+00  0.000E+00  4.03031E+01  1.554E-01  2.000E+01  2.000E+04 -4.450E-02
   1   12   19     1    19    1.1307E+05 -6.4895E+02   1.1372E+05  0.000E+00  0.000E+00  0.000E+00  3.98264E+01  1.560E-01  2.000E+01  2.000E+04 -3.245E-02
   1   13   20     1    20    1.1372E+05 -5.4070E+02   1.1426E+05  0.000E+00  0.000E+00  0.000E+00  3.93497E+01  1.565E-01  2.000E+01  2.000E+04 -2.703E-02
   1   14   21     1    21    1.1426E+05 -6.7498E+02   1.1494E+05  0.000E+00  0.000E+00  0.000E+00  3.88729E+01  1.570E-01  2.000E+01  2.000E+04 -3.375E-02
   1   14   22     1    22    1.1494E+05  5.0961E+03   1.0984E+05  0.000E+00  0.000E+00  0.000E+00  3.83938E+01  1.552E-01  2.000E+01  2.000E+04  2.548E-01
   1    9   30     2     1    5.0000E+04  8.9078E+00   4.9991E+04  0.000E+00  0.000E+00  0.000E+00  4.02409E+01  1.159E-01  2.000E+01  2.000E+04  4.454E-04
   1    9   29     2     2    4.9991E+04 -2.2062E+02   5.0212E+04  0.000E+00  0.000E+00  0.000E+00  3.99910E+01  1.160E-01  2.000E+01  2.000E+04 -1.103E-02
   1    9   28     2     3    5.0212E+04 -3.0372E+02   5.0515E+04  0.000E+00  0.000E+00  0.000E+00  3.97414E+01  1.164E-01  2.000E+01  2.000E+04 -1.519E-02
   1    9   27     2     4    5.0515E+04 -5.6877E+02   5.1084E+04  0.000E+00  0.000E+00  0.000E+00  3.94920E+01  1.170E-01  2.000E+01  2.000E+04 -2.844E-02
   1   10   26     2     5    5.1084E+04 -1.9371E+02   5.1278E+04  0.000E+00  0.000E+00  0.000E+00  3.92425E+01  1.175E-01  2.000E+01  2.000E+04 -9.686E-03
   1   11   25     2     6    5.1278E+04 -1.2529E+02   5.1403E+04  0.000E+00  0.000E+00  0.000E+00  3.89927E+01  1.177E-01  2.000E+01  2.000E+04 -6.264E-03
   1   12   24     2     7    5.1403E+04 -2.1654E+02   5.1620E+04  0.000E+00  0.000E+00  0.000E+00  3.87430E+01  1.180E-01  2.000E+01  2.000E+04 -1.083E-02
   1   13   23     2     8    5.1620E+04 -6.2041E+01   5.1682E+04  0.000E+00  0.000E+00  0.000E+00  3.84931E+01  1.181E-01  2.000E+01  2.000E+04 -3.102E-03
   1   14   22     2     9    5.1682E+04  2.0558E+03   4.9626E+04  0.000E+00  0.000E+00  0.000E+00  3.82418E+01  1.168E-01  2.000E+01  2.000E+04  1.028E-01
   1   14   22     3     1    1.5947E+05 -8.4420E+03   1.6791E+05  0.000E+00  0.000E+00  0.000E+00  3.77169E+01  1.613E-01  2.000E+01  2.000E+04 -4.221E-01
   1   15   23     3     2    1.6791E+05 -4.1260E+02   1.6832E+05  0.000E+00  0.000E+00  0.000E+00  3.68306E+01  1.639E-01  2.000E+01  2.000E+04 -2.063E-02
   1   15   24     3     3    1.6832E+05 -2.4058E+02   1.6856E+05  0.000E+00  0.000E+00  0.000E+00  3.59419E+01  1.641E-01  2.000E+01  2.000E+04 -1.203E-02
   1   15   25     3     4    1.6856E+05 -2.4569E+02   1.6881E+05  0.000E+00  0.000E+00  0.000E+00  3.50532E+01  1.643E-01  2.000E+01  2.000E+04 -1.228E-02
   1   15   26     3     5    1.6881E+05 -3.1523E+02   1.6912E+05  0.000E+00  0.000E+00  0.000E+00  3.41644E+01  1.644E-01  2.000E+01  2.000E+04 -1.576E-02
   1   16   27     3     6    1.6912E+05 -3.3235E+02   1.6946E+05  0.000E+00  0.000E+00  0.000E+00  3.32757E+01  1.646E-01  2.000E+01  2.000E+04 -1.662E-02
   1   17   28     3     7    1.6946E+05 -1.4101E+03   1.7087E+05  0.000E+00  0.000E+00  0.000E+00  3.23873E+01  1.651E-01  2.000E+01  2.000E+04 -7.050E-02
   1   18   29     3     8    1.7087E+05 -2.5729E+03   1.7344E+05  0.000E+00  0.000E+00  0.000E+00  3.14996E+01  1.663E-01  2.000E+01  2.000E+04 -1.286E-01
   1   18   30     3     9    1.7344E+05 -2.9828E+03   1.7642E+05  0.000E+00  0.000E+00  0.000E+00  3.06123E+01  1.679E-01  2.000E+01  2.000E+04 -1.491E-01



1
              HEAD IN LAYER   1 AT END OF TIME STEP   1 IN STRESS PERIOD   12
  ---------------------------------------------------------------------------

          1      2      3      4      5      6      7      8      9     10
         11     12     13     14     15     16     17     18     19     20
         21     22     23     24     25     26     27     28     29     30
 .........................................................................
   1  ****** ****** ****** ****** ****** ****** ****** ****** ****** ******
      ****** ****** ****** ****** ****** ****** ****** ****** ****** ******
      ****** ****** ****** ****** ****** ****** ****** ****** ****** ******
   2  ****** ****** ****** ****** ****** ****** ****** ****** ****** ******
      ****** ****** ****** ****** ****** ****** ****** ****** ****** ******
      ****** ****** ****** ****** ****** ****** ****** ****** ****** ******
   3  ****** ****** ****** ****** ****** ****** ****** ****** ****** ******
      ****** ****** ****** ****** ****** ****** ****** ****** ****** ******
      ****** ****** ****** ****** ****** ****** ****** ****** ****** ******
   4  ****** ****** ****** ****** ****** ****** ****** ****** ****** ******
      ****** ****** ****** ****** ****** ****** ****** ****** ****** ******
      ****** ****** ****** ****** ****** ****** ****** ****** ****** ******
   5  ****** ****** ****** ****** ****** ****** ****** ****** ****** ******
      ****** ****** ****** ****** ****** ****** ****** ****** ****** ******
      ****** ****** ****** ****** ****** ****** ****** ****** ****** ******
   6  ****** ****** ****** ****** ****** ****** ****** ****** ****** ******
      ****** ****** ****** ****** ****** ****** ****** ****** ****** ******
      ****** ****** ****** ****** ****** ****** ****** ****** ****** ******
   7  ****** ****** ****** ****** ****** ****** ****** ****** ****** ******
      ****** ****** ****** ****** ****** ****** ****** ****** ****** ******
      ****** ****** ****** ****** ****** ****** ****** ****** ****** ******
   8  ****** ****** ****** ****** ****** ****** ****** ****** ****** ******
      ****** ****** ****** ****** ****** ****** ****** ****** ****** ******
      ****** ****** ****** ****** ****** ****** ****** ****** ****** ******
   9  ****** ****** ****** ****** ****** ****** ****** ****** ****** ******
      ****** ****** ****** ****** ****** ****** ****** ****** ****** ******
      ****** ****** ****** ****** ****** ****** ****** ****** ****** ******
  10  ****** ****** ****** ****** ****** ****** ****** ****** ****** ******
      ****** ****** ****** ****** ****** ****** ****** ****** ****** ******
      ****** ****** ****** ****** ****** ****** ****** ****** ****** ******
  11  ****** ****** ****** ****** ****** ****** ****** ****** ****** ******
      ****** ****** ****** ****** ****** ****** ****** ****** ****** ******
      ****** ****** ****** ****** ****** ****** ****** ****** ****** ******
  12  ****** ****** ****** ****** ****** ****** ****** ****** ****** ******
      ****** ****** ****** ****** ****** ****** ****** ****** ****** ******
      ****** ****** ****** ****** ****** ****** ****** ****** ****** ******
  13  ****** ****** ****** ****** ****** ****** ****** ****** ****** ******
      ****** ****** ****** ****** ****** ****** ****** ****** ****** ******
      ****** ****** ****** ****** ****** ****** ****** ****** ****** ******
  14  ****** ****** ****** ****** ****** ****** ****** ****** ****** ******
      ****** ****** ****** ****** ****** ****** ****** ****** ****** ******
      ****** ****** ****** ****** ****** ****** ****** ****** ****** ******
  15  ****** ****** ****** ****** ****** ****** ****** ****** ****** ******
      ****** ****** ****** ****** ****** ****** ****** ****** ****** ******
      ****** ****** ****** ****** ****** ****** ****** ****** ****** ******
  16  ****** ****** ****** ****** ****** ****** ****** ****** ****** ******
      ****** ****** ****** ****** ****** ****** ****** ****** ****** ******
      ****** ****** ****** ****** ****** ****** ****** ****** ****** ******
  17  ****** ****** ****** ****** ****** ****** ****** ****** ****** ******
      ****** ****** ****** ****** ****** ****** ****** ****** ****** ******
      ****** ****** ****** ****** ****** ****** ****** ****** ****** ******
  18  ****** ****** ****** ****** ****** ****** ****** ****** ****** ******
      ****** ****** ****** ****** ****** ****** ****** ****** ****** ******
      ****** ****** ****** ****** ****** ****** ****** ****** ****** ******
  19  ****** ****** ****** ****** ****** ****** ****** ****** ****** ******
      ****** ****** ****** ****** ****** ****** ****** ****** ****** ******
      ****** ****** ****** ****** ****** ****** ****** ****** ****** ******
  20  ****** ****** ****** ****** ****** ****** ****** ****** ****** ******
      ****** ****** ****** ****** ****** ****** ****** ****** ****** ******
      ****** ****** ****** ****** ****** ****** ****** ****** ****** ******
  21  ****** ****** ****** ****** ****** ****** ****** ****** ****** ******
      ****** ****** ****** ****** ****** ****** ****** ****** ****** ******
      ****** ****** ****** ****** ****** ****** ****** ****** ****** ******
  22  ****** ****** ****** ****** ****** ****** ****** ****** ****** ******
      ****** ****** ****** ****** ****** ****** ****** ****** ****** ******
      ****** ****** ****** ****** ****** ****** ****** ****** ****** ******
  23  ****** ****** ****** ****** ****** ****** ****** ****** ****** ******
      ****** ****** ****** ****** ****** ****** ****** ****** ****** ******
      ****** ****** ****** ****** ****** ****** ****** ****** ****** ******
  24  ****** ****** ****** ****** ****** ****** ****** ****** ****** ******
      ****** ****** ****** ****** ****** ****** ****** ****** ****** ******
      ****** ****** ****** ****** ****** ****** ****** ****** ****** ******
  25  ****** ****** ****** ****** ****** ****** ****** ****** ****** ******
      ****** ****** ****** ****** ****** ****** ****** ****** ****** ******
      ****** ****** ****** ****** ****** ****** ****** ****** ****** ******

 HEAD WILL BE SAVED ON UNIT   51 AT END OF TIME STEP    1, STRESS PERIOD   12
1
  VOLUMETRIC BUDGET FOR ENTIRE MODEL AT END OF TIME STEP    1, STRESS PERIOD  12
  ------------------------------------------------------------------------------

     CUMULATIVE VOLUMES      L**3       RATES FOR THIS TIME STEP      L**3/T
     ------------------                 ------------------------

           IN:                                      IN:
           ---                                      ---
             STORAGE =    36475566.4837               STORAGE =           9.2315
       CONSTANT HEAD =    33616491.0031         CONSTANT HEAD =       36049.7859
               WELLS =           0.0000                 WELLS =           0.0000
            RECHARGE =    26413200.0000              RECHARGE =       27600.0000
      STREAM LEAKAGE =     8067611.0395        STREAM LEAKAGE =        8299.6764

            TOTAL IN =   104572868.5262              TOTAL IN =       71958.6938

          OUT:                                     OUT:
          ----                                     ----
             STORAGE =     2622906.3473               STORAGE =        3021.2047
       CONSTANT HEAD =           0.0000         CONSTANT HEAD =           0.0000
               WELLS =    37466835.5503                 WELLS =       34216.2882
            RECHARGE =           0.0000              RECHARGE =           0.0000
      STREAM LEAKAGE =    64483128.6346        STREAM LEAKAGE =       34721.2000

           TOTAL OUT =   104572870.5323             TOTAL OUT =       71958.6928

            IN - OUT =          -2.0061              IN - OUT =       9.5190E-04

 PERCENT DISCREPANCY =          -0.00     PERCENT DISCREPANCY =           0.00






         TIME SUMMARY AT END OF TIME STEP    1 IN STRESS PERIOD   12
                    SECONDS     MINUTES      HOURS       DAYS        YEARS
                    -----------------------------------------------------------
   TIME STEP LENGTH 7.86240E+06 1.31040E+05  2184.0      91.000     0.24914    
 STRESS PERIOD TIME 7.86240E+06 1.31040E+05  2184.0      91.000     0.24914    
         TOTAL TIME 9.46080E+07 1.57680E+06  26280.      1095.0      2.9979    
1

 Run end date and time (yyyy/mm/dd hh:mm:ss): 2019/06/07 22:53:44
 Elapsed run time:  0.090 Seconds

