                                  MODFLOW-2005     
      U.S. GEOLOGICAL SURVEY MODULAR FINITE-DIFFERENCE GROUND-WATER FLOW MODEL
                            VERSION 1.11.00 8/8/2013

 LIST FILE: supply2.lst
                         UNIT   10

 OPENING ..\data\supply.dis
 FILE TYPE:DIS   UNIT   11   STATUS:OLD    
 FORMAT:FORMATTED              ACCESS:SEQUENTIAL          

 OPENING ..\data\supply.ba6
 FILE TYPE:BAS6   UNIT   12   STATUS:OLD    
 FORMAT:FORMATTED              ACCESS:SEQUENTIAL          

 OPENING ..\data\supply.bc6
 FILE TYPE:BCF6   UNIT   13   STATUS:OLD    
 FORMAT:FORMATTED              ACCESS:SEQUENTIAL          

 OPENING ..\data\supply.rch
 FILE TYPE:RCH   UNIT   15   STATUS:OLD    
 FORMAT:FORMATTED              ACCESS:SEQUENTIAL          

 OPENING ..\data\supply2.sfr
 FILE TYPE:SFR   UNIT   16   STATUS:OLD    
 FORMAT:FORMATTED              ACCESS:SEQUENTIAL          

 OPENING ..\data\supply.oc
 FILE TYPE:OC   UNIT   17   STATUS:OLD    
 FORMAT:FORMATTED              ACCESS:SEQUENTIAL          

 OPENING ..\data\supply.pcg
 FILE TYPE:PCG   UNIT   18   STATUS:OLD    
 FORMAT:FORMATTED              ACCESS:SEQUENTIAL          

 OPENING supply2.wel
 FILE TYPE:WEL   UNIT   19   STATUS:OLD    
 FORMAT:FORMATTED              ACCESS:SEQUENTIAL          

 OPENING supply2sf.cbc
 FILE TYPE:DATA(BINARY)   UNIT   50   STATUS:UNKNOWN
 FORMAT:BINARY                 ACCESS:SEQUENTIAL          

 OPENING supply2hd.bhd
 FILE TYPE:DATA(BINARY)   UNIT   51   STATUS:UNKNOWN
 FORMAT:BINARY                 ACCESS:SEQUENTIAL          

 BAS -- BASIC PACKAGE, VERSION 7, 5/2/2005 INPUT READ FROM UNIT   12
 
 MODFLOW was compiled using uniform precision
 Precision of REAL and DOUBLE PRECISION variables:          15

 DISCRETIZATION INPUT DATA READ FROM UNIT   11
    1 LAYERS        25 ROWS        30 COLUMNS
   12 STRESS PERIOD(S) IN SIMULATION
 MODEL TIME UNIT IS DAYS
 MODEL LENGTH UNIT IS UNDEFINED
  Confining bed flag for each layer:
   0

                     DELR =   200.000    

                     DELC =   200.000    

 TOP ELEVATION OF LAYER 1 =  100.0000    

   MODEL LAYER BOTTOM EL. =   0.00000     FOR LAYER   1


 STRESS PERIOD     LENGTH       TIME STEPS     MULTIPLIER FOR DELT    SS FLAG
 ----------------------------------------------------------------------------
        1         92.00000          1                    1.500         TR
        2         91.00000          1                    1.500         TR
        3         91.00000          1                    1.500         TR
        4         91.00000          1                    1.500         TR
        5         92.00000          1                    1.500         TR
        6         91.00000          1                    1.500         TR
        7         91.00000          1                    1.500         TR
        8         91.00000          1                    1.500         TR
        9         92.00000          1                    1.500         TR
       10         91.00000          1                    1.500         TR
       11         91.00000          1                    1.500         TR
       12         91.00000          1                    1.500         TR

 TRANSIENT SIMULATION



 
 #MODOFC transient water supply sample problem                                   
 #                                                                               
 THE FREE FORMAT OPTION HAS BEEN SELECTED



                     BOUNDARY ARRAY FOR LAYER   1
 READING ON UNIT   12 WITH FORMAT: (20I4)              

 AQUIFER HEAD WILL BE SET TO   0.0000     AT ALL NO-FLOW NODES (IBOUND=0).



                       INITIAL HEAD FOR LAYER   1
 READING ON UNIT   12 WITH FORMAT: (10F13.0)           

 OUTPUT CONTROL IS SPECIFIED ONLY AT TIME STEPS FOR WHICH OUTPUT IS DESIRED
 COMPACT CELL-BY-CELL BUDGET FILES WILL BE WRITTEN
 HEAD PRINT FORMAT CODE IS  18    DRAWDOWN PRINT FORMAT CODE IS   0
 HEADS WILL BE SAVED ON UNIT   51    DRAWDOWNS WILL BE SAVED ON UNIT    0

 BCF -- BLOCK-CENTERED FLOW PACKAGE, VERSION 7, 5/2/2005
         INPUT READ FROM UNIT 13
 TRANSIENT SIMULATION
 HEAD AT CELLS THAT CONVERT TO DRY=   0.0000    
 WETTING CAPABILITY IS NOT ACTIVE
      LAYER  LAYER-TYPE CODE     INTERBLOCK T
      --------------------------------------------
         1            0          0 -- HARMONIC    

 COLUMN TO ROW ANISOTROPY =  1.000000    

     PRIMARY STORAGE COEF =  5.000000E-02 FOR LAYER   1

     TRANSMIS. ALONG ROWS =   500.000     FOR LAYER   1

 WEL -- WELL PACKAGE, VERSION 7, 5/2/2005 INPUT READ FROM UNIT   19
 # Well package input file written by MMProc
 No named parameters
 MAXIMUM OF      4 ACTIVE WELLS AT ONE TIME


     0 Well parameters

 RCH -- RECHARGE PACKAGE, VERSION 7, 5/2/2005 INPUT READ FROM UNIT   15
 No named parameters
 OPTION 1 -- RECHARGE TO TOP LAYER


     0 Recharge parameters

 SFR7 -- STREAMFLOW ROUTING PACKAGE, VERSION 1.0.7, 2013-01-15
         INPUT READ FROM UNIT  16
 #  Supply2 test problem for GWM-VI
 #  The eighth entry in the first data line is ISTCB2 -
 #    Setting this to a negative number indicates that
 #    streamflows out of the reach will be saved to a
 #    binary file.  The absolute value of ISTCB2 is the
 #    unit to which unformatted flows will be written.
 #
 No named parameters
 Segment information will not be 
 read by reach
 No named parameters
 No specifed inflow files


 NUMBER OF STREAM REACHES IS   40

 NUMBER OF STREAM SEGMENTS IS    3

 NUMBER OF STREAM PARAMETERS IS    0

 NUMBER OF STREAM SEGMENTS DEFINED USING PARAMETERS IS              0

 MAXIMUM ERROR FOR STREAM LEAKAGE RATES IS  1.00E-04

 CONSTANT FOR MANNINGS EQUATION IS  1.2839E+05





   STREAM NETWORK DESCRIPTION: 

   LAYER    ROW    COL   SEGMENT   REACH     LENGTH
                          NUMBER   NUMBER    IN CELL        
   --------------------------------------------------
      1     13      1       1        1    2.0000E+02
      1     13      2       1        2    2.0000E+02
      1     14      3       1        3    2.0000E+02
      1     15      4       1        4    2.0000E+02
      1     16      5       1        5    2.0000E+02
      1     16      6       1        6    2.0000E+02
      1     16      7       1        7    2.0000E+02
      1     16      8       1        8    2.0000E+02
      1     16      9       1        9    2.0000E+02
      1     16     10       1       10    2.0000E+02
      1     16     11       1       11    2.0000E+02
      1     16     12       1       12    2.0000E+02
      1     15     13       1       13    2.0000E+02
      1     14     14       1       14    2.0000E+02
      1     13     15       1       15    2.0000E+02
      1     12     16       1       16    2.0000E+02
      1     12     17       1       17    2.0000E+02
      1     12     18       1       18    2.0000E+02
      1     12     19       1       19    2.0000E+02
      1     13     20       1       20    2.0000E+02
      1     14     21       1       21    2.0000E+02
      1     14     22       1       22    2.0000E+02
      1      9     30       2        1    2.0000E+02
      1      9     29       2        2    2.0000E+02
      1      9     28       2        3    2.0000E+02
      1      9     27       2        4    2.0000E+02
      1     10     26       2        5    2.0000E+02
      1     11     25       2        6    2.0000E+02
      1     12     24       2        7    2.0000E+02
      1     13     23       2        8    2.0000E+02
      1     14     22       2        9    2.0000E+02
      1     14     22       3        1    2.0000E+02
      1     15     23       3        2    2.0000E+02
      1     15     24       3        3    2.0000E+02
      1     15     25       3        4    2.0000E+02
      1     15     26       3        5    2.0000E+02
      1     16     27       3        6    2.0000E+02
      1     17     28       3        7    2.0000E+02
      1     18     29       3        8    2.0000E+02
      1     18     30       3        9    2.0000E+02




 PCG -- CONJUGATE-GRADIENT SOLUTION PACKAGE, VERSION 7, 5/2/2005
 MAXIMUM OF    500 CALLS OF SOLUTION ROUTINE
 MAXIMUM OF      5 INTERNAL ITERATIONS PER CALL TO SOLUTION ROUTINE
 MATRIX PRECONDITIONING TYPE :    1



                                    SOLUTION BY THE CONJUGATE-GRADIENT METHOD
                                   -------------------------------------------
                    MAXIMUM NUMBER OF CALLS TO PCG ROUTINE =      500
                        MAXIMUM ITERATIONS PER CALL TO PCG =        5
                               MATRIX PRECONDITIONING TYPE =        1
        RELAXATION FACTOR (ONLY USED WITH PRECOND. TYPE 1) =    0.10000E+01
 PARAMETER OF POLYNOMIAL PRECOND. = 2 (2) OR IS CALCULATED :        0
                         HEAD CHANGE CRITERION FOR CLOSURE =    0.10000E-05
                     RESIDUAL CHANGE CRITERION FOR CLOSURE =    0.10000E+01
            PCG HEAD AND RESIDUAL CHANGE PRINTOUT INTERVAL =        1
     PRINTING FROM SOLVER IS LIMITED(1) OR SUPPRESSED (>1) =        1
                            STEADY-STATE DAMPING PARAMETER =    0.10000E+01
                               TRANSIENT DAMPING PARAMETER =    0.10000E+01
1
                            STRESS PERIOD NO.    1, LENGTH =   92.00000    
                            -----------------------------------------------

                              NUMBER OF TIME STEPS =     1

                               MULTIPLIER FOR DELT =     1.500

                            INITIAL TIME STEP SIZE =   92.00000    

 WELL NO.  LAYER   ROW   COL   STRESS RATE         
 --------------------------------------------------
      1      1     23     20     -0.3361E+05
      2      1     23      4     -0.3381E+05
      3      1      5     26     -0.3082E+05
      4      1     21     27     -0.3006E+05

      4 WELLS

                 RECHARGE =  5.000000E-04



 CLASSIFICATION & COUNT OF STREAM SEGMENTS BASED ON SOURCE OF INFLOW:

                HEADWATER     DIVERSION     RECEIVES TRIBUTARY FLOW
                ---------     ---------     -----------------------
                     2              0               1



                    INPUT DATA FOR EACH STREAM SEGMENT
 ---------------------------------------------------------------------------------------------

 SEGMENT    SEG.     INFLOW   OVERLAND   STREAM    STREAM   ICALC  OUTFLOW  DIVERSION PRIORITY
    NO.    LENGTH     RATE     RUNOFF      ET       PPT.    METH.  TO SEG.  FROM SEG.    NO.

      1  4.400E+03 1.000E+05 0.000E+00 0.000E+00 0.000E+00    1        3        0        0
      2  1.800E+03 5.000E+04 0.000E+00 0.000E+00 0.000E+00    1        3        0        0
      3  1.800E+03 0.000E+00 0.000E+00 0.000E+00 0.000E+00    1        0        0        0


         STREAMBED PROPERTIES AND STREAM DIMENSIONS

 SEGMENT     BED HYD. COND.      BED THICKNESS     ELEV.-TOP OF BED     WIDTH OF STREAM     DEPTH OF STREAM    STREAM ROUGHNESS
    No.     UPPER     LOWER     UPPER     LOWER     UPPER     LOWER     UPPER     LOWER     UPPER     LOWER   CHANNEL      BANK

     1  5.000E+00 5.000E+00 1.000E+00 1.000E+00 4.850E+01 3.800E+01 2.000E+01 2.000E+01                     5.000E-02
     2  5.000E+00 5.000E+00 1.000E+00 1.000E+00 4.025E+01 3.800E+01 2.000E+01 2.000E+01                     5.000E-02
     3  5.000E+00 5.000E+00 1.000E+00 1.000E+00 3.800E+01 3.000E+01 2.000E+01 2.000E+01                     5.000E-02



 
 SOLVING FOR HEAD 


     8 CALLS TO PCG ROUTINE FOR TIME STEP   1 IN STRESS PERIOD    1
    34 TOTAL ITERATIONS

 OUTPUT CONTROL FOR STRESS PERIOD    1   TIME STEP    1
    SAVE BUDGET
    SAVE HEAD FOR ALL LAYERS
    PRINT HEAD FOR ALL LAYERS
 UBDSV2 SAVING "STREAMFLOW OUT  " ON UNIT  50 AT TIME STEP  1, STRESS PERIOD   1



 STREAM LISTING     PERIOD      1   STEP        1

 LAYER ROW COL. STREAM  RCH.  FLOW INTO     FLOW TO   FLOW OUT OF   OVRLND.     DIRECT     STREAM       STREAM     STREAM     STREAM   STREAMBED  STREAMBED
                SEG.NO.  NO.  STRM. RCH.    AQUIFER    STRM. RCH.    RUNOFF     PRECIP       ET          HEAD       DEPTH      WIDTH   CONDCTNC.   GRADIENT

   1   13    1     1     1    1.0000E+05 -5.5866E+03   1.0559E+05  0.000E+00  0.000E+00  0.000E+00  4.84084E+01  1.471E-01  2.000E+01  2.000E+04 -2.793E-01
   1   13    2     1     2    1.0559E+05 -8.4719E+03   1.1406E+05  0.000E+00  0.000E+00  0.000E+00  4.79371E+01  1.530E-01  2.000E+01  2.000E+04 -4.236E-01
   1   14    3     1     3    1.1406E+05 -7.5458E+03   1.2160E+05  0.000E+00  0.000E+00  0.000E+00  4.74664E+01  1.596E-01  2.000E+01  2.000E+04 -3.773E-01
   1   15    4     1     4    1.2160E+05 -7.1768E+03   1.2878E+05  0.000E+00  0.000E+00  0.000E+00  4.69951E+01  1.655E-01  2.000E+01  2.000E+04 -3.588E-01
   1   16    5     1     5    1.2878E+05 -6.5986E+03   1.3538E+05  0.000E+00  0.000E+00  0.000E+00  4.65232E+01  1.709E-01  2.000E+01  2.000E+04 -3.299E-01
   1   16    6     1     6    1.3538E+05 -5.5155E+03   1.4090E+05  0.000E+00  0.000E+00  0.000E+00  4.60506E+01  1.756E-01  2.000E+01  2.000E+04 -2.758E-01
   1   16    7     1     7    1.4090E+05 -5.7614E+03   1.4666E+05  0.000E+00  0.000E+00  0.000E+00  4.55776E+01  1.799E-01  2.000E+01  2.000E+04 -2.881E-01
   1   16    8     1     8    1.4666E+05 -5.9307E+03   1.5259E+05  0.000E+00  0.000E+00  0.000E+00  4.51047E+01  1.842E-01  2.000E+01  2.000E+04 -2.965E-01
   1   16    9     1     9    1.5259E+05 -6.0111E+03   1.5860E+05  0.000E+00  0.000E+00  0.000E+00  4.46318E+01  1.886E-01  2.000E+01  2.000E+04 -3.006E-01
   1   16   10     1    10    1.5860E+05 -6.0055E+03   1.6460E+05  0.000E+00  0.000E+00  0.000E+00  4.41588E+01  1.929E-01  2.000E+01  2.000E+04 -3.003E-01
   1   16   11     1    11    1.6460E+05 -5.9426E+03   1.7055E+05  0.000E+00  0.000E+00  0.000E+00  4.36858E+01  1.972E-01  2.000E+01  2.000E+04 -2.971E-01
   1   16   12     1    12    1.7055E+05 -7.6304E+03   1.7818E+05  0.000E+00  0.000E+00  0.000E+00  4.32133E+01  2.019E-01  2.000E+01  2.000E+04 -3.815E-01
   1   15   13     1    13    1.7818E+05 -8.0023E+03   1.8618E+05  0.000E+00  0.000E+00  0.000E+00  4.27414E+01  2.073E-01  2.000E+01  2.000E+04 -4.001E-01
   1   14   14     1    14    1.8618E+05 -8.2644E+03   1.9444E+05  0.000E+00  0.000E+00  0.000E+00  4.22696E+01  2.128E-01  2.000E+01  2.000E+04 -4.132E-01
   1   13   15     1    15    1.9444E+05 -8.5177E+03   2.0296E+05  0.000E+00  0.000E+00  0.000E+00  4.17979E+01  2.184E-01  2.000E+01  2.000E+04 -4.259E-01
   1   12   16     1    16    2.0296E+05 -9.3295E+03   2.1229E+05  0.000E+00  0.000E+00  0.000E+00  4.13265E+01  2.242E-01  2.000E+01  2.000E+04 -4.665E-01
   1   12   17     1    17    2.1229E+05 -6.5124E+03   2.1880E+05  0.000E+00  0.000E+00  0.000E+00  4.08543E+01  2.293E-01  2.000E+01  2.000E+04 -3.256E-01
   1   12   18     1    18    2.1880E+05 -6.3000E+03   2.2510E+05  0.000E+00  0.000E+00  0.000E+00  4.03811E+01  2.334E-01  2.000E+01  2.000E+04 -3.150E-01
   1   12   19     1    19    2.2510E+05 -7.8727E+03   2.3298E+05  0.000E+00  0.000E+00  0.000E+00  3.99083E+01  2.378E-01  2.000E+01  2.000E+04 -3.936E-01
   1   13   20     1    20    2.3298E+05 -6.3964E+03   2.3937E+05  0.000E+00  0.000E+00  0.000E+00  3.94354E+01  2.423E-01  2.000E+01  2.000E+04 -3.198E-01
   1   14   21     1    21    2.3937E+05 -5.1291E+03   2.4450E+05  0.000E+00  0.000E+00  0.000E+00  3.89617E+01  2.458E-01  2.000E+01  2.000E+04 -2.565E-01
   1   14   22     1    22    2.4450E+05  4.5134E+03   2.3999E+05  0.000E+00  0.000E+00  0.000E+00  3.84846E+01  2.460E-01  2.000E+01  2.000E+04  2.257E-01
   1    9   30     2     1    5.0000E+04 -4.6477E+03   5.4648E+04  0.000E+00  0.000E+00  0.000E+00  4.02441E+01  1.191E-01  2.000E+01  2.000E+04 -2.324E-01
   1    9   29     2     2    5.4648E+04 -4.8067E+03   5.9454E+04  0.000E+00  0.000E+00  0.000E+00  4.00004E+01  1.254E-01  2.000E+01  2.000E+04 -2.403E-01
   1    9   28     2     3    5.9454E+04 -4.8401E+03   6.4294E+04  0.000E+00  0.000E+00  0.000E+00  3.97567E+01  1.317E-01  2.000E+01  2.000E+04 -2.420E-01
   1    9   27     2     4    6.4294E+04 -7.1378E+03   7.1432E+04  0.000E+00  0.000E+00  0.000E+00  3.95142E+01  1.392E-01  2.000E+01  2.000E+04 -3.569E-01
   1   10   26     2     5    7.1432E+04 -6.4764E+03   7.7909E+04  0.000E+00  0.000E+00  0.000E+00  3.92724E+01  1.474E-01  2.000E+01  2.000E+04 -3.238E-01
   1   11   25     2     6    7.7909E+04 -5.9357E+03   8.3844E+04  0.000E+00  0.000E+00  0.000E+00  3.90296E+01  1.546E-01  2.000E+01  2.000E+04 -2.968E-01
   1   12   24     2     7    8.3844E+04 -4.9865E+03   8.8831E+04  0.000E+00  0.000E+00  0.000E+00  3.87858E+01  1.608E-01  2.000E+01  2.000E+04 -2.493E-01
   1   13   23     2     8    8.8831E+04 -3.6181E+03   9.2449E+04  0.000E+00  0.000E+00  0.000E+00  3.85406E+01  1.656E-01  2.000E+01  2.000E+04 -1.809E-01
   1   14   22     2     9    9.2449E+04  6.6486E+02   9.1784E+04  0.000E+00  0.000E+00  0.000E+00  3.82922E+01  1.672E-01  2.000E+01  2.000E+04  3.324E-02
   1   14   22     3     1    3.3177E+05 -9.0973E+03   3.4087E+05  0.000E+00  0.000E+00  0.000E+00  3.78041E+01  2.485E-01  2.000E+01  2.000E+04 -4.549E-01
   1   15   23     3     2    3.4087E+05 -5.1740E+03   3.4604E+05  0.000E+00  0.000E+00  0.000E+00  3.69183E+01  2.517E-01  2.000E+01  2.000E+04 -2.587E-01
   1   15   24     3     3    3.4604E+05 -3.7487E+03   3.4979E+05  0.000E+00  0.000E+00  0.000E+00  3.60314E+01  2.536E-01  2.000E+01  2.000E+04 -1.874E-01
   1   15   25     3     4    3.4979E+05 -3.7741E+03   3.5357E+05  0.000E+00  0.000E+00  0.000E+00  3.51442E+01  2.553E-01  2.000E+01  2.000E+04 -1.887E-01
   1   15   26     3     5    3.5357E+05 -5.2046E+03   3.5877E+05  0.000E+00  0.000E+00  0.000E+00  3.42572E+01  2.572E-01  2.000E+01  2.000E+04 -2.602E-01
   1   16   27     3     6    3.5877E+05 -6.0299E+03   3.6480E+05  0.000E+00  0.000E+00  0.000E+00  3.33708E+01  2.596E-01  2.000E+01  2.000E+04 -3.015E-01
   1   17   28     3     7    3.6480E+05 -5.9496E+03   3.7075E+05  0.000E+00  0.000E+00  0.000E+00  3.24844E+01  2.622E-01  2.000E+01  2.000E+04 -2.975E-01
   1   18   29     3     8    3.7075E+05 -5.7655E+03   3.7652E+05  0.000E+00  0.000E+00  0.000E+00  3.15980E+01  2.647E-01  2.000E+01  2.000E+04 -2.883E-01
   1   18   30     3     9    3.7652E+05 -5.8027E+03   3.8232E+05  0.000E+00  0.000E+00  0.000E+00  3.07116E+01  2.672E-01  2.000E+01  2.000E+04 -2.901E-01



1
              HEAD IN LAYER   1 AT END OF TIME STEP   1 IN STRESS PERIOD    1
  ---------------------------------------------------------------------------

          1      2      3      4      5      6      7      8      9     10
         11     12     13     14     15     16     17     18     19     20
         21     22     23     24     25     26     27     28     29     30
 .........................................................................
   1  ****** ****** ****** ****** ****** ****** ****** ****** ****** ******
      ****** ****** ****** ****** ****** ****** ****** ****** ****** ******
      ****** ****** ****** ****** ****** ****** ****** ****** ****** ******
   2  ****** ****** ****** ****** ****** ****** ****** ****** ****** ******
      ****** ****** ****** ****** ****** ****** ****** ****** ****** ******
      ****** ****** ****** ****** ****** ****** ****** ****** ****** ******
   3  ****** ****** ****** ****** ****** ****** ****** ****** ****** ******
      ****** ****** ****** ****** ****** ****** ****** ****** ****** ******
      ****** ****** ****** ****** ****** ****** ****** ****** ****** ******
   4  ****** ****** ****** ****** ****** ****** ****** ****** ****** ******
      ****** ****** ****** ****** ****** ****** ****** ****** ****** ******
      ****** ****** ****** ****** ****** ****** ****** ****** ****** ******
   5  ****** ****** ****** ****** ****** ****** ****** ****** ****** ******
      ****** ****** ****** ****** ****** ****** ****** ****** ****** ******
      ****** ****** ****** ****** ****** ****** ****** ****** ****** ******
   6  ****** ****** ****** ****** ****** ****** ****** ****** ****** ******
      ****** ****** ****** ****** ****** ****** ****** ****** ****** ******
      ****** ****** ****** ****** ****** ****** ****** ****** ****** ******
   7  ****** ****** ****** ****** ****** ****** ****** ****** ****** ******
      ****** ****** ****** ****** ****** ****** ****** ****** ****** ******
      ****** ****** ****** ****** ****** ****** ****** ****** ****** ******
   8  ****** ****** ****** ****** ****** ****** ****** ****** ****** ******
      ****** ****** ****** ****** ****** ****** ****** ****** ****** ******
      ****** ****** ****** ****** ****** ****** ****** ****** ****** ******
   9  ****** ****** ****** ****** ****** ****** ****** ****** ****** ******
      ****** ****** ****** ****** ****** ****** ****** ****** ****** ******
      ****** ****** ****** ****** ****** ****** ****** ****** ****** ******
  10  ****** ****** ****** ****** ****** ****** ****** ****** ****** ******
      ****** ****** ****** ****** ****** ****** ****** ****** ****** ******
      ****** ****** ****** ****** ****** ****** ****** ****** ****** ******
  11  ****** ****** ****** ****** ****** ****** ****** ****** ****** ******
      ****** ****** ****** ****** ****** ****** ****** ****** ****** ******
      ****** ****** ****** ****** ****** ****** ****** ****** ****** ******
  12  ****** ****** ****** ****** ****** ****** ****** ****** ****** ******
      ****** ****** ****** ****** ****** ****** ****** ****** ****** ******
      ****** ****** ****** ****** ****** ****** ****** ****** ****** ******
  13  ****** ****** ****** ****** ****** ****** ****** ****** ****** ******
      ****** ****** ****** ****** ****** ****** ****** ****** ****** ******
      ****** ****** ****** ****** ****** ****** ****** ****** ****** ******
  14  ****** ****** ****** ****** ****** ****** ****** ****** ****** ******
      ****** ****** ****** ****** ****** ****** ****** ****** ****** ******
      ****** ****** ****** ****** ****** ****** ****** ****** ****** ******
  15  ****** ****** ****** ****** ****** ****** ****** ****** ****** ******
      ****** ****** ****** ****** ****** ****** ****** ****** ****** ******
      ****** ****** ****** ****** ****** ****** ****** ****** ****** ******
  16  ****** ****** ****** ****** ****** ****** ****** ****** ****** ******
      ****** ****** ****** ****** ****** ****** ****** ****** ****** ******
      ****** ****** ****** ****** ****** ****** ****** ****** ****** ******
  17  ****** ****** ****** ****** ****** ****** ****** ****** ****** ******
      ****** ****** ****** ****** ****** ****** ****** ****** ****** ******
      ****** ****** ****** ****** ****** ****** ****** ****** ****** ******
  18  ****** ****** ****** ****** ****** ****** ****** ****** ****** ******
      ****** ****** ****** ****** ****** ****** ****** ****** ****** ******
      ****** ****** ****** ****** ****** ****** ****** ****** ****** ******
  19  ****** ****** ****** ****** ****** ****** ****** ****** ****** ******
      ****** ****** ****** ****** ****** ****** ****** ****** ****** ******
      ****** ****** ****** ****** ****** ****** ****** ****** ****** ******
  20  ****** ****** ****** ****** ****** ****** ****** ****** ****** ******
      ****** ****** ****** ****** ****** ****** ****** ****** ****** ******
      ****** ****** ****** ****** ****** ****** ****** ****** ****** ******
  21  ****** ****** ****** ****** ****** ****** ****** ****** ****** ******
      ****** ****** ****** ****** ****** ****** ****** ****** ****** ******
      ****** ****** ****** ****** ****** ****** ****** ****** ****** ******
  22  ****** ****** ****** ****** ****** ****** ****** ****** ****** ******
      ****** ****** ****** ****** ****** ****** ****** ****** ****** ******
      ****** ****** ****** ****** ****** ****** ****** ****** ****** ******
  23  ****** ****** ****** ****** ****** ****** ****** ****** ****** ******
      ****** ****** ****** ****** ****** ****** ****** ****** ****** ******
      ****** ****** ****** ****** ****** ****** ****** ****** ****** ******
  24  ****** ****** ****** ****** ****** ****** ****** ****** ****** ******
      ****** ****** ****** ****** ****** ****** ****** ****** ****** ******
      ****** ****** ****** ****** ****** ****** ****** ****** ****** ******
  25  ****** ****** ****** ****** ****** ****** ****** ****** ****** ******
      ****** ****** ****** ****** ****** ****** ****** ****** ****** ******
      ****** ****** ****** ****** ****** ****** ****** ****** ****** ******

 HEAD WILL BE SAVED ON UNIT   51 AT END OF TIME STEP    1, STRESS PERIOD    1
1
  VOLUMETRIC BUDGET FOR ENTIRE MODEL AT END OF TIME STEP    1, STRESS PERIOD   1
  ------------------------------------------------------------------------------

     CUMULATIVE VOLUMES      L**3       RATES FOR THIS TIME STEP      L**3/T
     ------------------                 ------------------------

           IN:                                      IN:
           ---                                      ---
             STORAGE =    18518686.7135               STORAGE =      201290.0730
       CONSTANT HEAD =    13389554.4958         CONSTANT HEAD =      145538.6358
               WELLS =           0.0000                 WELLS =           0.0000
            RECHARGE =     1269600.0000              RECHARGE =       13800.0000
      STREAM LEAKAGE =      476399.9374        STREAM LEAKAGE =        5178.2602

            TOTAL IN =    33654241.1467              TOTAL IN =      365806.9690

          OUT:                                     OUT:
          ----                                     ----
             STORAGE =           0.0000               STORAGE =           0.0000
       CONSTANT HEAD =           0.0000         CONSTANT HEAD =           0.0000
               WELLS =    11804540.2085                 WELLS =      128310.2197
            RECHARGE =           0.0000              RECHARGE =           0.0000
      STREAM LEAKAGE =    21849701.0799        STREAM LEAKAGE =      237496.7509

           TOTAL OUT =    33654241.2884             TOTAL OUT =      365806.9705

            IN - OUT =          -0.1416              IN - OUT =      -1.5392E-03

 PERCENT DISCREPANCY =          -0.00     PERCENT DISCREPANCY =          -0.00






         TIME SUMMARY AT END OF TIME STEP    1 IN STRESS PERIOD    1
                    SECONDS     MINUTES      HOURS       DAYS        YEARS
                    -----------------------------------------------------------
   TIME STEP LENGTH 7.94880E+06 1.32480E+05  2208.0      92.000     0.25188    
 STRESS PERIOD TIME 7.94880E+06 1.32480E+05  2208.0      92.000     0.25188    
         TOTAL TIME 7.94880E+06 1.32480E+05  2208.0      92.000     0.25188    
1
1
                            STRESS PERIOD NO.    2, LENGTH =   91.00000    
                            -----------------------------------------------

                              NUMBER OF TIME STEPS =     1

                               MULTIPLIER FOR DELT =     1.500

                            INITIAL TIME STEP SIZE =   91.00000    

 WELL NO.  LAYER   ROW   COL   STRESS RATE         
 --------------------------------------------------
      1      1     23     20     -0.3361E+05
      2      1     23      4     -0.3381E+05
      3      1      5     26     -0.3082E+05
      4      1     21     27     -0.3006E+05

      4 WELLS

                 RECHARGE =  2.000000E-03

 REUSING STREAM SEGMENT DATA FROM LAST STRESS PERIOD
 
 SOLVING FOR HEAD 


     7 CALLS TO PCG ROUTINE FOR TIME STEP   1 IN STRESS PERIOD    2
    27 TOTAL ITERATIONS

 OUTPUT CONTROL FOR STRESS PERIOD    2   TIME STEP    1
    SAVE BUDGET
    SAVE HEAD FOR ALL LAYERS
    PRINT HEAD FOR ALL LAYERS
 UBDSV2 SAVING "STREAMFLOW OUT  " ON UNIT  50 AT TIME STEP  1, STRESS PERIOD   2



 STREAM LISTING     PERIOD      2   STEP        1

 LAYER ROW COL. STREAM  RCH.  FLOW INTO     FLOW TO   FLOW OUT OF   OVRLND.     DIRECT     STREAM       STREAM     STREAM     STREAM   STREAMBED  STREAMBED
                SEG.NO.  NO.  STRM. RCH.    AQUIFER    STRM. RCH.    RUNOFF     PRECIP       ET          HEAD       DEPTH      WIDTH   CONDCTNC.   GRADIENT

   1   13    1     1     1    1.0000E+05 -3.5778E+03   1.0358E+05  0.000E+00  0.000E+00  0.000E+00  4.84076E+01  1.462E-01  2.000E+01  2.000E+04 -1.789E-01
   1   13    2     1     2    1.0358E+05 -5.9875E+03   1.0957E+05  0.000E+00  0.000E+00  0.000E+00  4.79344E+01  1.503E-01  2.000E+01  2.000E+04 -2.994E-01
   1   14    3     1     3    1.0957E+05 -4.6394E+03   1.1420E+05  0.000E+00  0.000E+00  0.000E+00  4.74616E+01  1.547E-01  2.000E+01  2.000E+04 -2.320E-01
   1   15    4     1     4    1.1420E+05 -4.1991E+03   1.1840E+05  0.000E+00  0.000E+00  0.000E+00  4.69879E+01  1.584E-01  2.000E+01  2.000E+04 -2.100E-01
   1   16    5     1     5    1.1840E+05 -3.8611E+03   1.2226E+05  0.000E+00  0.000E+00  0.000E+00  4.65139E+01  1.616E-01  2.000E+01  2.000E+04 -1.931E-01
   1   16    6     1     6    1.2226E+05 -3.3992E+03   1.2566E+05  0.000E+00  0.000E+00  0.000E+00  4.60396E+01  1.646E-01  2.000E+01  2.000E+04 -1.700E-01
   1   16    7     1     7    1.2566E+05 -3.6491E+03   1.2931E+05  0.000E+00  0.000E+00  0.000E+00  4.55651E+01  1.673E-01  2.000E+01  2.000E+04 -1.825E-01
   1   16    8     1     8    1.2931E+05 -3.8239E+03   1.3314E+05  0.000E+00  0.000E+00  0.000E+00  4.50907E+01  1.703E-01  2.000E+01  2.000E+04 -1.912E-01
   1   16    9     1     9    1.3314E+05 -3.9172E+03   1.3705E+05  0.000E+00  0.000E+00  0.000E+00  4.46164E+01  1.733E-01  2.000E+01  2.000E+04 -1.959E-01
   1   16   10     1    10    1.3705E+05 -3.9309E+03   1.4099E+05  0.000E+00  0.000E+00  0.000E+00  4.41422E+01  1.763E-01  2.000E+01  2.000E+04 -1.965E-01
   1   16   11     1    11    1.4099E+05 -3.8886E+03   1.4487E+05  0.000E+00  0.000E+00  0.000E+00  4.36679E+01  1.792E-01  2.000E+01  2.000E+04 -1.944E-01
   1   16   12     1    12    1.4487E+05 -5.0195E+03   1.4989E+05  0.000E+00  0.000E+00  0.000E+00  4.31939E+01  1.826E-01  2.000E+01  2.000E+04 -2.510E-01
   1   15   13     1    13    1.4989E+05 -4.9840E+03   1.5488E+05  0.000E+00  0.000E+00  0.000E+00  4.27203E+01  1.862E-01  2.000E+01  2.000E+04 -2.492E-01
   1   14   14     1    14    1.5488E+05 -5.1429E+03   1.6002E+05  0.000E+00  0.000E+00  0.000E+00  4.22468E+01  1.899E-01  2.000E+01  2.000E+04 -2.571E-01
   1   13   15     1    15    1.6002E+05 -5.4557E+03   1.6548E+05  0.000E+00  0.000E+00  0.000E+00  4.17733E+01  1.937E-01  2.000E+01  2.000E+04 -2.728E-01
   1   12   16     1    16    1.6548E+05 -6.6429E+03   1.7212E+05  0.000E+00  0.000E+00  0.000E+00  4.13003E+01  1.980E-01  2.000E+01  2.000E+04 -3.321E-01
   1   12   17     1    17    1.7212E+05 -4.3157E+03   1.7643E+05  0.000E+00  0.000E+00  0.000E+00  4.08269E+01  2.019E-01  2.000E+01  2.000E+04 -2.158E-01
   1   12   18     1    18    1.7643E+05 -4.0887E+03   1.8052E+05  0.000E+00  0.000E+00  0.000E+00  4.03525E+01  2.048E-01  2.000E+01  2.000E+04 -2.044E-01
   1   12   19     1    19    1.8052E+05 -5.1706E+03   1.8569E+05  0.000E+00  0.000E+00  0.000E+00  3.98784E+01  2.079E-01  2.000E+01  2.000E+04 -2.585E-01
   1   13   20     1    20    1.8569E+05 -3.5114E+03   1.8921E+05  0.000E+00  0.000E+00  0.000E+00  3.94041E+01  2.109E-01  2.000E+01  2.000E+04 -1.756E-01
   1   14   21     1    21    1.8921E+05 -2.5089E+03   1.9171E+05  0.000E+00  0.000E+00  0.000E+00  3.89288E+01  2.129E-01  2.000E+01  2.000E+04 -1.254E-01
   1   14   22     1    22    1.9171E+05  5.1357E+03   1.8658E+05  0.000E+00  0.000E+00  0.000E+00  3.84507E+01  2.120E-01  2.000E+01  2.000E+04  2.568E-01
   1    9   30     2     1    5.0000E+04 -2.2042E+03   5.2204E+04  0.000E+00  0.000E+00  0.000E+00  4.02424E+01  1.174E-01  2.000E+01  2.000E+04 -1.102E-01
   1    9   29     2     2    5.2204E+04 -2.3659E+03   5.4570E+04  0.000E+00  0.000E+00  0.000E+00  3.99955E+01  1.205E-01  2.000E+01  2.000E+04 -1.183E-01
   1    9   28     2     3    5.4570E+04 -2.4022E+03   5.6972E+04  0.000E+00  0.000E+00  0.000E+00  3.97487E+01  1.237E-01  2.000E+01  2.000E+04 -1.201E-01
   1    9   27     2     4    5.6972E+04 -4.0321E+03   6.1004E+04  0.000E+00  0.000E+00  0.000E+00  3.95029E+01  1.279E-01  2.000E+01  2.000E+04 -2.016E-01
   1   10   26     2     5    6.1004E+04 -3.1899E+03   6.4194E+04  0.000E+00  0.000E+00  0.000E+00  3.92576E+01  1.326E-01  2.000E+01  2.000E+04 -1.595E-01
   1   11   25     2     6    6.4194E+04 -2.8195E+03   6.7014E+04  0.000E+00  0.000E+00  0.000E+00  3.90114E+01  1.364E-01  2.000E+01  2.000E+04 -1.410E-01
   1   12   24     2     7    6.7014E+04 -2.2343E+03   6.9248E+04  0.000E+00  0.000E+00  0.000E+00  3.87645E+01  1.395E-01  2.000E+01  2.000E+04 -1.117E-01
   1   13   23     2     8    6.9248E+04 -1.4400E+03   7.0688E+04  0.000E+00  0.000E+00  0.000E+00  3.85167E+01  1.417E-01  2.000E+01  2.000E+04 -7.200E-02
   1   14   22     2     9    7.0688E+04  1.4571E+03   6.9231E+04  0.000E+00  0.000E+00  0.000E+00  3.82667E+01  1.417E-01  2.000E+01  2.000E+04  7.285E-02
   1   14   22     3     1    2.5581E+05 -8.5069E+03   2.6432E+05  0.000E+00  0.000E+00  0.000E+00  3.77685E+01  2.130E-01  2.000E+01  2.000E+04 -4.253E-01
   1   15   23     3     2    2.6432E+05 -2.6621E+03   2.6698E+05  0.000E+00  0.000E+00  0.000E+00  3.68824E+01  2.157E-01  2.000E+01  2.000E+04 -1.331E-01
   1   15   24     3     3    2.6698E+05 -1.7757E+03   2.6875E+05  0.000E+00  0.000E+00  0.000E+00  3.59946E+01  2.168E-01  2.000E+01  2.000E+04 -8.879E-02
   1   15   25     3     4    2.6875E+05 -1.7019E+03   2.7046E+05  0.000E+00  0.000E+00  0.000E+00  3.51065E+01  2.176E-01  2.000E+01  2.000E+04 -8.510E-02
   1   15   26     3     5    2.7046E+05 -2.4190E+03   2.7288E+05  0.000E+00  0.000E+00  0.000E+00  3.42186E+01  2.186E-01  2.000E+01  2.000E+04 -1.210E-01
   1   16   27     3     6    2.7288E+05 -2.5759E+03   2.7545E+05  0.000E+00  0.000E+00  0.000E+00  3.33310E+01  2.198E-01  2.000E+01  2.000E+04 -1.288E-01
   1   17   28     3     7    2.7545E+05 -2.3732E+03   2.7782E+05  0.000E+00  0.000E+00  0.000E+00  3.24432E+01  2.210E-01  2.000E+01  2.000E+04 -1.187E-01
   1   18   29     3     8    2.7782E+05 -2.4536E+03   2.8028E+05  0.000E+00  0.000E+00  0.000E+00  3.15555E+01  2.222E-01  2.000E+01  2.000E+04 -1.227E-01
   1   18   30     3     9    2.8028E+05 -3.2413E+03   2.8352E+05  0.000E+00  0.000E+00  0.000E+00  3.06680E+01  2.235E-01  2.000E+01  2.000E+04 -1.621E-01



1
              HEAD IN LAYER   1 AT END OF TIME STEP   1 IN STRESS PERIOD    2
  ---------------------------------------------------------------------------

          1      2      3      4      5      6      7      8      9     10
         11     12     13     14     15     16     17     18     19     20
         21     22     23     24     25     26     27     28     29     30
 .........................................................................
   1  ****** ****** ****** ****** ****** ****** ****** ****** ****** ******
      ****** ****** ****** ****** ****** ****** ****** ****** ****** ******
      ****** ****** ****** ****** ****** ****** ****** ****** ****** ******
   2  ****** ****** ****** ****** ****** ****** ****** ****** ****** ******
      ****** ****** ****** ****** ****** ****** ****** ****** ****** ******
      ****** ****** ****** ****** ****** ****** ****** ****** ****** ******
   3  ****** ****** ****** ****** ****** ****** ****** ****** ****** ******
      ****** ****** ****** ****** ****** ****** ****** ****** ****** ******
      ****** ****** ****** ****** ****** ****** ****** ****** ****** ******
   4  ****** ****** ****** ****** ****** ****** ****** ****** ****** ******
      ****** ****** ****** ****** ****** ****** ****** ****** ****** ******
      ****** ****** ****** ****** ****** ****** ****** ****** ****** ******
   5  ****** ****** ****** ****** ****** ****** ****** ****** ****** ******
      ****** ****** ****** ****** ****** ****** ****** ****** ****** ******
      ****** ****** ****** ****** ****** ****** ****** ****** ****** ******
   6  ****** ****** ****** ****** ****** ****** ****** ****** ****** ******
      ****** ****** ****** ****** ****** ****** ****** ****** ****** ******
      ****** ****** ****** ****** ****** ****** ****** ****** ****** ******
   7  ****** ****** ****** ****** ****** ****** ****** ****** ****** ******
      ****** ****** ****** ****** ****** ****** ****** ****** ****** ******
      ****** ****** ****** ****** ****** ****** ****** ****** ****** ******
   8  ****** ****** ****** ****** ****** ****** ****** ****** ****** ******
      ****** ****** ****** ****** ****** ****** ****** ****** ****** ******
      ****** ****** ****** ****** ****** ****** ****** ****** ****** ******
   9  ****** ****** ****** ****** ****** ****** ****** ****** ****** ******
      ****** ****** ****** ****** ****** ****** ****** ****** ****** ******
      ****** ****** ****** ****** ****** ****** ****** ****** ****** ******
  10  ****** ****** ****** ****** ****** ****** ****** ****** ****** ******
      ****** ****** ****** ****** ****** ****** ****** ****** ****** ******
      ****** ****** ****** ****** ****** ****** ****** ****** ****** ******
  11  ****** ****** ****** ****** ****** ****** ****** ****** ****** ******
      ****** ****** ****** ****** ****** ****** ****** ****** ****** ******
      ****** ****** ****** ****** ****** ****** ****** ****** ****** ******
  12  ****** ****** ****** ****** ****** ****** ****** ****** ****** ******
      ****** ****** ****** ****** ****** ****** ****** ****** ****** ******
      ****** ****** ****** ****** ****** ****** ****** ****** ****** ******
  13  ****** ****** ****** ****** ****** ****** ****** ****** ****** ******
      ****** ****** ****** ****** ****** ****** ****** ****** ****** ******
      ****** ****** ****** ****** ****** ****** ****** ****** ****** ******
  14  ****** ****** ****** ****** ****** ****** ****** ****** ****** ******
      ****** ****** ****** ****** ****** ****** ****** ****** ****** ******
      ****** ****** ****** ****** ****** ****** ****** ****** ****** ******
  15  ****** ****** ****** ****** ****** ****** ****** ****** ****** ******
      ****** ****** ****** ****** ****** ****** ****** ****** ****** ******
      ****** ****** ****** ****** ****** ****** ****** ****** ****** ******
  16  ****** ****** ****** ****** ****** ****** ****** ****** ****** ******
      ****** ****** ****** ****** ****** ****** ****** ****** ****** ******
      ****** ****** ****** ****** ****** ****** ****** ****** ****** ******
  17  ****** ****** ****** ****** ****** ****** ****** ****** ****** ******
      ****** ****** ****** ****** ****** ****** ****** ****** ****** ******
      ****** ****** ****** ****** ****** ****** ****** ****** ****** ******
  18  ****** ****** ****** ****** ****** ****** ****** ****** ****** ******
      ****** ****** ****** ****** ****** ****** ****** ****** ****** ******
      ****** ****** ****** ****** ****** ****** ****** ****** ****** ******
  19  ****** ****** ****** ****** ****** ****** ****** ****** ****** ******
      ****** ****** ****** ****** ****** ****** ****** ****** ****** ******
      ****** ****** ****** ****** ****** ****** ****** ****** ****** ******
  20  ****** ****** ****** ****** ****** ****** ****** ****** ****** ******
      ****** ****** ****** ****** ****** ****** ****** ****** ****** ******
      ****** ****** ****** ****** ****** ****** ****** ****** ****** ******
  21  ****** ****** ****** ****** ****** ****** ****** ****** ****** ******
      ****** ****** ****** ****** ****** ****** ****** ****** ****** ******
      ****** ****** ****** ****** ****** ****** ****** ****** ****** ******
  22  ****** ****** ****** ****** ****** ****** ****** ****** ****** ******
      ****** ****** ****** ****** ****** ****** ****** ****** ****** ******
      ****** ****** ****** ****** ****** ****** ****** ****** ****** ******
  23  ****** ****** ****** ****** ****** ****** ****** ****** ****** ******
      ****** ****** ****** ****** ****** ****** ****** ****** ****** ******
      ****** ****** ****** ****** ****** ****** ****** ****** ****** ******
  24  ****** ****** ****** ****** ****** ****** ****** ****** ****** ******
      ****** ****** ****** ****** ****** ****** ****** ****** ****** ******
      ****** ****** ****** ****** ****** ****** ****** ****** ****** ******
  25  ****** ****** ****** ****** ****** ****** ****** ****** ****** ******
      ****** ****** ****** ****** ****** ****** ****** ****** ****** ******
      ****** ****** ****** ****** ****** ****** ****** ****** ****** ******

 HEAD WILL BE SAVED ON UNIT   51 AT END OF TIME STEP    1, STRESS PERIOD    2
1
  VOLUMETRIC BUDGET FOR ENTIRE MODEL AT END OF TIME STEP    1, STRESS PERIOD   2
  ------------------------------------------------------------------------------

     CUMULATIVE VOLUMES      L**3       RATES FOR THIS TIME STEP      L**3/T
     ------------------                 ------------------------

           IN:                                      IN:
           ---                                      ---
             STORAGE =    21854967.6729               STORAGE =       36662.4281
       CONSTANT HEAD =    28856539.6420         CONSTANT HEAD =      169966.8697
               WELLS =           0.0000                 WELLS =           0.0000
            RECHARGE =     6292800.0000              RECHARGE =       55200.0000
      STREAM LEAKAGE =     1076342.4527        STREAM LEAKAGE =        6592.7749

            TOTAL IN =    58080649.7676              TOTAL IN =      268422.0728

          OUT:                                     OUT:
          ----                                     ----
             STORAGE =           0.0000               STORAGE =           0.0000
       CONSTANT HEAD =           0.0000         CONSTANT HEAD =           0.0000
               WELLS =    23480770.1973                 WELLS =      128310.2197
            RECHARGE =           0.0000              RECHARGE =           0.0000
      STREAM LEAKAGE =    34599880.1966        STREAM LEAKAGE =      140111.8584

           TOTAL OUT =    58080650.3939             TOTAL OUT =      268422.0781

            IN - OUT =          -0.6262              IN - OUT =      -5.3256E-03

 PERCENT DISCREPANCY =          -0.00     PERCENT DISCREPANCY =          -0.00






         TIME SUMMARY AT END OF TIME STEP    1 IN STRESS PERIOD    2
                    SECONDS     MINUTES      HOURS       DAYS        YEARS
                    -----------------------------------------------------------
   TIME STEP LENGTH 7.86240E+06 1.31040E+05  2184.0      91.000     0.24914    
 STRESS PERIOD TIME 7.86240E+06 1.31040E+05  2184.0      91.000     0.24914    
         TOTAL TIME 1.58112E+07 2.63520E+05  4392.0      183.00     0.50103    
1
1
                            STRESS PERIOD NO.    3, LENGTH =   91.00000    
                            -----------------------------------------------

                              NUMBER OF TIME STEPS =     1

                               MULTIPLIER FOR DELT =     1.500

                            INITIAL TIME STEP SIZE =   91.00000    

 WELL NO.  LAYER   ROW   COL   STRESS RATE         
 --------------------------------------------------
      1      1     23     20     -0.3361E+05
      2      1     23      4     -0.3381E+05
      3      1      5     26     -0.3082E+05
      4      1     21     27     -0.3006E+05

      4 WELLS

                 RECHARGE =   0.00000    

 REUSING STREAM SEGMENT DATA FROM LAST STRESS PERIOD
 
 SOLVING FOR HEAD 


     7 CALLS TO PCG ROUTINE FOR TIME STEP   1 IN STRESS PERIOD    3
    27 TOTAL ITERATIONS

 OUTPUT CONTROL FOR STRESS PERIOD    3   TIME STEP    1
    SAVE BUDGET
    SAVE HEAD FOR ALL LAYERS
    PRINT HEAD FOR ALL LAYERS
 UBDSV2 SAVING "STREAMFLOW OUT  " ON UNIT  50 AT TIME STEP  1, STRESS PERIOD   3



 STREAM LISTING     PERIOD      3   STEP        1

 LAYER ROW COL. STREAM  RCH.  FLOW INTO     FLOW TO   FLOW OUT OF   OVRLND.     DIRECT     STREAM       STREAM     STREAM     STREAM   STREAMBED  STREAMBED
                SEG.NO.  NO.  STRM. RCH.    AQUIFER    STRM. RCH.    RUNOFF     PRECIP       ET          HEAD       DEPTH      WIDTH   CONDCTNC.   GRADIENT

   1   13    1     1     1    1.0000E+05 -2.6293E+03   1.0263E+05  0.000E+00  0.000E+00  0.000E+00  4.84072E+01  1.458E-01  2.000E+01  2.000E+04 -1.315E-01
   1   13    2     1     2    1.0263E+05 -4.7104E+03   1.0734E+05  0.000E+00  0.000E+00  0.000E+00  4.79330E+01  1.489E-01  2.000E+01  2.000E+04 -2.355E-01
   1   14    3     1     3    1.0734E+05 -3.3303E+03   1.1067E+05  0.000E+00  0.000E+00  0.000E+00  4.74592E+01  1.523E-01  2.000E+01  2.000E+04 -1.665E-01
   1   15    4     1     4    1.1067E+05 -2.8844E+03   1.1355E+05  0.000E+00  0.000E+00  0.000E+00  4.69845E+01  1.549E-01  2.000E+01  2.000E+04 -1.442E-01
   1   16    5     1     5    1.1355E+05 -2.6193E+03   1.1617E+05  0.000E+00  0.000E+00  0.000E+00  4.65095E+01  1.572E-01  2.000E+01  2.000E+04 -1.310E-01
   1   16    6     1     6    1.1617E+05 -2.4555E+03   1.1863E+05  0.000E+00  0.000E+00  0.000E+00  4.60343E+01  1.593E-01  2.000E+01  2.000E+04 -1.228E-01
   1   16    7     1     7    1.1863E+05 -2.6964E+03   1.2133E+05  0.000E+00  0.000E+00  0.000E+00  4.55591E+01  1.614E-01  2.000E+01  2.000E+04 -1.348E-01
   1   16    8     1     8    1.2133E+05 -2.8661E+03   1.2419E+05  0.000E+00  0.000E+00  0.000E+00  4.50840E+01  1.636E-01  2.000E+01  2.000E+04 -1.433E-01
   1   16    9     1     9    1.2419E+05 -2.9627E+03   1.2715E+05  0.000E+00  0.000E+00  0.000E+00  4.46091E+01  1.659E-01  2.000E+01  2.000E+04 -1.481E-01
   1   16   10     1    10    1.2715E+05 -2.9874E+03   1.3014E+05  0.000E+00  0.000E+00  0.000E+00  4.41342E+01  1.683E-01  2.000E+01  2.000E+04 -1.494E-01
   1   16   11     1    11    1.3014E+05 -2.9573E+03   1.3310E+05  0.000E+00  0.000E+00  0.000E+00  4.36592E+01  1.706E-01  2.000E+01  2.000E+04 -1.479E-01
   1   16   12     1    12    1.3310E+05 -3.7780E+03   1.3688E+05  0.000E+00  0.000E+00  0.000E+00  4.31845E+01  1.732E-01  2.000E+01  2.000E+04 -1.889E-01
   1   15   13     1    13    1.3688E+05 -3.6298E+03   1.4051E+05  0.000E+00  0.000E+00  0.000E+00  4.27101E+01  1.760E-01  2.000E+01  2.000E+04 -1.815E-01
   1   14   14     1    14    1.4051E+05 -3.7565E+03   1.4426E+05  0.000E+00  0.000E+00  0.000E+00  4.22356E+01  1.788E-01  2.000E+01  2.000E+04 -1.878E-01
   1   13   15     1    15    1.4426E+05 -4.1011E+03   1.4836E+05  0.000E+00  0.000E+00  0.000E+00  4.17613E+01  1.818E-01  2.000E+01  2.000E+04 -2.051E-01
   1   12   16     1    16    1.4836E+05 -5.3464E+03   1.5371E+05  0.000E+00  0.000E+00  0.000E+00  4.12875E+01  1.853E-01  2.000E+01  2.000E+04 -2.673E-01
   1   12   17     1    17    1.5371E+05 -3.3643E+03   1.5708E+05  0.000E+00  0.000E+00  0.000E+00  4.08134E+01  1.884E-01  2.000E+01  2.000E+04 -1.682E-01
   1   12   18     1    18    1.5708E+05 -3.1512E+03   1.6023E+05  0.000E+00  0.000E+00  0.000E+00  4.03385E+01  1.908E-01  2.000E+01  2.000E+04 -1.576E-01
   1   12   19     1    19    1.6023E+05 -4.0192E+03   1.6425E+05  0.000E+00  0.000E+00  0.000E+00  3.98638E+01  1.934E-01  2.000E+01  2.000E+04 -2.010E-01
   1   13   20     1    20    1.6425E+05 -2.3982E+03   1.6664E+05  0.000E+00  0.000E+00  0.000E+00  3.93888E+01  1.957E-01  2.000E+01  2.000E+04 -1.199E-01
   1   14   21     1    21    1.6664E+05 -1.4340E+03   1.6808E+05  0.000E+00  0.000E+00  0.000E+00  3.89129E+01  1.970E-01  2.000E+01  2.000E+04 -7.170E-02
   1   14   22     1    22    1.6808E+05  5.3207E+03   1.6276E+05  0.000E+00  0.000E+00  0.000E+00  3.84343E+01  1.956E-01  2.000E+01  2.000E+04  2.660E-01
   1    9   30     2     1    5.0000E+04 -1.3496E+03   5.1350E+04  0.000E+00  0.000E+00  0.000E+00  4.02418E+01  1.168E-01  2.000E+01  2.000E+04 -6.748E-02
   1    9   29     2     2    5.1350E+04 -1.5183E+03   5.2868E+04  0.000E+00  0.000E+00  0.000E+00  3.99938E+01  1.188E-01  2.000E+01  2.000E+04 -7.591E-02
   1    9   28     2     3    5.2868E+04 -1.5574E+03   5.4425E+04  0.000E+00  0.000E+00  0.000E+00  3.97459E+01  1.209E-01  2.000E+01  2.000E+04 -7.787E-02
   1    9   27     2     4    5.4425E+04 -2.8573E+03   5.7283E+04  0.000E+00  0.000E+00  0.000E+00  3.94988E+01  1.238E-01  2.000E+01  2.000E+04 -1.429E-01
   1   10   26     2     5    5.7283E+04 -2.0152E+03   5.9298E+04  0.000E+00  0.000E+00  0.000E+00  3.92520E+01  1.270E-01  2.000E+01  2.000E+04 -1.008E-01
   1   11   25     2     6    5.9298E+04 -1.7234E+03   6.1021E+04  0.000E+00  0.000E+00  0.000E+00  3.90045E+01  1.295E-01  2.000E+01  2.000E+04 -8.617E-02
   1   12   24     2     7    6.1021E+04 -1.3062E+03   6.2327E+04  0.000E+00  0.000E+00  0.000E+00  3.87564E+01  1.314E-01  2.000E+01  2.000E+04 -6.531E-02
   1   13   23     2     8    6.2327E+04 -7.6096E+02   6.3088E+04  0.000E+00  0.000E+00  0.000E+00  3.85077E+01  1.327E-01  2.000E+01  2.000E+04 -3.805E-02
   1   14   22     2     9    6.3088E+04  1.7767E+03   6.1312E+04  0.000E+00  0.000E+00  0.000E+00  3.82571E+01  1.321E-01  2.000E+01  2.000E+04  8.883E-02
   1   14   22     3     1    2.2407E+05 -8.3152E+03   2.3238E+05  0.000E+00  0.000E+00  0.000E+00  3.77525E+01  1.969E-01  2.000E+01  2.000E+04 -4.158E-01
   1   15   23     3     2    2.3238E+05 -1.6393E+03   2.3402E+05  0.000E+00  0.000E+00  0.000E+00  3.68662E+01  1.995E-01  2.000E+01  2.000E+04 -8.197E-02
   1   15   24     3     3    2.3402E+05 -1.0891E+03   2.3511E+05  0.000E+00  0.000E+00  0.000E+00  3.59780E+01  2.002E-01  2.000E+01  2.000E+04 -5.446E-02
   1   15   25     3     4    2.3511E+05 -1.0303E+03   2.3614E+05  0.000E+00  0.000E+00  0.000E+00  3.50896E+01  2.007E-01  2.000E+01  2.000E+04 -5.151E-02
   1   15   26     3     5    2.3614E+05 -1.5484E+03   2.3769E+05  0.000E+00  0.000E+00  0.000E+00  3.42014E+01  2.014E-01  2.000E+01  2.000E+04 -7.742E-02
   1   16   27     3     6    2.3769E+05 -1.4217E+03   2.3911E+05  0.000E+00  0.000E+00  0.000E+00  3.33133E+01  2.022E-01  2.000E+01  2.000E+04 -7.109E-02
   1   17   28     3     7    2.3911E+05 -1.1777E+03   2.4029E+05  0.000E+00  0.000E+00  0.000E+00  3.24250E+01  2.028E-01  2.000E+01  2.000E+04 -5.889E-02
   1   18   29     3     8    2.4029E+05 -1.3031E+03   2.4159E+05  0.000E+00  0.000E+00  0.000E+00  3.15368E+01  2.034E-01  2.000E+01  2.000E+04 -6.516E-02
   1   18   30     3     9    2.4159E+05 -2.4172E+03   2.4401E+05  0.000E+00  0.000E+00  0.000E+00  3.06488E+01  2.044E-01  2.000E+01  2.000E+04 -1.209E-01



1
              HEAD IN LAYER   1 AT END OF TIME STEP   1 IN STRESS PERIOD    3
  ---------------------------------------------------------------------------

          1      2      3      4      5      6      7      8      9     10
         11     12     13     14     15     16     17     18     19     20
         21     22     23     24     25     26     27     28     29     30
 .........................................................................
   1  ****** ****** ****** ****** ****** ****** ****** ****** ****** ******
      ****** ****** ****** ****** ****** ****** ****** ****** ****** ******
      ****** ****** ****** ****** ****** ****** ****** ****** ****** ******
   2  ****** ****** ****** ****** ****** ****** ****** ****** ****** ******
      ****** ****** ****** ****** ****** ****** ****** ****** ****** ******
      ****** ****** ****** ****** ****** ****** ****** ****** ****** ******
   3  ****** ****** ****** ****** ****** ****** ****** ****** ****** ******
      ****** ****** ****** ****** ****** ****** ****** ****** ****** ******
      ****** ****** ****** ****** ****** ****** ****** ****** ****** ******
   4  ****** ****** ****** ****** ****** ****** ****** ****** ****** ******
      ****** ****** ****** ****** ****** ****** ****** ****** ****** ******
      ****** ****** ****** ****** ****** ****** ****** ****** ****** ******
   5  ****** ****** ****** ****** ****** ****** ****** ****** ****** ******
      ****** ****** ****** ****** ****** ****** ****** ****** ****** ******
      ****** ****** ****** ****** ****** ****** ****** ****** ****** ******
   6  ****** ****** ****** ****** ****** ****** ****** ****** ****** ******
      ****** ****** ****** ****** ****** ****** ****** ****** ****** ******
      ****** ****** ****** ****** ****** ****** ****** ****** ****** ******
   7  ****** ****** ****** ****** ****** ****** ****** ****** ****** ******
      ****** ****** ****** ****** ****** ****** ****** ****** ****** ******
      ****** ****** ****** ****** ****** ****** ****** ****** ****** ******
   8  ****** ****** ****** ****** ****** ****** ****** ****** ****** ******
      ****** ****** ****** ****** ****** ****** ****** ****** ****** ******
      ****** ****** ****** ****** ****** ****** ****** ****** ****** ******
   9  ****** ****** ****** ****** ****** ****** ****** ****** ****** ******
      ****** ****** ****** ****** ****** ****** ****** ****** ****** ******
      ****** ****** ****** ****** ****** ****** ****** ****** ****** ******
  10  ****** ****** ****** ****** ****** ****** ****** ****** ****** ******
      ****** ****** ****** ****** ****** ****** ****** ****** ****** ******
      ****** ****** ****** ****** ****** ****** ****** ****** ****** ******
  11  ****** ****** ****** ****** ****** ****** ****** ****** ****** ******
      ****** ****** ****** ****** ****** ****** ****** ****** ****** ******
      ****** ****** ****** ****** ****** ****** ****** ****** ****** ******
  12  ****** ****** ****** ****** ****** ****** ****** ****** ****** ******
      ****** ****** ****** ****** ****** ****** ****** ****** ****** ******
      ****** ****** ****** ****** ****** ****** ****** ****** ****** ******
  13  ****** ****** ****** ****** ****** ****** ****** ****** ****** ******
      ****** ****** ****** ****** ****** ****** ****** ****** ****** ******
      ****** ****** ****** ****** ****** ****** ****** ****** ****** ******
  14  ****** ****** ****** ****** ****** ****** ****** ****** ****** ******
      ****** ****** ****** ****** ****** ****** ****** ****** ****** ******
      ****** ****** ****** ****** ****** ****** ****** ****** ****** ******
  15  ****** ****** ****** ****** ****** ****** ****** ****** ****** ******
      ****** ****** ****** ****** ****** ****** ****** ****** ****** ******
      ****** ****** ****** ****** ****** ****** ****** ****** ****** ******
  16  ****** ****** ****** ****** ****** ****** ****** ****** ****** ******
      ****** ****** ****** ****** ****** ****** ****** ****** ****** ******
      ****** ****** ****** ****** ****** ****** ****** ****** ****** ******
  17  ****** ****** ****** ****** ****** ****** ****** ****** ****** ******
      ****** ****** ****** ****** ****** ****** ****** ****** ****** ******
      ****** ****** ****** ****** ****** ****** ****** ****** ****** ******
  18  ****** ****** ****** ****** ****** ****** ****** ****** ****** ******
      ****** ****** ****** ****** ****** ****** ****** ****** ****** ******
      ****** ****** ****** ****** ****** ****** ****** ****** ****** ******
  19  ****** ****** ****** ****** ****** ****** ****** ****** ****** ******
      ****** ****** ****** ****** ****** ****** ****** ****** ****** ******
      ****** ****** ****** ****** ****** ****** ****** ****** ****** ******
  20  ****** ****** ****** ****** ****** ****** ****** ****** ****** ******
      ****** ****** ****** ****** ****** ****** ****** ****** ****** ******
      ****** ****** ****** ****** ****** ****** ****** ****** ****** ******
  21  ****** ****** ****** ****** ****** ****** ****** ****** ****** ******
      ****** ****** ****** ****** ****** ****** ****** ****** ****** ******
      ****** ****** ****** ****** ****** ****** ****** ****** ****** ******
  22  ****** ****** ****** ****** ****** ****** ****** ****** ****** ******
      ****** ****** ****** ****** ****** ****** ****** ****** ****** ******
      ****** ****** ****** ****** ****** ****** ****** ****** ****** ******
  23  ****** ****** ****** ****** ****** ****** ****** ****** ****** ******
      ****** ****** ****** ****** ****** ****** ****** ****** ****** ******
      ****** ****** ****** ****** ****** ****** ****** ****** ****** ******
  24  ****** ****** ****** ****** ****** ****** ****** ****** ****** ******
      ****** ****** ****** ****** ****** ****** ****** ****** ****** ******
      ****** ****** ****** ****** ****** ****** ****** ****** ****** ******
  25  ****** ****** ****** ****** ****** ****** ****** ****** ****** ******
      ****** ****** ****** ****** ****** ****** ****** ****** ****** ******
      ****** ****** ****** ****** ****** ****** ****** ****** ****** ******

 HEAD WILL BE SAVED ON UNIT   51 AT END OF TIME STEP    1, STRESS PERIOD    3
1
  VOLUMETRIC BUDGET FOR ENTIRE MODEL AT END OF TIME STEP    1, STRESS PERIOD   3
  ------------------------------------------------------------------------------

     CUMULATIVE VOLUMES      L**3       RATES FOR THIS TIME STEP      L**3/T
     ------------------                 ------------------------

           IN:                                      IN:
           ---                                      ---
             STORAGE =    24325066.4758               STORAGE =       27143.9429
       CONSTANT HEAD =    46617665.8949         CONSTANT HEAD =      195177.2116
               WELLS =           0.0000                 WELLS =           0.0000
            RECHARGE =     6292800.0000              RECHARGE =           0.0000
      STREAM LEAKAGE =     1722197.9440        STREAM LEAKAGE =        7097.3131

            TOTAL IN =    78957730.3147              TOTAL IN =      229418.4676

          OUT:                                     OUT:
          ----                                     ----
             STORAGE =           0.0000               STORAGE =           0.0000
       CONSTANT HEAD =           0.0000         CONSTANT HEAD =           0.0000
               WELLS =    35157000.1861                 WELLS =      128310.2197
            RECHARGE =           0.0000              RECHARGE =           0.0000
      STREAM LEAKAGE =    43800731.0064        STREAM LEAKAGE =      101108.2507

           TOTAL OUT =    78957731.1925             TOTAL OUT =      229418.4703

            IN - OUT =          -0.8778              IN - OUT =      -2.7639E-03

 PERCENT DISCREPANCY =          -0.00     PERCENT DISCREPANCY =          -0.00






         TIME SUMMARY AT END OF TIME STEP    1 IN STRESS PERIOD    3
                    SECONDS     MINUTES      HOURS       DAYS        YEARS
                    -----------------------------------------------------------
   TIME STEP LENGTH 7.86240E+06 1.31040E+05  2184.0      91.000     0.24914    
 STRESS PERIOD TIME 7.86240E+06 1.31040E+05  2184.0      91.000     0.24914    
         TOTAL TIME 2.36736E+07 3.94560E+05  6576.0      274.00     0.75017    
1
1
                            STRESS PERIOD NO.    4, LENGTH =   91.00000    
                            -----------------------------------------------

                              NUMBER OF TIME STEPS =     1

                               MULTIPLIER FOR DELT =     1.500

                            INITIAL TIME STEP SIZE =   91.00000    

 WELL NO.  LAYER   ROW   COL   STRESS RATE         
 --------------------------------------------------
      1      1     23     20     -0.3361E+05
      2      1     23      4     -0.3381E+05
      3      1      5     26     -0.3082E+05
      4      1     21     27     -0.3006E+05

      4 WELLS

                 RECHARGE =  1.000000E-03

 REUSING STREAM SEGMENT DATA FROM LAST STRESS PERIOD
 
 SOLVING FOR HEAD 


     6 CALLS TO PCG ROUTINE FOR TIME STEP   1 IN STRESS PERIOD    4
    20 TOTAL ITERATIONS

 OUTPUT CONTROL FOR STRESS PERIOD    4   TIME STEP    1
    SAVE BUDGET
    SAVE HEAD FOR ALL LAYERS
    PRINT HEAD FOR ALL LAYERS
 UBDSV2 SAVING "STREAMFLOW OUT  " ON UNIT  50 AT TIME STEP  1, STRESS PERIOD   4



 STREAM LISTING     PERIOD      4   STEP        1

 LAYER ROW COL. STREAM  RCH.  FLOW INTO     FLOW TO   FLOW OUT OF   OVRLND.     DIRECT     STREAM       STREAM     STREAM     STREAM   STREAMBED  STREAMBED
                SEG.NO.  NO.  STRM. RCH.    AQUIFER    STRM. RCH.    RUNOFF     PRECIP       ET          HEAD       DEPTH      WIDTH   CONDCTNC.   GRADIENT

   1   13    1     1     1    1.0000E+05 -2.6408E+03   1.0264E+05  0.000E+00  0.000E+00  0.000E+00  4.84072E+01  1.458E-01  2.000E+01  2.000E+04 -1.320E-01
   1   13    2     1     2    1.0264E+05 -4.6941E+03   1.0733E+05  0.000E+00  0.000E+00  0.000E+00  4.79330E+01  1.489E-01  2.000E+01  2.000E+04 -2.347E-01
   1   14    3     1     3    1.0733E+05 -3.3574E+03   1.1069E+05  0.000E+00  0.000E+00  0.000E+00  4.74592E+01  1.523E-01  2.000E+01  2.000E+04 -1.679E-01
   1   15    4     1     4    1.1069E+05 -2.9210E+03   1.1361E+05  0.000E+00  0.000E+00  0.000E+00  4.69845E+01  1.550E-01  2.000E+01  2.000E+04 -1.460E-01
   1   16    5     1     5    1.1361E+05 -2.6525E+03   1.1627E+05  0.000E+00  0.000E+00  0.000E+00  4.65095E+01  1.573E-01  2.000E+01  2.000E+04 -1.326E-01
   1   16    6     1     6    1.1627E+05 -2.4882E+03   1.1875E+05  0.000E+00  0.000E+00  0.000E+00  4.60344E+01  1.594E-01  2.000E+01  2.000E+04 -1.244E-01
   1   16    7     1     7    1.1875E+05 -2.7283E+03   1.2148E+05  0.000E+00  0.000E+00  0.000E+00  4.55592E+01  1.615E-01  2.000E+01  2.000E+04 -1.364E-01
   1   16    8     1     8    1.2148E+05 -2.8976E+03   1.2438E+05  0.000E+00  0.000E+00  0.000E+00  4.50842E+01  1.637E-01  2.000E+01  2.000E+04 -1.449E-01
   1   16    9     1     9    1.2438E+05 -2.9945E+03   1.2737E+05  0.000E+00  0.000E+00  0.000E+00  4.46093E+01  1.661E-01  2.000E+01  2.000E+04 -1.497E-01
   1   16   10     1    10    1.2737E+05 -3.0200E+03   1.3039E+05  0.000E+00  0.000E+00  0.000E+00  4.41343E+01  1.684E-01  2.000E+01  2.000E+04 -1.510E-01
   1   16   11     1    11    1.3039E+05 -2.9900E+03   1.3338E+05  0.000E+00  0.000E+00  0.000E+00  4.36594E+01  1.708E-01  2.000E+01  2.000E+04 -1.495E-01
   1   16   12     1    12    1.3338E+05 -3.8027E+03   1.3719E+05  0.000E+00  0.000E+00  0.000E+00  4.31848E+01  1.734E-01  2.000E+01  2.000E+04 -1.901E-01
   1   15   13     1    13    1.3719E+05 -3.6546E+03   1.4084E+05  0.000E+00  0.000E+00  0.000E+00  4.27104E+01  1.763E-01  2.000E+01  2.000E+04 -1.827E-01
   1   14   14     1    14    1.4084E+05 -3.7753E+03   1.4462E+05  0.000E+00  0.000E+00  0.000E+00  4.22359E+01  1.791E-01  2.000E+01  2.000E+04 -1.888E-01
   1   13   15     1    15    1.4462E+05 -4.1167E+03   1.4873E+05  0.000E+00  0.000E+00  0.000E+00  4.17616E+01  1.820E-01  2.000E+01  2.000E+04 -2.058E-01
   1   12   16     1    16    1.4873E+05 -5.3354E+03   1.5407E+05  0.000E+00  0.000E+00  0.000E+00  4.12878E+01  1.855E-01  2.000E+01  2.000E+04 -2.668E-01
   1   12   17     1    17    1.5407E+05 -3.3837E+03   1.5745E+05  0.000E+00  0.000E+00  0.000E+00  4.08137E+01  1.887E-01  2.000E+01  2.000E+04 -1.692E-01
   1   12   18     1    18    1.5745E+05 -3.1769E+03   1.6063E+05  0.000E+00  0.000E+00  0.000E+00  4.03388E+01  1.911E-01  2.000E+01  2.000E+04 -1.588E-01
   1   12   19     1    19    1.6063E+05 -4.0533E+03   1.6468E+05  0.000E+00  0.000E+00  0.000E+00  3.98641E+01  1.937E-01  2.000E+01  2.000E+04 -2.027E-01
   1   13   20     1    20    1.6468E+05 -2.4613E+03   1.6714E+05  0.000E+00  0.000E+00  0.000E+00  3.93892E+01  1.960E-01  2.000E+01  2.000E+04 -1.231E-01
   1   14   21     1    21    1.6714E+05 -1.4698E+03   1.6861E+05  0.000E+00  0.000E+00  0.000E+00  3.89133E+01  1.974E-01  2.000E+01  2.000E+04 -7.349E-02
   1   14   22     1    22    1.6861E+05  5.2929E+03   1.6332E+05  0.000E+00  0.000E+00  0.000E+00  3.84347E+01  1.960E-01  2.000E+01  2.000E+04  2.646E-01
   1    9   30     2     1    5.0000E+04 -1.4402E+03   5.1440E+04  0.000E+00  0.000E+00  0.000E+00  4.02419E+01  1.169E-01  2.000E+01  2.000E+04 -7.201E-02
   1    9   29     2     2    5.1440E+04 -1.6066E+03   5.3047E+04  0.000E+00  0.000E+00  0.000E+00  3.99940E+01  1.190E-01  2.000E+01  2.000E+04 -8.033E-02
   1    9   28     2     3    5.3047E+04 -1.6397E+03   5.4686E+04  0.000E+00  0.000E+00  0.000E+00  3.97462E+01  1.212E-01  2.000E+01  2.000E+04 -8.198E-02
   1    9   27     2     4    5.4686E+04 -2.9259E+03   5.7612E+04  0.000E+00  0.000E+00  0.000E+00  3.94992E+01  1.242E-01  2.000E+01  2.000E+04 -1.463E-01
   1   10   26     2     5    5.7612E+04 -2.1147E+03   5.9727E+04  0.000E+00  0.000E+00  0.000E+00  3.92525E+01  1.275E-01  2.000E+01  2.000E+04 -1.057E-01
   1   11   25     2     6    5.9727E+04 -1.8300E+03   6.1557E+04  0.000E+00  0.000E+00  0.000E+00  3.90051E+01  1.301E-01  2.000E+01  2.000E+04 -9.150E-02
   1   12   24     2     7    6.1557E+04 -1.4156E+03   6.2973E+04  0.000E+00  0.000E+00  0.000E+00  3.87572E+01  1.322E-01  2.000E+01  2.000E+04 -7.078E-02
   1   13   23     2     8    6.2973E+04 -8.6382E+02   6.3837E+04  0.000E+00  0.000E+00  0.000E+00  3.85086E+01  1.336E-01  2.000E+01  2.000E+04 -4.319E-02
   1   14   22     2     9    6.3837E+04  1.7603E+03   6.2076E+04  0.000E+00  0.000E+00  0.000E+00  3.82580E+01  1.330E-01  2.000E+01  2.000E+04  8.802E-02
   1   14   22     3     1    2.2540E+05 -8.3369E+03   2.3373E+05  0.000E+00  0.000E+00  0.000E+00  3.77532E+01  1.976E-01  2.000E+01  2.000E+04 -4.168E-01
   1   15   23     3     2    2.3373E+05 -1.6695E+03   2.3540E+05  0.000E+00  0.000E+00  0.000E+00  3.68669E+01  2.002E-01  2.000E+01  2.000E+04 -8.348E-02
   1   15   24     3     3    2.3540E+05 -1.1467E+03   2.3655E+05  0.000E+00  0.000E+00  0.000E+00  3.59787E+01  2.009E-01  2.000E+01  2.000E+04 -5.734E-02
   1   15   25     3     4    2.3655E+05 -1.1051E+03   2.3766E+05  0.000E+00  0.000E+00  0.000E+00  3.50904E+01  2.015E-01  2.000E+01  2.000E+04 -5.525E-02
   1   15   26     3     5    2.3766E+05 -1.6629E+03   2.3932E+05  0.000E+00  0.000E+00  0.000E+00  3.42022E+01  2.022E-01  2.000E+01  2.000E+04 -8.315E-02
   1   16   27     3     6    2.3932E+05 -1.5296E+03   2.4085E+05  0.000E+00  0.000E+00  0.000E+00  3.33141E+01  2.030E-01  2.000E+01  2.000E+04 -7.648E-02
   1   17   28     3     7    2.4085E+05 -1.2791E+03   2.4213E+05  0.000E+00  0.000E+00  0.000E+00  3.24259E+01  2.037E-01  2.000E+01  2.000E+04 -6.396E-02
   1   18   29     3     8    2.4213E+05 -1.3783E+03   2.4351E+05  0.000E+00  0.000E+00  0.000E+00  3.15377E+01  2.044E-01  2.000E+01  2.000E+04 -6.892E-02
   1   18   30     3     9    2.4351E+05 -2.4999E+03   2.4601E+05  0.000E+00  0.000E+00  0.000E+00  3.06498E+01  2.054E-01  2.000E+01  2.000E+04 -1.250E-01



1
              HEAD IN LAYER   1 AT END OF TIME STEP   1 IN STRESS PERIOD    4
  ---------------------------------------------------------------------------

          1      2      3      4      5      6      7      8      9     10
         11     12     13     14     15     16     17     18     19     20
         21     22     23     24     25     26     27     28     29     30
 .........................................................................
   1  ****** ****** ****** ****** ****** ****** ****** ****** ****** ******
      ****** ****** ****** ****** ****** ****** ****** ****** ****** ******
      ****** ****** ****** ****** ****** ****** ****** ****** ****** ******
   2  ****** ****** ****** ****** ****** ****** ****** ****** ****** ******
      ****** ****** ****** ****** ****** ****** ****** ****** ****** ******
      ****** ****** ****** ****** ****** ****** ****** ****** ****** ******
   3  ****** ****** ****** ****** ****** ****** ****** ****** ****** ******
      ****** ****** ****** ****** ****** ****** ****** ****** ****** ******
      ****** ****** ****** ****** ****** ****** ****** ****** ****** ******
   4  ****** ****** ****** ****** ****** ****** ****** ****** ****** ******
      ****** ****** ****** ****** ****** ****** ****** ****** ****** ******
      ****** ****** ****** ****** ****** ****** ****** ****** ****** ******
   5  ****** ****** ****** ****** ****** ****** ****** ****** ****** ******
      ****** ****** ****** ****** ****** ****** ****** ****** ****** ******
      ****** ****** ****** ****** ****** ****** ****** ****** ****** ******
   6  ****** ****** ****** ****** ****** ****** ****** ****** ****** ******
      ****** ****** ****** ****** ****** ****** ****** ****** ****** ******
      ****** ****** ****** ****** ****** ****** ****** ****** ****** ******
   7  ****** ****** ****** ****** ****** ****** ****** ****** ****** ******
      ****** ****** ****** ****** ****** ****** ****** ****** ****** ******
      ****** ****** ****** ****** ****** ****** ****** ****** ****** ******
   8  ****** ****** ****** ****** ****** ****** ****** ****** ****** ******
      ****** ****** ****** ****** ****** ****** ****** ****** ****** ******
      ****** ****** ****** ****** ****** ****** ****** ****** ****** ******
   9  ****** ****** ****** ****** ****** ****** ****** ****** ****** ******
      ****** ****** ****** ****** ****** ****** ****** ****** ****** ******
      ****** ****** ****** ****** ****** ****** ****** ****** ****** ******
  10  ****** ****** ****** ****** ****** ****** ****** ****** ****** ******
      ****** ****** ****** ****** ****** ****** ****** ****** ****** ******
      ****** ****** ****** ****** ****** ****** ****** ****** ****** ******
  11  ****** ****** ****** ****** ****** ****** ****** ****** ****** ******
      ****** ****** ****** ****** ****** ****** ****** ****** ****** ******
      ****** ****** ****** ****** ****** ****** ****** ****** ****** ******
  12  ****** ****** ****** ****** ****** ****** ****** ****** ****** ******
      ****** ****** ****** ****** ****** ****** ****** ****** ****** ******
      ****** ****** ****** ****** ****** ****** ****** ****** ****** ******
  13  ****** ****** ****** ****** ****** ****** ****** ****** ****** ******
      ****** ****** ****** ****** ****** ****** ****** ****** ****** ******
      ****** ****** ****** ****** ****** ****** ****** ****** ****** ******
  14  ****** ****** ****** ****** ****** ****** ****** ****** ****** ******
      ****** ****** ****** ****** ****** ****** ****** ****** ****** ******
      ****** ****** ****** ****** ****** ****** ****** ****** ****** ******
  15  ****** ****** ****** ****** ****** ****** ****** ****** ****** ******
      ****** ****** ****** ****** ****** ****** ****** ****** ****** ******
      ****** ****** ****** ****** ****** ****** ****** ****** ****** ******
  16  ****** ****** ****** ****** ****** ****** ****** ****** ****** ******
      ****** ****** ****** ****** ****** ****** ****** ****** ****** ******
      ****** ****** ****** ****** ****** ****** ****** ****** ****** ******
  17  ****** ****** ****** ****** ****** ****** ****** ****** ****** ******
      ****** ****** ****** ****** ****** ****** ****** ****** ****** ******
      ****** ****** ****** ****** ****** ****** ****** ****** ****** ******
  18  ****** ****** ****** ****** ****** ****** ****** ****** ****** ******
      ****** ****** ****** ****** ****** ****** ****** ****** ****** ******
      ****** ****** ****** ****** ****** ****** ****** ****** ****** ******
  19  ****** ****** ****** ****** ****** ****** ****** ****** ****** ******
      ****** ****** ****** ****** ****** ****** ****** ****** ****** ******
      ****** ****** ****** ****** ****** ****** ****** ****** ****** ******
  20  ****** ****** ****** ****** ****** ****** ****** ****** ****** ******
      ****** ****** ****** ****** ****** ****** ****** ****** ****** ******
      ****** ****** ****** ****** ****** ****** ****** ****** ****** ******
  21  ****** ****** ****** ****** ****** ****** ****** ****** ****** ******
      ****** ****** ****** ****** ****** ****** ****** ****** ****** ******
      ****** ****** ****** ****** ****** ****** ****** ****** ****** ******
  22  ****** ****** ****** ****** ****** ****** ****** ****** ****** ******
      ****** ****** ****** ****** ****** ****** ****** ****** ****** ******
      ****** ****** ****** ****** ****** ****** ****** ****** ****** ******
  23  ****** ****** ****** ****** ****** ****** ****** ****** ****** ******
      ****** ****** ****** ****** ****** ****** ****** ****** ****** ******
      ****** ****** ****** ****** ****** ****** ****** ****** ****** ******
  24  ****** ****** ****** ****** ****** ****** ****** ****** ****** ******
      ****** ****** ****** ****** ****** ****** ****** ****** ****** ******
      ****** ****** ****** ****** ****** ****** ****** ****** ****** ******
  25  ****** ****** ****** ****** ****** ****** ****** ****** ****** ******
      ****** ****** ****** ****** ****** ****** ****** ****** ****** ******
      ****** ****** ****** ****** ****** ****** ****** ****** ****** ******

 HEAD WILL BE SAVED ON UNIT   51 AT END OF TIME STEP    1, STRESS PERIOD    4
1
  VOLUMETRIC BUDGET FOR ENTIRE MODEL AT END OF TIME STEP    1, STRESS PERIOD   4
  ------------------------------------------------------------------------------

     CUMULATIVE VOLUMES      L**3       RATES FOR THIS TIME STEP      L**3/T
     ------------------                 ------------------------

           IN:                                      IN:
           ---                                      ---
             STORAGE =    24479203.4164               STORAGE =        1693.8125
       CONSTANT HEAD =    64375599.3749         CONSTANT HEAD =      195142.1262
               WELLS =           0.0000                 WELLS =           0.0000
            RECHARGE =     8804400.0000              RECHARGE =       27600.0000
      STREAM LEAKAGE =     2364039.5825        STREAM LEAKAGE =        7053.2048

            TOTAL IN =   100023242.3738              TOTAL IN =      231489.1435

          OUT:                                     OUT:
          ----                                     ----
             STORAGE =       10932.6226               STORAGE =         120.1387
       CONSTANT HEAD =           0.0000         CONSTANT HEAD =           0.0000
               WELLS =    46833230.1749                 WELLS =      128310.2197
            RECHARGE =           0.0000              RECHARGE =           0.0000
      STREAM LEAKAGE =    53179080.3036        STREAM LEAKAGE =      103058.7835

           TOTAL OUT =   100023243.1011             TOTAL OUT =      231489.1419

            IN - OUT =          -0.7273              IN - OUT =       1.6537E-03

 PERCENT DISCREPANCY =          -0.00     PERCENT DISCREPANCY =           0.00






         TIME SUMMARY AT END OF TIME STEP    1 IN STRESS PERIOD    4
                    SECONDS     MINUTES      HOURS       DAYS        YEARS
                    -----------------------------------------------------------
   TIME STEP LENGTH 7.86240E+06 1.31040E+05  2184.0      91.000     0.24914    
 STRESS PERIOD TIME 7.86240E+06 1.31040E+05  2184.0      91.000     0.24914    
         TOTAL TIME 3.15360E+07 5.25600E+05  8760.0      365.00     0.99932    
1
1
                            STRESS PERIOD NO.    5, LENGTH =   92.00000    
                            -----------------------------------------------

                              NUMBER OF TIME STEPS =     1

                               MULTIPLIER FOR DELT =     1.500

                            INITIAL TIME STEP SIZE =   92.00000    

 WELL NO.  LAYER   ROW   COL   STRESS RATE         
 --------------------------------------------------
      1      1     23     20     -0.3361E+05
      2      1     23      4     -0.3381E+05
      3      1      5     26     -0.3082E+05
      4      1     21     27     -0.3006E+05

      4 WELLS

                 RECHARGE =  5.000000E-04

 REUSING STREAM SEGMENT DATA FROM LAST STRESS PERIOD
 
 SOLVING FOR HEAD 


     6 CALLS TO PCG ROUTINE FOR TIME STEP   1 IN STRESS PERIOD    5
    23 TOTAL ITERATIONS

 OUTPUT CONTROL FOR STRESS PERIOD    5   TIME STEP    1
    SAVE BUDGET
    SAVE HEAD FOR ALL LAYERS
    PRINT HEAD FOR ALL LAYERS
 UBDSV2 SAVING "STREAMFLOW OUT  " ON UNIT  50 AT TIME STEP  1, STRESS PERIOD   5



 STREAM LISTING     PERIOD      5   STEP        1

 LAYER ROW COL. STREAM  RCH.  FLOW INTO     FLOW TO   FLOW OUT OF   OVRLND.     DIRECT     STREAM       STREAM     STREAM     STREAM   STREAMBED  STREAMBED
                SEG.NO.  NO.  STRM. RCH.    AQUIFER    STRM. RCH.    RUNOFF     PRECIP       ET          HEAD       DEPTH      WIDTH   CONDCTNC.   GRADIENT

   1   13    1     1     1    1.0000E+05 -2.4633E+03   1.0246E+05  0.000E+00  0.000E+00  0.000E+00  4.84071E+01  1.457E-01  2.000E+01  2.000E+04 -1.232E-01
   1   13    2     1     2    1.0246E+05 -4.4498E+03   1.0691E+05  0.000E+00  0.000E+00  0.000E+00  4.79328E+01  1.487E-01  2.000E+01  2.000E+04 -2.225E-01
   1   14    3     1     3    1.0691E+05 -3.1265E+03   1.1004E+05  0.000E+00  0.000E+00  0.000E+00  4.74587E+01  1.519E-01  2.000E+01  2.000E+04 -1.563E-01
   1   15    4     1     4    1.1004E+05 -2.6991E+03   1.1274E+05  0.000E+00  0.000E+00  0.000E+00  4.69839E+01  1.543E-01  2.000E+01  2.000E+04 -1.350E-01
   1   16    5     1     5    1.1274E+05 -2.4549E+03   1.1519E+05  0.000E+00  0.000E+00  0.000E+00  4.65087E+01  1.565E-01  2.000E+01  2.000E+04 -1.227E-01
   1   16    6     1     6    1.1519E+05 -2.3290E+03   1.1752E+05  0.000E+00  0.000E+00  0.000E+00  4.60334E+01  1.584E-01  2.000E+01  2.000E+04 -1.164E-01
   1   16    7     1     7    1.1752E+05 -2.5654E+03   1.2009E+05  0.000E+00  0.000E+00  0.000E+00  4.55581E+01  1.604E-01  2.000E+01  2.000E+04 -1.283E-01
   1   16    8     1     8    1.2009E+05 -2.7328E+03   1.2282E+05  0.000E+00  0.000E+00  0.000E+00  4.50830E+01  1.625E-01  2.000E+01  2.000E+04 -1.366E-01
   1   16    9     1     9    1.2282E+05 -2.8297E+03   1.2565E+05  0.000E+00  0.000E+00  0.000E+00  4.46079E+01  1.648E-01  2.000E+01  2.000E+04 -1.415E-01
   1   16   10     1    10    1.2565E+05 -2.8571E+03   1.2851E+05  0.000E+00  0.000E+00  0.000E+00  4.41329E+01  1.670E-01  2.000E+01  2.000E+04 -1.429E-01
   1   16   11     1    11    1.2851E+05 -2.8299E+03   1.3134E+05  0.000E+00  0.000E+00  0.000E+00  4.36579E+01  1.693E-01  2.000E+01  2.000E+04 -1.415E-01
   1   16   12     1    12    1.3134E+05 -3.5976E+03   1.3494E+05  0.000E+00  0.000E+00  0.000E+00  4.31831E+01  1.718E-01  2.000E+01  2.000E+04 -1.799E-01
   1   15   13     1    13    1.3494E+05 -3.4253E+03   1.3836E+05  0.000E+00  0.000E+00  0.000E+00  4.27085E+01  1.745E-01  2.000E+01  2.000E+04 -1.713E-01
   1   14   14     1    14    1.3836E+05 -3.5383E+03   1.4190E+05  0.000E+00  0.000E+00  0.000E+00  4.22339E+01  1.771E-01  2.000E+01  2.000E+04 -1.769E-01
   1   13   15     1    15    1.4190E+05 -3.8811E+03   1.4578E+05  0.000E+00  0.000E+00  0.000E+00  4.17595E+01  1.799E-01  2.000E+01  2.000E+04 -1.941E-01
   1   12   16     1    16    1.4578E+05 -5.1025E+03   1.5088E+05  0.000E+00  0.000E+00  0.000E+00  4.12855E+01  1.833E-01  2.000E+01  2.000E+04 -2.551E-01
   1   12   17     1    17    1.5088E+05 -3.2192E+03   1.5410E+05  0.000E+00  0.000E+00  0.000E+00  4.08113E+01  1.863E-01  2.000E+01  2.000E+04 -1.610E-01
   1   12   18     1    18    1.5410E+05 -3.0181E+03   1.5712E+05  0.000E+00  0.000E+00  0.000E+00  4.03363E+01  1.886E-01  2.000E+01  2.000E+04 -1.509E-01
   1   12   19     1    19    1.5712E+05 -3.8625E+03   1.6098E+05  0.000E+00  0.000E+00  0.000E+00  3.98615E+01  1.911E-01  2.000E+01  2.000E+04 -1.931E-01
   1   13   20     1    20    1.6098E+05 -2.2826E+03   1.6326E+05  0.000E+00  0.000E+00  0.000E+00  3.93865E+01  1.933E-01  2.000E+01  2.000E+04 -1.141E-01
   1   14   21     1    21    1.6326E+05 -1.3024E+03   1.6457E+05  0.000E+00  0.000E+00  0.000E+00  3.89105E+01  1.946E-01  2.000E+01  2.000E+04 -6.512E-02
   1   14   22     1    22    1.6457E+05  5.3208E+03   1.5925E+05  0.000E+00  0.000E+00  0.000E+00  3.84318E+01  1.931E-01  2.000E+01  2.000E+04  2.660E-01
   1    9   30     2     1    5.0000E+04 -1.3193E+03   5.1319E+04  0.000E+00  0.000E+00  0.000E+00  4.02418E+01  1.168E-01  2.000E+01  2.000E+04 -6.597E-02
   1    9   29     2     2    5.1319E+04 -1.4859E+03   5.2805E+04  0.000E+00  0.000E+00  0.000E+00  3.99937E+01  1.187E-01  2.000E+01  2.000E+04 -7.429E-02
   1    9   28     2     3    5.2805E+04 -1.5176E+03   5.4323E+04  0.000E+00  0.000E+00  0.000E+00  3.97458E+01  1.208E-01  2.000E+01  2.000E+04 -7.588E-02
   1    9   27     2     4    5.4323E+04 -2.7538E+03   5.7077E+04  0.000E+00  0.000E+00  0.000E+00  3.94986E+01  1.236E-01  2.000E+01  2.000E+04 -1.377E-01
   1   10   26     2     5    5.7077E+04 -1.9407E+03   5.9017E+04  0.000E+00  0.000E+00  0.000E+00  3.92517E+01  1.267E-01  2.000E+01  2.000E+04 -9.704E-02
   1   11   25     2     6    5.9017E+04 -1.6637E+03   6.0681E+04  0.000E+00  0.000E+00  0.000E+00  3.90041E+01  1.291E-01  2.000E+01  2.000E+04 -8.319E-02
   1   12   24     2     7    6.0681E+04 -1.2685E+03   6.1950E+04  0.000E+00  0.000E+00  0.000E+00  3.87560E+01  1.310E-01  2.000E+01  2.000E+04 -6.343E-02
   1   13   23     2     8    6.1950E+04 -7.4928E+02   6.2699E+04  0.000E+00  0.000E+00  0.000E+00  3.85072E+01  1.322E-01  2.000E+01  2.000E+04 -3.746E-02
   1   14   22     2     9    6.2699E+04  1.8163E+03   6.0883E+04  0.000E+00  0.000E+00  0.000E+00  3.82566E+01  1.316E-01  2.000E+01  2.000E+04  9.082E-02
   1   14   22     3     1    2.2013E+05 -8.3061E+03   2.2844E+05  0.000E+00  0.000E+00  0.000E+00  3.77504E+01  1.949E-01  2.000E+01  2.000E+04 -4.153E-01
   1   15   23     3     2    2.2844E+05 -1.5134E+03   2.2995E+05  0.000E+00  0.000E+00  0.000E+00  3.68641E+01  1.974E-01  2.000E+01  2.000E+04 -7.567E-02
   1   15   24     3     3    2.2995E+05 -1.0401E+03   2.3099E+05  0.000E+00  0.000E+00  0.000E+00  3.59759E+01  1.981E-01  2.000E+01  2.000E+04 -5.200E-02
   1   15   25     3     4    2.3099E+05 -1.0025E+03   2.3199E+05  0.000E+00  0.000E+00  0.000E+00  3.50875E+01  1.986E-01  2.000E+01  2.000E+04 -5.012E-02
   1   15   26     3     5    2.3199E+05 -1.5391E+03   2.3353E+05  0.000E+00  0.000E+00  0.000E+00  3.41993E+01  1.993E-01  2.000E+01  2.000E+04 -7.695E-02
   1   16   27     3     6    2.3353E+05 -1.3681E+03   2.3490E+05  0.000E+00  0.000E+00  0.000E+00  3.33111E+01  2.000E-01  2.000E+01  2.000E+04 -6.840E-02
   1   17   28     3     7    2.3490E+05 -1.1129E+03   2.3601E+05  0.000E+00  0.000E+00  0.000E+00  3.24229E+01  2.007E-01  2.000E+01  2.000E+04 -5.564E-02
   1   18   29     3     8    2.3601E+05 -1.2188E+03   2.3723E+05  0.000E+00  0.000E+00  0.000E+00  3.15346E+01  2.012E-01  2.000E+01  2.000E+04 -6.094E-02
   1   18   30     3     9    2.3723E+05 -2.3844E+03   2.3961E+05  0.000E+00  0.000E+00  0.000E+00  3.06466E+01  2.022E-01  2.000E+01  2.000E+04 -1.192E-01



1
              HEAD IN LAYER   1 AT END OF TIME STEP   1 IN STRESS PERIOD    5
  ---------------------------------------------------------------------------

          1      2      3      4      5      6      7      8      9     10
         11     12     13     14     15     16     17     18     19     20
         21     22     23     24     25     26     27     28     29     30
 .........................................................................
   1  ****** ****** ****** ****** ****** ****** ****** ****** ****** ******
      ****** ****** ****** ****** ****** ****** ****** ****** ****** ******
      ****** ****** ****** ****** ****** ****** ****** ****** ****** ******
   2  ****** ****** ****** ****** ****** ****** ****** ****** ****** ******
      ****** ****** ****** ****** ****** ****** ****** ****** ****** ******
      ****** ****** ****** ****** ****** ****** ****** ****** ****** ******
   3  ****** ****** ****** ****** ****** ****** ****** ****** ****** ******
      ****** ****** ****** ****** ****** ****** ****** ****** ****** ******
      ****** ****** ****** ****** ****** ****** ****** ****** ****** ******
   4  ****** ****** ****** ****** ****** ****** ****** ****** ****** ******
      ****** ****** ****** ****** ****** ****** ****** ****** ****** ******
      ****** ****** ****** ****** ****** ****** ****** ****** ****** ******
   5  ****** ****** ****** ****** ****** ****** ****** ****** ****** ******
      ****** ****** ****** ****** ****** ****** ****** ****** ****** ******
      ****** ****** ****** ****** ****** ****** ****** ****** ****** ******
   6  ****** ****** ****** ****** ****** ****** ****** ****** ****** ******
      ****** ****** ****** ****** ****** ****** ****** ****** ****** ******
      ****** ****** ****** ****** ****** ****** ****** ****** ****** ******
   7  ****** ****** ****** ****** ****** ****** ****** ****** ****** ******
      ****** ****** ****** ****** ****** ****** ****** ****** ****** ******
      ****** ****** ****** ****** ****** ****** ****** ****** ****** ******
   8  ****** ****** ****** ****** ****** ****** ****** ****** ****** ******
      ****** ****** ****** ****** ****** ****** ****** ****** ****** ******
      ****** ****** ****** ****** ****** ****** ****** ****** ****** ******
   9  ****** ****** ****** ****** ****** ****** ****** ****** ****** ******
      ****** ****** ****** ****** ****** ****** ****** ****** ****** ******
      ****** ****** ****** ****** ****** ****** ****** ****** ****** ******
  10  ****** ****** ****** ****** ****** ****** ****** ****** ****** ******
      ****** ****** ****** ****** ****** ****** ****** ****** ****** ******
      ****** ****** ****** ****** ****** ****** ****** ****** ****** ******
  11  ****** ****** ****** ****** ****** ****** ****** ****** ****** ******
      ****** ****** ****** ****** ****** ****** ****** ****** ****** ******
      ****** ****** ****** ****** ****** ****** ****** ****** ****** ******
  12  ****** ****** ****** ****** ****** ****** ****** ****** ****** ******
      ****** ****** ****** ****** ****** ****** ****** ****** ****** ******
      ****** ****** ****** ****** ****** ****** ****** ****** ****** ******
  13  ****** ****** ****** ****** ****** ****** ****** ****** ****** ******
      ****** ****** ****** ****** ****** ****** ****** ****** ****** ******
      ****** ****** ****** ****** ****** ****** ****** ****** ****** ******
  14  ****** ****** ****** ****** ****** ****** ****** ****** ****** ******
      ****** ****** ****** ****** ****** ****** ****** ****** ****** ******
      ****** ****** ****** ****** ****** ****** ****** ****** ****** ******
  15  ****** ****** ****** ****** ****** ****** ****** ****** ****** ******
      ****** ****** ****** ****** ****** ****** ****** ****** ****** ******
      ****** ****** ****** ****** ****** ****** ****** ****** ****** ******
  16  ****** ****** ****** ****** ****** ****** ****** ****** ****** ******
      ****** ****** ****** ****** ****** ****** ****** ****** ****** ******
      ****** ****** ****** ****** ****** ****** ****** ****** ****** ******
  17  ****** ****** ****** ****** ****** ****** ****** ****** ****** ******
      ****** ****** ****** ****** ****** ****** ****** ****** ****** ******
      ****** ****** ****** ****** ****** ****** ****** ****** ****** ******
  18  ****** ****** ****** ****** ****** ****** ****** ****** ****** ******
      ****** ****** ****** ****** ****** ****** ****** ****** ****** ******
      ****** ****** ****** ****** ****** ****** ****** ****** ****** ******
  19  ****** ****** ****** ****** ****** ****** ****** ****** ****** ******
      ****** ****** ****** ****** ****** ****** ****** ****** ****** ******
      ****** ****** ****** ****** ****** ****** ****** ****** ****** ******
  20  ****** ****** ****** ****** ****** ****** ****** ****** ****** ******
      ****** ****** ****** ****** ****** ****** ****** ****** ****** ******
      ****** ****** ****** ****** ****** ****** ****** ****** ****** ******
  21  ****** ****** ****** ****** ****** ****** ****** ****** ****** ******
      ****** ****** ****** ****** ****** ****** ****** ****** ****** ******
      ****** ****** ****** ****** ****** ****** ****** ****** ****** ******
  22  ****** ****** ****** ****** ****** ****** ****** ****** ****** ******
      ****** ****** ****** ****** ****** ****** ****** ****** ****** ******
      ****** ****** ****** ****** ****** ****** ****** ****** ****** ******
  23  ****** ****** ****** ****** ****** ****** ****** ****** ****** ******
      ****** ****** ****** ****** ****** ****** ****** ****** ****** ******
      ****** ****** ****** ****** ****** ****** ****** ****** ****** ******
  24  ****** ****** ****** ****** ****** ****** ****** ****** ****** ******
      ****** ****** ****** ****** ****** ****** ****** ****** ****** ******
      ****** ****** ****** ****** ****** ****** ****** ****** ****** ******
  25  ****** ****** ****** ****** ****** ****** ****** ****** ****** ******
      ****** ****** ****** ****** ****** ****** ****** ****** ****** ******
      ****** ****** ****** ****** ****** ****** ****** ****** ****** ******

 HEAD WILL BE SAVED ON UNIT   51 AT END OF TIME STEP    1, STRESS PERIOD    5
1
  VOLUMETRIC BUDGET FOR ENTIRE MODEL AT END OF TIME STEP    1, STRESS PERIOD   5
  ------------------------------------------------------------------------------

     CUMULATIVE VOLUMES      L**3       RATES FOR THIS TIME STEP      L**3/T
     ------------------                 ------------------------

           IN:                                      IN:
           ---                                      ---
             STORAGE =    24897895.6555               STORAGE =        4551.0026
       CONSTANT HEAD =    82736360.1977         CONSTANT HEAD =      199573.4872
               WELLS =           0.0000                 WELLS =           0.0000
            RECHARGE =    10074000.0000              RECHARGE =       13800.0000
      STREAM LEAKAGE =     3020653.3088        STREAM LEAKAGE =        7137.1057

            TOTAL IN =   120728909.1619              TOTAL IN =      225061.5955

          OUT:                                     OUT:
          ----                                     ----
             STORAGE =       10932.6226               STORAGE =           0.0000
       CONSTANT HEAD =           0.0000         CONSTANT HEAD =           0.0000
               WELLS =    58637770.3833                 WELLS =      128310.2197
            RECHARGE =           0.0000              RECHARGE =           0.0000
      STREAM LEAKAGE =    62080206.9574        STREAM LEAKAGE =       96751.3767

           TOTAL OUT =   120728909.9634             TOTAL OUT =      225061.5963

            IN - OUT =          -0.8014              IN - OUT =      -8.0608E-04

 PERCENT DISCREPANCY =          -0.00     PERCENT DISCREPANCY =          -0.00






         TIME SUMMARY AT END OF TIME STEP    1 IN STRESS PERIOD    5
                    SECONDS     MINUTES      HOURS       DAYS        YEARS
                    -----------------------------------------------------------
   TIME STEP LENGTH 7.94880E+06 1.32480E+05  2208.0      92.000     0.25188    
 STRESS PERIOD TIME 7.94880E+06 1.32480E+05  2208.0      92.000     0.25188    
         TOTAL TIME 3.94848E+07 6.58080E+05  10968.      457.00      1.2512    
1
1
                            STRESS PERIOD NO.    6, LENGTH =   91.00000    
                            -----------------------------------------------

                              NUMBER OF TIME STEPS =     1

                               MULTIPLIER FOR DELT =     1.500

                            INITIAL TIME STEP SIZE =   91.00000    

 WELL NO.  LAYER   ROW   COL   STRESS RATE         
 --------------------------------------------------
      1      1     23     20     -0.3361E+05
      2      1     23      4     -0.3381E+05
      3      1      5     26     -0.3082E+05
      4      1     21     27     -0.3006E+05

      4 WELLS

                 RECHARGE =  2.000000E-03

 REUSING STREAM SEGMENT DATA FROM LAST STRESS PERIOD
 
 SOLVING FOR HEAD 


     7 CALLS TO PCG ROUTINE FOR TIME STEP   1 IN STRESS PERIOD    6
    26 TOTAL ITERATIONS

 OUTPUT CONTROL FOR STRESS PERIOD    6   TIME STEP    1
    SAVE BUDGET
    SAVE HEAD FOR ALL LAYERS
    PRINT HEAD FOR ALL LAYERS
 UBDSV2 SAVING "STREAMFLOW OUT  " ON UNIT  50 AT TIME STEP  1, STRESS PERIOD   6



 STREAM LISTING     PERIOD      6   STEP        1

 LAYER ROW COL. STREAM  RCH.  FLOW INTO     FLOW TO   FLOW OUT OF   OVRLND.     DIRECT     STREAM       STREAM     STREAM     STREAM   STREAMBED  STREAMBED
                SEG.NO.  NO.  STRM. RCH.    AQUIFER    STRM. RCH.    RUNOFF     PRECIP       ET          HEAD       DEPTH      WIDTH   CONDCTNC.   GRADIENT

   1   13    1     1     1    1.0000E+05 -2.8615E+03   1.0286E+05  0.000E+00  0.000E+00  0.000E+00  4.84073E+01  1.459E-01  2.000E+01  2.000E+04 -1.431E-01
   1   13    2     1     2    1.0286E+05 -4.9739E+03   1.0784E+05  0.000E+00  0.000E+00  0.000E+00  4.79333E+01  1.492E-01  2.000E+01  2.000E+04 -2.487E-01
   1   14    3     1     3    1.0784E+05 -3.6637E+03   1.1150E+05  0.000E+00  0.000E+00  0.000E+00  4.74597E+01  1.529E-01  2.000E+01  2.000E+04 -1.832E-01
   1   15    4     1     4    1.1150E+05 -3.2332E+03   1.1473E+05  0.000E+00  0.000E+00  0.000E+00  4.69853E+01  1.558E-01  2.000E+01  2.000E+04 -1.617E-01
   1   16    5     1     5    1.1473E+05 -2.9500E+03   1.1768E+05  0.000E+00  0.000E+00  0.000E+00  4.65106E+01  1.583E-01  2.000E+01  2.000E+04 -1.475E-01
   1   16    6     1     6    1.1768E+05 -2.7189E+03   1.2040E+05  0.000E+00  0.000E+00  0.000E+00  4.60356E+01  1.606E-01  2.000E+01  2.000E+04 -1.359E-01
   1   16    7     1     7    1.2040E+05 -2.9611E+03   1.2336E+05  0.000E+00  0.000E+00  0.000E+00  4.55606E+01  1.629E-01  2.000E+01  2.000E+04 -1.481E-01
   1   16    8     1     8    1.2336E+05 -3.1319E+03   1.2649E+05  0.000E+00  0.000E+00  0.000E+00  4.50858E+01  1.653E-01  2.000E+01  2.000E+04 -1.566E-01
   1   16    9     1     9    1.2649E+05 -3.2287E+03   1.2972E+05  0.000E+00  0.000E+00  0.000E+00  4.46110E+01  1.678E-01  2.000E+01  2.000E+04 -1.614E-01
   1   16   10     1    10    1.2972E+05 -3.2526E+03   1.3298E+05  0.000E+00  0.000E+00  0.000E+00  4.41363E+01  1.704E-01  2.000E+01  2.000E+04 -1.626E-01
   1   16   11     1    11    1.3298E+05 -3.2203E+03   1.3620E+05  0.000E+00  0.000E+00  0.000E+00  4.36615E+01  1.729E-01  2.000E+01  2.000E+04 -1.610E-01
   1   16   12     1    12    1.3620E+05 -4.1001E+03   1.4030E+05  0.000E+00  0.000E+00  0.000E+00  4.31870E+01  1.757E-01  2.000E+01  2.000E+04 -2.050E-01
   1   15   13     1    13    1.4030E+05 -3.9702E+03   1.4427E+05  0.000E+00  0.000E+00  0.000E+00  4.27128E+01  1.787E-01  2.000E+01  2.000E+04 -1.985E-01
   1   14   14     1    14    1.4427E+05 -4.0926E+03   1.4836E+05  0.000E+00  0.000E+00  0.000E+00  4.22386E+01  1.818E-01  2.000E+01  2.000E+04 -2.046E-01
   1   13   15     1    15    1.4836E+05 -4.4258E+03   1.5278E+05  0.000E+00  0.000E+00  0.000E+00  4.17645E+01  1.849E-01  2.000E+01  2.000E+04 -2.213E-01
   1   12   16     1    16    1.5278E+05 -5.6221E+03   1.5841E+05  0.000E+00  0.000E+00  0.000E+00  4.12909E+01  1.886E-01  2.000E+01  2.000E+04 -2.811E-01
   1   12   17     1    17    1.5841E+05 -3.6078E+03   1.6201E+05  0.000E+00  0.000E+00  0.000E+00  4.08169E+01  1.919E-01  2.000E+01  2.000E+04 -1.804E-01
   1   12   18     1    18    1.6201E+05 -3.4007E+03   1.6542E+05  0.000E+00  0.000E+00  0.000E+00  4.03422E+01  1.944E-01  2.000E+01  2.000E+04 -1.700E-01
   1   12   19     1    19    1.6542E+05 -4.3293E+03   1.6974E+05  0.000E+00  0.000E+00  0.000E+00  3.98676E+01  1.972E-01  2.000E+01  2.000E+04 -2.165E-01
   1   13   20     1    20    1.6974E+05 -2.7394E+03   1.7248E+05  0.000E+00  0.000E+00  0.000E+00  3.93928E+01  1.997E-01  2.000E+01  2.000E+04 -1.370E-01
   1   14   21     1    21    1.7248E+05 -1.7224E+03   1.7421E+05  0.000E+00  0.000E+00  0.000E+00  3.89171E+01  2.012E-01  2.000E+01  2.000E+04 -8.612E-02
   1   14   22     1    22    1.7421E+05  5.2388E+03   1.6897E+05  0.000E+00  0.000E+00  0.000E+00  3.84386E+01  2.000E-01  2.000E+01  2.000E+04  2.619E-01
   1    9   30     2     1    5.0000E+04 -1.6751E+03   5.1675E+04  0.000E+00  0.000E+00  0.000E+00  4.02420E+01  1.170E-01  2.000E+01  2.000E+04 -8.376E-02
   1    9   29     2     2    5.1675E+04 -1.8387E+03   5.3514E+04  0.000E+00  0.000E+00  0.000E+00  3.99944E+01  1.194E-01  2.000E+01  2.000E+04 -9.193E-02
   1    9   28     2     3    5.3514E+04 -1.8681E+03   5.5382E+04  0.000E+00  0.000E+00  0.000E+00  3.97469E+01  1.219E-01  2.000E+01  2.000E+04 -9.341E-02
   1    9   27     2     4    5.5382E+04 -3.2204E+03   5.8602E+04  0.000E+00  0.000E+00  0.000E+00  3.95003E+01  1.253E-01  2.000E+01  2.000E+04 -1.610E-01
   1   10   26     2     5    5.8602E+04 -2.4244E+03   6.1027E+04  0.000E+00  0.000E+00  0.000E+00  3.92540E+01  1.290E-01  2.000E+01  2.000E+04 -1.212E-01
   1   11   25     2     6    6.1027E+04 -2.1267E+03   6.3153E+04  0.000E+00  0.000E+00  0.000E+00  3.90069E+01  1.319E-01  2.000E+01  2.000E+04 -1.063E-01
   1   12   24     2     7    6.3153E+04 -1.6779E+03   6.4831E+04  0.000E+00  0.000E+00  0.000E+00  3.87594E+01  1.344E-01  2.000E+01  2.000E+04 -8.390E-02
   1   13   23     2     8    6.4831E+04 -1.0687E+03   6.5900E+04  0.000E+00  0.000E+00  0.000E+00  3.85111E+01  1.361E-01  2.000E+01  2.000E+04 -5.344E-02
   1   14   22     2     9    6.5900E+04  1.6801E+03   6.4220E+04  0.000E+00  0.000E+00  0.000E+00  3.82607E+01  1.357E-01  2.000E+01  2.000E+04  8.400E-02
   1   14   22     3     1    2.3319E+05 -8.3900E+03   2.4158E+05  0.000E+00  0.000E+00  0.000E+00  3.77572E+01  2.016E-01  2.000E+01  2.000E+04 -4.195E-01
   1   15   23     3     2    2.4158E+05 -1.9056E+03   2.4348E+05  0.000E+00  0.000E+00  0.000E+00  3.68709E+01  2.042E-01  2.000E+01  2.000E+04 -9.528E-02
   1   15   24     3     3    2.4348E+05 -1.3249E+03   2.4481E+05  0.000E+00  0.000E+00  0.000E+00  3.59828E+01  2.051E-01  2.000E+01  2.000E+04 -6.624E-02
   1   15   25     3     4    2.4481E+05 -1.2886E+03   2.4610E+05  0.000E+00  0.000E+00  0.000E+00  3.50946E+01  2.057E-01  2.000E+01  2.000E+04 -6.443E-02
   1   15   26     3     5    2.4610E+05 -1.9091E+03   2.4801E+05  0.000E+00  0.000E+00  0.000E+00  3.42065E+01  2.065E-01  2.000E+01  2.000E+04 -9.545E-02
   1   16   27     3     6    2.4801E+05 -1.8313E+03   2.4984E+05  0.000E+00  0.000E+00  0.000E+00  3.33186E+01  2.075E-01  2.000E+01  2.000E+04 -9.157E-02
   1   17   28     3     7    2.4984E+05 -1.5856E+03   2.5142E+05  0.000E+00  0.000E+00  0.000E+00  3.24305E+01  2.083E-01  2.000E+01  2.000E+04 -7.928E-02
   1   18   29     3     8    2.5142E+05 -1.6616E+03   2.5308E+05  0.000E+00  0.000E+00  0.000E+00  3.15425E+01  2.091E-01  2.000E+01  2.000E+04 -8.308E-02
   1   18   30     3     9    2.5308E+05 -2.7191E+03   2.5580E+05  0.000E+00  0.000E+00  0.000E+00  3.06547E+01  2.102E-01  2.000E+01  2.000E+04 -1.360E-01



1
              HEAD IN LAYER   1 AT END OF TIME STEP   1 IN STRESS PERIOD    6
  ---------------------------------------------------------------------------

          1      2      3      4      5      6      7      8      9     10
         11     12     13     14     15     16     17     18     19     20
         21     22     23     24     25     26     27     28     29     30
 .........................................................................
   1  ****** ****** ****** ****** ****** ****** ****** ****** ****** ******
      ****** ****** ****** ****** ****** ****** ****** ****** ****** ******
      ****** ****** ****** ****** ****** ****** ****** ****** ****** ******
   2  ****** ****** ****** ****** ****** ****** ****** ****** ****** ******
      ****** ****** ****** ****** ****** ****** ****** ****** ****** ******
      ****** ****** ****** ****** ****** ****** ****** ****** ****** ******
   3  ****** ****** ****** ****** ****** ****** ****** ****** ****** ******
      ****** ****** ****** ****** ****** ****** ****** ****** ****** ******
      ****** ****** ****** ****** ****** ****** ****** ****** ****** ******
   4  ****** ****** ****** ****** ****** ****** ****** ****** ****** ******
      ****** ****** ****** ****** ****** ****** ****** ****** ****** ******
      ****** ****** ****** ****** ****** ****** ****** ****** ****** ******
   5  ****** ****** ****** ****** ****** ****** ****** ****** ****** ******
      ****** ****** ****** ****** ****** ****** ****** ****** ****** ******
      ****** ****** ****** ****** ****** ****** ****** ****** ****** ******
   6  ****** ****** ****** ****** ****** ****** ****** ****** ****** ******
      ****** ****** ****** ****** ****** ****** ****** ****** ****** ******
      ****** ****** ****** ****** ****** ****** ****** ****** ****** ******
   7  ****** ****** ****** ****** ****** ****** ****** ****** ****** ******
      ****** ****** ****** ****** ****** ****** ****** ****** ****** ******
      ****** ****** ****** ****** ****** ****** ****** ****** ****** ******
   8  ****** ****** ****** ****** ****** ****** ****** ****** ****** ******
      ****** ****** ****** ****** ****** ****** ****** ****** ****** ******
      ****** ****** ****** ****** ****** ****** ****** ****** ****** ******
   9  ****** ****** ****** ****** ****** ****** ****** ****** ****** ******
      ****** ****** ****** ****** ****** ****** ****** ****** ****** ******
      ****** ****** ****** ****** ****** ****** ****** ****** ****** ******
  10  ****** ****** ****** ****** ****** ****** ****** ****** ****** ******
      ****** ****** ****** ****** ****** ****** ****** ****** ****** ******
      ****** ****** ****** ****** ****** ****** ****** ****** ****** ******
  11  ****** ****** ****** ****** ****** ****** ****** ****** ****** ******
      ****** ****** ****** ****** ****** ****** ****** ****** ****** ******
      ****** ****** ****** ****** ****** ****** ****** ****** ****** ******
  12  ****** ****** ****** ****** ****** ****** ****** ****** ****** ******
      ****** ****** ****** ****** ****** ****** ****** ****** ****** ******
      ****** ****** ****** ****** ****** ****** ****** ****** ****** ******
  13  ****** ****** ****** ****** ****** ****** ****** ****** ****** ******
      ****** ****** ****** ****** ****** ****** ****** ****** ****** ******
      ****** ****** ****** ****** ****** ****** ****** ****** ****** ******
  14  ****** ****** ****** ****** ****** ****** ****** ****** ****** ******
      ****** ****** ****** ****** ****** ****** ****** ****** ****** ******
      ****** ****** ****** ****** ****** ****** ****** ****** ****** ******
  15  ****** ****** ****** ****** ****** ****** ****** ****** ****** ******
      ****** ****** ****** ****** ****** ****** ****** ****** ****** ******
      ****** ****** ****** ****** ****** ****** ****** ****** ****** ******
  16  ****** ****** ****** ****** ****** ****** ****** ****** ****** ******
      ****** ****** ****** ****** ****** ****** ****** ****** ****** ******
      ****** ****** ****** ****** ****** ****** ****** ****** ****** ******
  17  ****** ****** ****** ****** ****** ****** ****** ****** ****** ******
      ****** ****** ****** ****** ****** ****** ****** ****** ****** ******
      ****** ****** ****** ****** ****** ****** ****** ****** ****** ******
  18  ****** ****** ****** ****** ****** ****** ****** ****** ****** ******
      ****** ****** ****** ****** ****** ****** ****** ****** ****** ******
      ****** ****** ****** ****** ****** ****** ****** ****** ****** ******
  19  ****** ****** ****** ****** ****** ****** ****** ****** ****** ******
      ****** ****** ****** ****** ****** ****** ****** ****** ****** ******
      ****** ****** ****** ****** ****** ****** ****** ****** ****** ******
  20  ****** ****** ****** ****** ****** ****** ****** ****** ****** ******
      ****** ****** ****** ****** ****** ****** ****** ****** ****** ******
      ****** ****** ****** ****** ****** ****** ****** ****** ****** ******
  21  ****** ****** ****** ****** ****** ****** ****** ****** ****** ******
      ****** ****** ****** ****** ****** ****** ****** ****** ****** ******
      ****** ****** ****** ****** ****** ****** ****** ****** ****** ******
  22  ****** ****** ****** ****** ****** ****** ****** ****** ****** ******
      ****** ****** ****** ****** ****** ****** ****** ****** ****** ******
      ****** ****** ****** ****** ****** ****** ****** ****** ****** ******
  23  ****** ****** ****** ****** ****** ****** ****** ****** ****** ******
      ****** ****** ****** ****** ****** ****** ****** ****** ****** ******
      ****** ****** ****** ****** ****** ****** ****** ****** ****** ******
  24  ****** ****** ****** ****** ****** ****** ****** ****** ****** ******
      ****** ****** ****** ****** ****** ****** ****** ****** ****** ******
      ****** ****** ****** ****** ****** ****** ****** ****** ****** ******
  25  ****** ****** ****** ****** ****** ****** ****** ****** ****** ******
      ****** ****** ****** ****** ****** ****** ****** ****** ****** ******
      ****** ****** ****** ****** ****** ****** ****** ****** ****** ******

 HEAD WILL BE SAVED ON UNIT   51 AT END OF TIME STEP    1, STRESS PERIOD    6
1
  VOLUMETRIC BUDGET FOR ENTIRE MODEL AT END OF TIME STEP    1, STRESS PERIOD   6
  ------------------------------------------------------------------------------

     CUMULATIVE VOLUMES      L**3       RATES FOR THIS TIME STEP      L**3/T
     ------------------                 ------------------------

           IN:                                      IN:
           ---                                      ---
             STORAGE =    24897895.6555               STORAGE =           0.0000
       CONSTANT HEAD =    99932964.1652         CONSTANT HEAD =      188973.6700
               WELLS =           0.0000                 WELLS =           0.0000
            RECHARGE =    15097200.0000              RECHARGE =       55200.0000
      STREAM LEAKAGE =     3650271.5921        STREAM LEAKAGE =        6918.8822

            TOTAL IN =   143578331.4128              TOTAL IN =      251092.5522

          OUT:                                     OUT:
          ----                                     ----
             STORAGE =      926401.3246               STORAGE =       10060.0956
       CONSTANT HEAD =           0.0000         CONSTANT HEAD =           0.0000
               WELLS =    70314000.3721                 WELLS =      128310.2197
            RECHARGE =           0.0000              RECHARGE =           0.0000
      STREAM LEAKAGE =    72337930.3627        STREAM LEAKAGE =      112722.2352

           TOTAL OUT =   143578332.0595             TOTAL OUT =      251092.5505

            IN - OUT =          -0.6467              IN - OUT =       1.7006E-03

 PERCENT DISCREPANCY =          -0.00     PERCENT DISCREPANCY =           0.00






         TIME SUMMARY AT END OF TIME STEP    1 IN STRESS PERIOD    6
                    SECONDS     MINUTES      HOURS       DAYS        YEARS
                    -----------------------------------------------------------
   TIME STEP LENGTH 7.86240E+06 1.31040E+05  2184.0      91.000     0.24914    
 STRESS PERIOD TIME 7.86240E+06 1.31040E+05  2184.0      91.000     0.24914    
         TOTAL TIME 4.73472E+07 7.89120E+05  13152.      548.00      1.5003    
1
1
                            STRESS PERIOD NO.    7, LENGTH =   91.00000    
                            -----------------------------------------------

                              NUMBER OF TIME STEPS =     1

                               MULTIPLIER FOR DELT =     1.500

                            INITIAL TIME STEP SIZE =   91.00000    

 WELL NO.  LAYER   ROW   COL   STRESS RATE         
 --------------------------------------------------
      1      1     23     20     -0.3361E+05
      2      1     23      4     -0.3381E+05
      3      1      5     26     -0.3082E+05
      4      1     21     27     -0.3006E+05

      4 WELLS

                 RECHARGE =   0.00000    

 REUSING STREAM SEGMENT DATA FROM LAST STRESS PERIOD
 
 SOLVING FOR HEAD 


     7 CALLS TO PCG ROUTINE FOR TIME STEP   1 IN STRESS PERIOD    7
    26 TOTAL ITERATIONS

 OUTPUT CONTROL FOR STRESS PERIOD    7   TIME STEP    1
    SAVE BUDGET
    SAVE HEAD FOR ALL LAYERS
    PRINT HEAD FOR ALL LAYERS
 UBDSV2 SAVING "STREAMFLOW OUT  " ON UNIT  50 AT TIME STEP  1, STRESS PERIOD   7



 STREAM LISTING     PERIOD      7   STEP        1

 LAYER ROW COL. STREAM  RCH.  FLOW INTO     FLOW TO   FLOW OUT OF   OVRLND.     DIRECT     STREAM       STREAM     STREAM     STREAM   STREAMBED  STREAMBED
                SEG.NO.  NO.  STRM. RCH.    AQUIFER    STRM. RCH.    RUNOFF     PRECIP       ET          HEAD       DEPTH      WIDTH   CONDCTNC.   GRADIENT

   1   13    1     1     1    1.0000E+05 -2.3670E+03   1.0237E+05  0.000E+00  0.000E+00  0.000E+00  4.84070E+01  1.457E-01  2.000E+01  2.000E+04 -1.184E-01
   1   13    2     1     2    1.0237E+05 -4.3248E+03   1.0669E+05  0.000E+00  0.000E+00  0.000E+00  4.79326E+01  1.485E-01  2.000E+01  2.000E+04 -2.162E-01
   1   14    3     1     3    1.0669E+05 -2.9970E+03   1.0969E+05  0.000E+00  0.000E+00  0.000E+00  4.74585E+01  1.516E-01  2.000E+01  2.000E+04 -1.499E-01
   1   15    4     1     4    1.0969E+05 -2.5717E+03   1.1226E+05  0.000E+00  0.000E+00  0.000E+00  4.69835E+01  1.540E-01  2.000E+01  2.000E+04 -1.286E-01
   1   16    5     1     5    1.1226E+05 -2.3414E+03   1.1460E+05  0.000E+00  0.000E+00  0.000E+00  4.65083E+01  1.560E-01  2.000E+01  2.000E+04 -1.171E-01
   1   16    6     1     6    1.1460E+05 -2.2365E+03   1.1684E+05  0.000E+00  0.000E+00  0.000E+00  4.60329E+01  1.579E-01  2.000E+01  2.000E+04 -1.118E-01
   1   16    7     1     7    1.1684E+05 -2.4713E+03   1.1931E+05  0.000E+00  0.000E+00  0.000E+00  4.55575E+01  1.598E-01  2.000E+01  2.000E+04 -1.236E-01
   1   16    8     1     8    1.1931E+05 -2.6379E+03   1.2195E+05  0.000E+00  0.000E+00  0.000E+00  4.50823E+01  1.619E-01  2.000E+01  2.000E+04 -1.319E-01
   1   16    9     1     9    1.2195E+05 -2.7349E+03   1.2468E+05  0.000E+00  0.000E+00  0.000E+00  4.46072E+01  1.640E-01  2.000E+01  2.000E+04 -1.367E-01
   1   16   10     1    10    1.2468E+05 -2.7631E+03   1.2745E+05  0.000E+00  0.000E+00  0.000E+00  4.41321E+01  1.662E-01  2.000E+01  2.000E+04 -1.382E-01
   1   16   11     1    11    1.2745E+05 -2.7375E+03   1.3018E+05  0.000E+00  0.000E+00  0.000E+00  4.36570E+01  1.684E-01  2.000E+01  2.000E+04 -1.369E-01
   1   16   12     1    12    1.3018E+05 -3.4827E+03   1.3367E+05  0.000E+00  0.000E+00  0.000E+00  4.31822E+01  1.708E-01  2.000E+01  2.000E+04 -1.741E-01
   1   15   13     1    13    1.3367E+05 -3.2964E+03   1.3696E+05  0.000E+00  0.000E+00  0.000E+00  4.27075E+01  1.734E-01  2.000E+01  2.000E+04 -1.648E-01
   1   14   14     1    14    1.3696E+05 -3.4066E+03   1.4037E+05  0.000E+00  0.000E+00  0.000E+00  4.22328E+01  1.760E-01  2.000E+01  2.000E+04 -1.703E-01
   1   13   15     1    15    1.4037E+05 -3.7514E+03   1.4412E+05  0.000E+00  0.000E+00  0.000E+00  4.17583E+01  1.787E-01  2.000E+01  2.000E+04 -1.876E-01
   1   12   16     1    16    1.4412E+05 -4.9818E+03   1.4910E+05  0.000E+00  0.000E+00  0.000E+00  4.12843E+01  1.820E-01  2.000E+01  2.000E+04 -2.491E-01
   1   12   17     1    17    1.4910E+05 -3.1270E+03   1.5223E+05  0.000E+00  0.000E+00  0.000E+00  4.08100E+01  1.850E-01  2.000E+01  2.000E+04 -1.564E-01
   1   12   18     1    18    1.5223E+05 -2.9273E+03   1.5516E+05  0.000E+00  0.000E+00  0.000E+00  4.03349E+01  1.872E-01  2.000E+01  2.000E+04 -1.464E-01
   1   12   19     1    19    1.5516E+05 -3.7526E+03   1.5891E+05  0.000E+00  0.000E+00  0.000E+00  3.98601E+01  1.896E-01  2.000E+01  2.000E+04 -1.876E-01
   1   13   20     1    20    1.5891E+05 -2.1709E+03   1.6108E+05  0.000E+00  0.000E+00  0.000E+00  3.93850E+01  1.918E-01  2.000E+01  2.000E+04 -1.085E-01
   1   14   21     1    21    1.6108E+05 -1.2020E+03   1.6228E+05  0.000E+00  0.000E+00  0.000E+00  3.89089E+01  1.930E-01  2.000E+01  2.000E+04 -6.010E-02
   1   14   22     1    22    1.6228E+05  5.3427E+03   1.5694E+05  0.000E+00  0.000E+00  0.000E+00  3.84301E+01  1.915E-01  2.000E+01  2.000E+04  2.671E-01
   1    9   30     2     1    5.0000E+04 -1.2320E+03   5.1232E+04  0.000E+00  0.000E+00  0.000E+00  4.02417E+01  1.167E-01  2.000E+01  2.000E+04 -6.160E-02
   1    9   29     2     2    5.1232E+04 -1.3992E+03   5.2631E+04  0.000E+00  0.000E+00  0.000E+00  3.99935E+01  1.185E-01  2.000E+01  2.000E+04 -6.996E-02
   1    9   28     2     3    5.2631E+04 -1.4319E+03   5.4063E+04  0.000E+00  0.000E+00  0.000E+00  3.97455E+01  1.205E-01  2.000E+01  2.000E+04 -7.159E-02
   1    9   27     2     4    5.4063E+04 -2.6445E+03   5.6708E+04  0.000E+00  0.000E+00  0.000E+00  3.94982E+01  1.232E-01  2.000E+01  2.000E+04 -1.322E-01
   1   10   26     2     5    5.6708E+04 -1.8230E+03   5.8531E+04  0.000E+00  0.000E+00  0.000E+00  3.92512E+01  1.262E-01  2.000E+01  2.000E+04 -9.115E-02
   1   11   25     2     6    5.8531E+04 -1.5487E+03   6.0079E+04  0.000E+00  0.000E+00  0.000E+00  3.90034E+01  1.284E-01  2.000E+01  2.000E+04 -7.744E-02
   1   12   24     2     7    6.0079E+04 -1.1636E+03   6.1243E+04  0.000E+00  0.000E+00  0.000E+00  3.87551E+01  1.301E-01  2.000E+01  2.000E+04 -5.818E-02
   1   13   23     2     8    6.1243E+04 -6.6365E+02   6.1906E+04  0.000E+00  0.000E+00  0.000E+00  3.85063E+01  1.313E-01  2.000E+01  2.000E+04 -3.318E-02
   1   14   22     2     9    6.1906E+04  1.8505E+03   6.0056E+04  0.000E+00  0.000E+00  0.000E+00  3.82555E+01  1.305E-01  2.000E+01  2.000E+04  9.252E-02
   1   14   22     3     1    2.1700E+05 -8.2841E+03   2.2528E+05  0.000E+00  0.000E+00  0.000E+00  3.77488E+01  1.932E-01  2.000E+01  2.000E+04 -4.142E-01
   1   15   23     3     2    2.2528E+05 -1.4196E+03   2.2670E+05  0.000E+00  0.000E+00  0.000E+00  3.68624E+01  1.958E-01  2.000E+01  2.000E+04 -7.098E-02
   1   15   24     3     3    2.2670E+05 -9.6750E+02   2.2767E+05  0.000E+00  0.000E+00  0.000E+00  3.59742E+01  1.964E-01  2.000E+01  2.000E+04 -4.838E-02
   1   15   25     3     4    2.2767E+05 -9.2818E+02   2.2859E+05  0.000E+00  0.000E+00  0.000E+00  3.50858E+01  1.969E-01  2.000E+01  2.000E+04 -4.641E-02
   1   15   26     3     5    2.2859E+05 -1.4436E+03   2.3004E+05  0.000E+00  0.000E+00  0.000E+00  3.41975E+01  1.975E-01  2.000E+01  2.000E+04 -7.218E-02
   1   16   27     3     6    2.3004E+05 -1.2527E+03   2.3129E+05  0.000E+00  0.000E+00  0.000E+00  3.33093E+01  1.982E-01  2.000E+01  2.000E+04 -6.264E-02
   1   17   28     3     7    2.3129E+05 -9.9624E+02   2.3229E+05  0.000E+00  0.000E+00  0.000E+00  3.24210E+01  1.988E-01  2.000E+01  2.000E+04 -4.981E-02
   1   18   29     3     8    2.3229E+05 -1.1118E+03   2.3340E+05  0.000E+00  0.000E+00  0.000E+00  3.15326E+01  1.993E-01  2.000E+01  2.000E+04 -5.559E-02
   1   18   30     3     9    2.3340E+05 -2.3006E+03   2.3570E+05  0.000E+00  0.000E+00  0.000E+00  3.06446E+01  2.002E-01  2.000E+01  2.000E+04 -1.150E-01



1
              HEAD IN LAYER   1 AT END OF TIME STEP   1 IN STRESS PERIOD    7
  ---------------------------------------------------------------------------

          1      2      3      4      5      6      7      8      9     10
         11     12     13     14     15     16     17     18     19     20
         21     22     23     24     25     26     27     28     29     30
 .........................................................................
   1  ****** ****** ****** ****** ****** ****** ****** ****** ****** ******
      ****** ****** ****** ****** ****** ****** ****** ****** ****** ******
      ****** ****** ****** ****** ****** ****** ****** ****** ****** ******
   2  ****** ****** ****** ****** ****** ****** ****** ****** ****** ******
      ****** ****** ****** ****** ****** ****** ****** ****** ****** ******
      ****** ****** ****** ****** ****** ****** ****** ****** ****** ******
   3  ****** ****** ****** ****** ****** ****** ****** ****** ****** ******
      ****** ****** ****** ****** ****** ****** ****** ****** ****** ******
      ****** ****** ****** ****** ****** ****** ****** ****** ****** ******
   4  ****** ****** ****** ****** ****** ****** ****** ****** ****** ******
      ****** ****** ****** ****** ****** ****** ****** ****** ****** ******
      ****** ****** ****** ****** ****** ****** ****** ****** ****** ******
   5  ****** ****** ****** ****** ****** ****** ****** ****** ****** ******
      ****** ****** ****** ****** ****** ****** ****** ****** ****** ******
      ****** ****** ****** ****** ****** ****** ****** ****** ****** ******
   6  ****** ****** ****** ****** ****** ****** ****** ****** ****** ******
      ****** ****** ****** ****** ****** ****** ****** ****** ****** ******
      ****** ****** ****** ****** ****** ****** ****** ****** ****** ******
   7  ****** ****** ****** ****** ****** ****** ****** ****** ****** ******
      ****** ****** ****** ****** ****** ****** ****** ****** ****** ******
      ****** ****** ****** ****** ****** ****** ****** ****** ****** ******
   8  ****** ****** ****** ****** ****** ****** ****** ****** ****** ******
      ****** ****** ****** ****** ****** ****** ****** ****** ****** ******
      ****** ****** ****** ****** ****** ****** ****** ****** ****** ******
   9  ****** ****** ****** ****** ****** ****** ****** ****** ****** ******
      ****** ****** ****** ****** ****** ****** ****** ****** ****** ******
      ****** ****** ****** ****** ****** ****** ****** ****** ****** ******
  10  ****** ****** ****** ****** ****** ****** ****** ****** ****** ******
      ****** ****** ****** ****** ****** ****** ****** ****** ****** ******
      ****** ****** ****** ****** ****** ****** ****** ****** ****** ******
  11  ****** ****** ****** ****** ****** ****** ****** ****** ****** ******
      ****** ****** ****** ****** ****** ****** ****** ****** ****** ******
      ****** ****** ****** ****** ****** ****** ****** ****** ****** ******
  12  ****** ****** ****** ****** ****** ****** ****** ****** ****** ******
      ****** ****** ****** ****** ****** ****** ****** ****** ****** ******
      ****** ****** ****** ****** ****** ****** ****** ****** ****** ******
  13  ****** ****** ****** ****** ****** ****** ****** ****** ****** ******
      ****** ****** ****** ****** ****** ****** ****** ****** ****** ******
      ****** ****** ****** ****** ****** ****** ****** ****** ****** ******
  14  ****** ****** ****** ****** ****** ****** ****** ****** ****** ******
      ****** ****** ****** ****** ****** ****** ****** ****** ****** ******
      ****** ****** ****** ****** ****** ****** ****** ****** ****** ******
  15  ****** ****** ****** ****** ****** ****** ****** ****** ****** ******
      ****** ****** ****** ****** ****** ****** ****** ****** ****** ******
      ****** ****** ****** ****** ****** ****** ****** ****** ****** ******
  16  ****** ****** ****** ****** ****** ****** ****** ****** ****** ******
      ****** ****** ****** ****** ****** ****** ****** ****** ****** ******
      ****** ****** ****** ****** ****** ****** ****** ****** ****** ******
  17  ****** ****** ****** ****** ****** ****** ****** ****** ****** ******
      ****** ****** ****** ****** ****** ****** ****** ****** ****** ******
      ****** ****** ****** ****** ****** ****** ****** ****** ****** ******
  18  ****** ****** ****** ****** ****** ****** ****** ****** ****** ******
      ****** ****** ****** ****** ****** ****** ****** ****** ****** ******
      ****** ****** ****** ****** ****** ****** ****** ****** ****** ******
  19  ****** ****** ****** ****** ****** ****** ****** ****** ****** ******
      ****** ****** ****** ****** ****** ****** ****** ****** ****** ******
      ****** ****** ****** ****** ****** ****** ****** ****** ****** ******
  20  ****** ****** ****** ****** ****** ****** ****** ****** ****** ******
      ****** ****** ****** ****** ****** ****** ****** ****** ****** ******
      ****** ****** ****** ****** ****** ****** ****** ****** ****** ******
  21  ****** ****** ****** ****** ****** ****** ****** ****** ****** ******
      ****** ****** ****** ****** ****** ****** ****** ****** ****** ******
      ****** ****** ****** ****** ****** ****** ****** ****** ****** ******
  22  ****** ****** ****** ****** ****** ****** ****** ****** ****** ******
      ****** ****** ****** ****** ****** ****** ****** ****** ****** ******
      ****** ****** ****** ****** ****** ****** ****** ****** ****** ******
  23  ****** ****** ****** ****** ****** ****** ****** ****** ****** ******
      ****** ****** ****** ****** ****** ****** ****** ****** ****** ******
      ****** ****** ****** ****** ****** ****** ****** ****** ****** ******
  24  ****** ****** ****** ****** ****** ****** ****** ****** ****** ******
      ****** ****** ****** ****** ****** ****** ****** ****** ****** ******
      ****** ****** ****** ****** ****** ****** ****** ****** ****** ******
  25  ****** ****** ****** ****** ****** ****** ****** ****** ****** ******
      ****** ****** ****** ****** ****** ****** ****** ****** ****** ******
      ****** ****** ****** ****** ****** ****** ****** ****** ****** ******

 HEAD WILL BE SAVED ON UNIT   51 AT END OF TIME STEP    1, STRESS PERIOD    7
1
  VOLUMETRIC BUDGET FOR ENTIRE MODEL AT END OF TIME STEP    1, STRESS PERIOD   7
  ------------------------------------------------------------------------------

     CUMULATIVE VOLUMES      L**3       RATES FOR THIS TIME STEP      L**3/T
     ------------------                 ------------------------

           IN:                                      IN:
           ---                                      ---
             STORAGE =    26000624.7338               STORAGE =       12117.9020
       CONSTANT HEAD =   118305113.1548         CONSTANT HEAD =      201891.7471
               WELLS =           0.0000                 WELLS =           0.0000
            RECHARGE =    15097200.0000              RECHARGE =           0.0000
      STREAM LEAKAGE =     4304850.1654        STREAM LEAKAGE =        7193.1711

            TOTAL IN =   163707788.0541              TOTAL IN =      221202.8202

          OUT:                                     OUT:
          ----                                     ----
             STORAGE =      926401.3246               STORAGE =           0.0000
       CONSTANT HEAD =           0.0000         CONSTANT HEAD =           0.0000
               WELLS =    81990230.3609                 WELLS =      128310.2197
            RECHARGE =           0.0000              RECHARGE =           0.0000
      STREAM LEAKAGE =    80791157.2184        STREAM LEAKAGE =       92892.6028

           TOTAL OUT =   163707788.9040             TOTAL OUT =      221202.8225

            IN - OUT =          -0.8499              IN - OUT =      -2.2328E-03

 PERCENT DISCREPANCY =          -0.00     PERCENT DISCREPANCY =          -0.00






         TIME SUMMARY AT END OF TIME STEP    1 IN STRESS PERIOD    7
                    SECONDS     MINUTES      HOURS       DAYS        YEARS
                    -----------------------------------------------------------
   TIME STEP LENGTH 7.86240E+06 1.31040E+05  2184.0      91.000     0.24914    
 STRESS PERIOD TIME 7.86240E+06 1.31040E+05  2184.0      91.000     0.24914    
         TOTAL TIME 5.52096E+07 9.20160E+05  15336.      639.00      1.7495    
1
1
                            STRESS PERIOD NO.    8, LENGTH =   91.00000    
                            -----------------------------------------------

                              NUMBER OF TIME STEPS =     1

                               MULTIPLIER FOR DELT =     1.500

                            INITIAL TIME STEP SIZE =   91.00000    

 WELL NO.  LAYER   ROW   COL   STRESS RATE         
 --------------------------------------------------
      1      1     23     20     -0.3361E+05
      2      1     23      4     -0.3381E+05
      3      1      5     26     -0.3082E+05
      4      1     21     27     -0.3006E+05

      4 WELLS

                 RECHARGE =  1.000000E-03

 REUSING STREAM SEGMENT DATA FROM LAST STRESS PERIOD
 
 SOLVING FOR HEAD 


     6 CALLS TO PCG ROUTINE FOR TIME STEP   1 IN STRESS PERIOD    8
    23 TOTAL ITERATIONS

 OUTPUT CONTROL FOR STRESS PERIOD    8   TIME STEP    1
    SAVE BUDGET
    SAVE HEAD FOR ALL LAYERS
    PRINT HEAD FOR ALL LAYERS
 UBDSV2 SAVING "STREAMFLOW OUT  " ON UNIT  50 AT TIME STEP  1, STRESS PERIOD   8



 STREAM LISTING     PERIOD      8   STEP        1

 LAYER ROW COL. STREAM  RCH.  FLOW INTO     FLOW TO   FLOW OUT OF   OVRLND.     DIRECT     STREAM       STREAM     STREAM     STREAM   STREAMBED  STREAMBED
                SEG.NO.  NO.  STRM. RCH.    AQUIFER    STRM. RCH.    RUNOFF     PRECIP       ET          HEAD       DEPTH      WIDTH   CONDCTNC.   GRADIENT

   1   13    1     1     1    1.0000E+05 -2.5362E+03   1.0254E+05  0.000E+00  0.000E+00  0.000E+00  4.84071E+01  1.457E-01  2.000E+01  2.000E+04 -1.268E-01
   1   13    2     1     2    1.0254E+05 -4.5360E+03   1.0707E+05  0.000E+00  0.000E+00  0.000E+00  4.79329E+01  1.488E-01  2.000E+01  2.000E+04 -2.268E-01
   1   14    3     1     3    1.0707E+05 -3.2312E+03   1.1030E+05  0.000E+00  0.000E+00  0.000E+00  4.74589E+01  1.521E-01  2.000E+01  2.000E+04 -1.616E-01
   1   15    4     1     4    1.1030E+05 -2.8089E+03   1.1311E+05  0.000E+00  0.000E+00  0.000E+00  4.69841E+01  1.546E-01  2.000E+01  2.000E+04 -1.404E-01
   1   16    5     1     5    1.1311E+05 -2.5614E+03   1.1567E+05  0.000E+00  0.000E+00  0.000E+00  4.65091E+01  1.568E-01  2.000E+01  2.000E+04 -1.281E-01
   1   16    6     1     6    1.1567E+05 -2.4111E+03   1.1808E+05  0.000E+00  0.000E+00  0.000E+00  4.60338E+01  1.588E-01  2.000E+01  2.000E+04 -1.206E-01
   1   16    7     1     7    1.1808E+05 -2.6476E+03   1.2073E+05  0.000E+00  0.000E+00  0.000E+00  4.55586E+01  1.609E-01  2.000E+01  2.000E+04 -1.324E-01
   1   16    8     1     8    1.2073E+05 -2.8151E+03   1.2355E+05  0.000E+00  0.000E+00  0.000E+00  4.50835E+01  1.631E-01  2.000E+01  2.000E+04 -1.408E-01
   1   16    9     1     9    1.2355E+05 -2.9121E+03   1.2646E+05  0.000E+00  0.000E+00  0.000E+00  4.46086E+01  1.654E-01  2.000E+01  2.000E+04 -1.456E-01
   1   16   10     1    10    1.2646E+05 -2.9392E+03   1.2940E+05  0.000E+00  0.000E+00  0.000E+00  4.41336E+01  1.677E-01  2.000E+01  2.000E+04 -1.470E-01
   1   16   11     1    11    1.2940E+05 -2.9119E+03   1.3231E+05  0.000E+00  0.000E+00  0.000E+00  4.36586E+01  1.700E-01  2.000E+01  2.000E+04 -1.456E-01
   1   16   12     1    12    1.3231E+05 -3.7028E+03   1.3601E+05  0.000E+00  0.000E+00  0.000E+00  4.31839E+01  1.725E-01  2.000E+01  2.000E+04 -1.851E-01
   1   15   13     1    13    1.3601E+05 -3.5359E+03   1.3955E+05  0.000E+00  0.000E+00  0.000E+00  4.27094E+01  1.753E-01  2.000E+01  2.000E+04 -1.768E-01
   1   14   14     1    14    1.3955E+05 -3.6483E+03   1.4320E+05  0.000E+00  0.000E+00  0.000E+00  4.22349E+01  1.781E-01  2.000E+01  2.000E+04 -1.824E-01
   1   13   15     1    15    1.4320E+05 -3.9873E+03   1.4719E+05  0.000E+00  0.000E+00  0.000E+00  4.17605E+01  1.809E-01  2.000E+01  2.000E+04 -1.994E-01
   1   12   16     1    16    1.4719E+05 -5.1961E+03   1.5238E+05  0.000E+00  0.000E+00  0.000E+00  4.12866E+01  1.843E-01  2.000E+01  2.000E+04 -2.598E-01
   1   12   17     1    17    1.5238E+05 -3.2979E+03   1.5568E+05  0.000E+00  0.000E+00  0.000E+00  4.08125E+01  1.875E-01  2.000E+01  2.000E+04 -1.649E-01
   1   12   18     1    18    1.5568E+05 -3.0981E+03   1.5878E+05  0.000E+00  0.000E+00  0.000E+00  4.03375E+01  1.898E-01  2.000E+01  2.000E+04 -1.549E-01
   1   12   19     1    19    1.5878E+05 -3.9611E+03   1.6274E+05  0.000E+00  0.000E+00  0.000E+00  3.98628E+01  1.923E-01  2.000E+01  2.000E+04 -1.981E-01
   1   13   20     1    20    1.6274E+05 -2.3879E+03   1.6513E+05  0.000E+00  0.000E+00  0.000E+00  3.93878E+01  1.946E-01  2.000E+01  2.000E+04 -1.194E-01
   1   14   21     1    21    1.6513E+05 -1.3973E+03   1.6652E+05  0.000E+00  0.000E+00  0.000E+00  3.89118E+01  1.959E-01  2.000E+01  2.000E+04 -6.987E-02
   1   14   22     1    22    1.6652E+05  5.2977E+03   1.6123E+05  0.000E+00  0.000E+00  0.000E+00  3.84332E+01  1.946E-01  2.000E+01  2.000E+04  2.649E-01
   1    9   30     2     1    5.0000E+04 -1.4109E+03   5.1411E+04  0.000E+00  0.000E+00  0.000E+00  4.02418E+01  1.168E-01  2.000E+01  2.000E+04 -7.055E-02
   1    9   29     2     2    5.1411E+04 -1.5763E+03   5.2987E+04  0.000E+00  0.000E+00  0.000E+00  3.99939E+01  1.189E-01  2.000E+01  2.000E+04 -7.882E-02
   1    9   28     2     3    5.2987E+04 -1.6063E+03   5.4594E+04  0.000E+00  0.000E+00  0.000E+00  3.97461E+01  1.211E-01  2.000E+01  2.000E+04 -8.031E-02
   1    9   27     2     4    5.4594E+04 -2.8636E+03   5.7457E+04  0.000E+00  0.000E+00  0.000E+00  3.94991E+01  1.241E-01  2.000E+01  2.000E+04 -1.432E-01
   1   10   26     2     5    5.7457E+04 -2.0591E+03   5.9516E+04  0.000E+00  0.000E+00  0.000E+00  3.92523E+01  1.273E-01  2.000E+01  2.000E+04 -1.030E-01
   1   11   25     2     6    5.9516E+04 -1.7784E+03   6.1295E+04  0.000E+00  0.000E+00  0.000E+00  3.90048E+01  1.298E-01  2.000E+01  2.000E+04 -8.892E-02
   1   12   24     2     7    6.1295E+04 -1.3721E+03   6.2667E+04  0.000E+00  0.000E+00  0.000E+00  3.87568E+01  1.318E-01  2.000E+01  2.000E+04 -6.861E-02
   1   13   23     2     8    6.2667E+04 -8.3311E+02   6.3500E+04  0.000E+00  0.000E+00  0.000E+00  3.85082E+01  1.332E-01  2.000E+01  2.000E+04 -4.166E-02
   1   14   22     2     9    6.3500E+04  1.7860E+03   6.1714E+04  0.000E+00  0.000E+00  0.000E+00  3.82576E+01  1.326E-01  2.000E+01  2.000E+04  8.930E-02
   1   14   22     3     1    2.2294E+05 -8.3279E+03   2.3127E+05  0.000E+00  0.000E+00  0.000E+00  3.77519E+01  1.964E-01  2.000E+01  2.000E+04 -4.164E-01
   1   15   23     3     2    2.3127E+05 -1.6029E+03   2.3287E+05  0.000E+00  0.000E+00  0.000E+00  3.68656E+01  1.989E-01  2.000E+01  2.000E+04 -8.015E-02
   1   15   24     3     3    2.3287E+05 -1.1112E+03   2.3398E+05  0.000E+00  0.000E+00  0.000E+00  3.59774E+01  1.996E-01  2.000E+01  2.000E+04 -5.556E-02
   1   15   25     3     4    2.3398E+05 -1.0768E+03   2.3506E+05  0.000E+00  0.000E+00  0.000E+00  3.50891E+01  2.002E-01  2.000E+01  2.000E+04 -5.384E-02
   1   15   26     3     5    2.3506E+05 -1.6382E+03   2.3670E+05  0.000E+00  0.000E+00  0.000E+00  3.42009E+01  2.009E-01  2.000E+01  2.000E+04 -8.191E-02
   1   16   27     3     6    2.3670E+05 -1.4865E+03   2.3818E+05  0.000E+00  0.000E+00  0.000E+00  3.33128E+01  2.017E-01  2.000E+01  2.000E+04 -7.432E-02
   1   17   28     3     7    2.3818E+05 -1.2324E+03   2.3942E+05  0.000E+00  0.000E+00  0.000E+00  3.24246E+01  2.024E-01  2.000E+01  2.000E+04 -6.162E-02
   1   18   29     3     8    2.3942E+05 -1.3276E+03   2.4074E+05  0.000E+00  0.000E+00  0.000E+00  3.15363E+01  2.030E-01  2.000E+01  2.000E+04 -6.638E-02
   1   18   30     3     9    2.4074E+05 -2.4709E+03   2.4321E+05  0.000E+00  0.000E+00  0.000E+00  3.06484E+01  2.040E-01  2.000E+01  2.000E+04 -1.235E-01



1
              HEAD IN LAYER   1 AT END OF TIME STEP   1 IN STRESS PERIOD    8
  ---------------------------------------------------------------------------

          1      2      3      4      5      6      7      8      9     10
         11     12     13     14     15     16     17     18     19     20
         21     22     23     24     25     26     27     28     29     30
 .........................................................................
   1  ****** ****** ****** ****** ****** ****** ****** ****** ****** ******
      ****** ****** ****** ****** ****** ****** ****** ****** ****** ******
      ****** ****** ****** ****** ****** ****** ****** ****** ****** ******
   2  ****** ****** ****** ****** ****** ****** ****** ****** ****** ******
      ****** ****** ****** ****** ****** ****** ****** ****** ****** ******
      ****** ****** ****** ****** ****** ****** ****** ****** ****** ******
   3  ****** ****** ****** ****** ****** ****** ****** ****** ****** ******
      ****** ****** ****** ****** ****** ****** ****** ****** ****** ******
      ****** ****** ****** ****** ****** ****** ****** ****** ****** ******
   4  ****** ****** ****** ****** ****** ****** ****** ****** ****** ******
      ****** ****** ****** ****** ****** ****** ****** ****** ****** ******
      ****** ****** ****** ****** ****** ****** ****** ****** ****** ******
   5  ****** ****** ****** ****** ****** ****** ****** ****** ****** ******
      ****** ****** ****** ****** ****** ****** ****** ****** ****** ******
      ****** ****** ****** ****** ****** ****** ****** ****** ****** ******
   6  ****** ****** ****** ****** ****** ****** ****** ****** ****** ******
      ****** ****** ****** ****** ****** ****** ****** ****** ****** ******
      ****** ****** ****** ****** ****** ****** ****** ****** ****** ******
   7  ****** ****** ****** ****** ****** ****** ****** ****** ****** ******
      ****** ****** ****** ****** ****** ****** ****** ****** ****** ******
      ****** ****** ****** ****** ****** ****** ****** ****** ****** ******
   8  ****** ****** ****** ****** ****** ****** ****** ****** ****** ******
      ****** ****** ****** ****** ****** ****** ****** ****** ****** ******
      ****** ****** ****** ****** ****** ****** ****** ****** ****** ******
   9  ****** ****** ****** ****** ****** ****** ****** ****** ****** ******
      ****** ****** ****** ****** ****** ****** ****** ****** ****** ******
      ****** ****** ****** ****** ****** ****** ****** ****** ****** ******
  10  ****** ****** ****** ****** ****** ****** ****** ****** ****** ******
      ****** ****** ****** ****** ****** ****** ****** ****** ****** ******
      ****** ****** ****** ****** ****** ****** ****** ****** ****** ******
  11  ****** ****** ****** ****** ****** ****** ****** ****** ****** ******
      ****** ****** ****** ****** ****** ****** ****** ****** ****** ******
      ****** ****** ****** ****** ****** ****** ****** ****** ****** ******
  12  ****** ****** ****** ****** ****** ****** ****** ****** ****** ******
      ****** ****** ****** ****** ****** ****** ****** ****** ****** ******
      ****** ****** ****** ****** ****** ****** ****** ****** ****** ******
  13  ****** ****** ****** ****** ****** ****** ****** ****** ****** ******
      ****** ****** ****** ****** ****** ****** ****** ****** ****** ******
      ****** ****** ****** ****** ****** ****** ****** ****** ****** ******
  14  ****** ****** ****** ****** ****** ****** ****** ****** ****** ******
      ****** ****** ****** ****** ****** ****** ****** ****** ****** ******
      ****** ****** ****** ****** ****** ****** ****** ****** ****** ******
  15  ****** ****** ****** ****** ****** ****** ****** ****** ****** ******
      ****** ****** ****** ****** ****** ****** ****** ****** ****** ******
      ****** ****** ****** ****** ****** ****** ****** ****** ****** ******
  16  ****** ****** ****** ****** ****** ****** ****** ****** ****** ******
      ****** ****** ****** ****** ****** ****** ****** ****** ****** ******
      ****** ****** ****** ****** ****** ****** ****** ****** ****** ******
  17  ****** ****** ****** ****** ****** ****** ****** ****** ****** ******
      ****** ****** ****** ****** ****** ****** ****** ****** ****** ******
      ****** ****** ****** ****** ****** ****** ****** ****** ****** ******
  18  ****** ****** ****** ****** ****** ****** ****** ****** ****** ******
      ****** ****** ****** ****** ****** ****** ****** ****** ****** ******
      ****** ****** ****** ****** ****** ****** ****** ****** ****** ******
  19  ****** ****** ****** ****** ****** ****** ****** ****** ****** ******
      ****** ****** ****** ****** ****** ****** ****** ****** ****** ******
      ****** ****** ****** ****** ****** ****** ****** ****** ****** ******
  20  ****** ****** ****** ****** ****** ****** ****** ****** ****** ******
      ****** ****** ****** ****** ****** ****** ****** ****** ****** ******
      ****** ****** ****** ****** ****** ****** ****** ****** ****** ******
  21  ****** ****** ****** ****** ****** ****** ****** ****** ****** ******
      ****** ****** ****** ****** ****** ****** ****** ****** ****** ******
      ****** ****** ****** ****** ****** ****** ****** ****** ****** ******
  22  ****** ****** ****** ****** ****** ****** ****** ****** ****** ******
      ****** ****** ****** ****** ****** ****** ****** ****** ****** ******
      ****** ****** ****** ****** ****** ****** ****** ****** ****** ******
  23  ****** ****** ****** ****** ****** ****** ****** ****** ****** ******
      ****** ****** ****** ****** ****** ****** ****** ****** ****** ******
      ****** ****** ****** ****** ****** ****** ****** ****** ****** ******
  24  ****** ****** ****** ****** ****** ****** ****** ****** ****** ******
      ****** ****** ****** ****** ****** ****** ****** ****** ****** ******
      ****** ****** ****** ****** ****** ****** ****** ****** ****** ******
  25  ****** ****** ****** ****** ****** ****** ****** ****** ****** ******
      ****** ****** ****** ****** ****** ****** ****** ****** ****** ******
      ****** ****** ****** ****** ****** ****** ****** ****** ****** ******

 HEAD WILL BE SAVED ON UNIT   51 AT END OF TIME STEP    1, STRESS PERIOD    8
1
  VOLUMETRIC BUDGET FOR ENTIRE MODEL AT END OF TIME STEP    1, STRESS PERIOD   8
  ------------------------------------------------------------------------------

     CUMULATIVE VOLUMES      L**3       RATES FOR THIS TIME STEP      L**3/T
     ------------------                 ------------------------

           IN:                                      IN:
           ---                                      ---
             STORAGE =    26000624.7338               STORAGE =           0.0000
       CONSTANT HEAD =   136282440.9224         CONSTANT HEAD =      197553.0524
               WELLS =           0.0000                 WELLS =           0.0000
            RECHARGE =    17608800.0000              RECHARGE =       27600.0000
      STREAM LEAKAGE =     4949467.8732        STREAM LEAKAGE =        7083.7111

            TOTAL IN =   184841333.5294              TOTAL IN =      232236.7635

          OUT:                                     OUT:
          ----                                     ----
             STORAGE =     1256618.8648               STORAGE =        3628.7642
       CONSTANT HEAD =           0.0000         CONSTANT HEAD =           0.0000
               WELLS =    93666460.3497                 WELLS =      128310.2197
            RECHARGE =           0.0000              RECHARGE =           0.0000
      STREAM LEAKAGE =    89918255.0867        STREAM LEAKAGE =      100297.7788

           TOTAL OUT =   184841334.3013             TOTAL OUT =      232236.7626

            IN - OUT =          -0.7719              IN - OUT =       8.5690E-04

 PERCENT DISCREPANCY =          -0.00     PERCENT DISCREPANCY =           0.00






         TIME SUMMARY AT END OF TIME STEP    1 IN STRESS PERIOD    8
                    SECONDS     MINUTES      HOURS       DAYS        YEARS
                    -----------------------------------------------------------
   TIME STEP LENGTH 7.86240E+06 1.31040E+05  2184.0      91.000     0.24914    
 STRESS PERIOD TIME 7.86240E+06 1.31040E+05  2184.0      91.000     0.24914    
         TOTAL TIME 6.30720E+07 1.05120E+06  17520.      730.00      1.9986    
1
1
                            STRESS PERIOD NO.    9, LENGTH =   92.00000    
                            -----------------------------------------------

                              NUMBER OF TIME STEPS =     1

                               MULTIPLIER FOR DELT =     1.500

                            INITIAL TIME STEP SIZE =   92.00000    

 WELL NO.  LAYER   ROW   COL   STRESS RATE         
 --------------------------------------------------
      1      1     23     20     -0.3361E+05
      2      1     23      4     -0.3381E+05
      3      1      5     26     -0.3082E+05
      4      1     21     27     -0.3006E+05

      4 WELLS

                 RECHARGE =  5.000000E-04

 REUSING STREAM SEGMENT DATA FROM LAST STRESS PERIOD
 
 SOLVING FOR HEAD 


     6 CALLS TO PCG ROUTINE FOR TIME STEP   1 IN STRESS PERIOD    9
    22 TOTAL ITERATIONS

 OUTPUT CONTROL FOR STRESS PERIOD    9   TIME STEP    1
    SAVE BUDGET
    SAVE HEAD FOR ALL LAYERS
    PRINT HEAD FOR ALL LAYERS
 UBDSV2 SAVING "STREAMFLOW OUT  " ON UNIT  50 AT TIME STEP  1, STRESS PERIOD   9



 STREAM LISTING     PERIOD      9   STEP        1

 LAYER ROW COL. STREAM  RCH.  FLOW INTO     FLOW TO   FLOW OUT OF   OVRLND.     DIRECT     STREAM       STREAM     STREAM     STREAM   STREAMBED  STREAMBED
                SEG.NO.  NO.  STRM. RCH.    AQUIFER    STRM. RCH.    RUNOFF     PRECIP       ET          HEAD       DEPTH      WIDTH   CONDCTNC.   GRADIENT

   1   13    1     1     1    1.0000E+05 -2.4206E+03   1.0242E+05  0.000E+00  0.000E+00  0.000E+00  4.84071E+01  1.457E-01  2.000E+01  2.000E+04 -1.210E-01
   1   13    2     1     2    1.0242E+05 -4.3839E+03   1.0680E+05  0.000E+00  0.000E+00  0.000E+00  4.79327E+01  1.486E-01  2.000E+01  2.000E+04 -2.192E-01
   1   14    3     1     3    1.0680E+05 -3.0769E+03   1.0988E+05  0.000E+00  0.000E+00  0.000E+00  4.74586E+01  1.518E-01  2.000E+01  2.000E+04 -1.538E-01
   1   15    4     1     4    1.0988E+05 -2.6571E+03   1.1254E+05  0.000E+00  0.000E+00  0.000E+00  4.69837E+01  1.542E-01  2.000E+01  2.000E+04 -1.329E-01
   1   16    5     1     5    1.1254E+05 -2.4239E+03   1.1496E+05  0.000E+00  0.000E+00  0.000E+00  4.65086E+01  1.563E-01  2.000E+01  2.000E+04 -1.212E-01
   1   16    6     1     6    1.1496E+05 -2.3007E+03   1.1726E+05  0.000E+00  0.000E+00  0.000E+00  4.60332E+01  1.582E-01  2.000E+01  2.000E+04 -1.150E-01
   1   16    7     1     7    1.1726E+05 -2.5353E+03   1.1980E+05  0.000E+00  0.000E+00  0.000E+00  4.55579E+01  1.602E-01  2.000E+01  2.000E+04 -1.268E-01
   1   16    8     1     8    1.1980E+05 -2.7018E+03   1.2250E+05  0.000E+00  0.000E+00  0.000E+00  4.50828E+01  1.623E-01  2.000E+01  2.000E+04 -1.351E-01
   1   16    9     1     9    1.2250E+05 -2.7988E+03   1.2530E+05  0.000E+00  0.000E+00  0.000E+00  4.46077E+01  1.645E-01  2.000E+01  2.000E+04 -1.399E-01
   1   16   10     1    10    1.2530E+05 -2.8270E+03   1.2813E+05  0.000E+00  0.000E+00  0.000E+00  4.41326E+01  1.667E-01  2.000E+01  2.000E+04 -1.414E-01
   1   16   11     1    11    1.2813E+05 -2.8014E+03   1.3093E+05  0.000E+00  0.000E+00  0.000E+00  4.36576E+01  1.689E-01  2.000E+01  2.000E+04 -1.401E-01
   1   16   12     1    12    1.3093E+05 -3.5633E+03   1.3449E+05  0.000E+00  0.000E+00  0.000E+00  4.31828E+01  1.714E-01  2.000E+01  2.000E+04 -1.782E-01
   1   15   13     1    13    1.3449E+05 -3.3818E+03   1.3787E+05  0.000E+00  0.000E+00  0.000E+00  4.27082E+01  1.741E-01  2.000E+01  2.000E+04 -1.691E-01
   1   14   14     1    14    1.3787E+05 -3.4909E+03   1.4136E+05  0.000E+00  0.000E+00  0.000E+00  4.22335E+01  1.767E-01  2.000E+01  2.000E+04 -1.745E-01
   1   13   15     1    15    1.4136E+05 -3.8320E+03   1.4520E+05  0.000E+00  0.000E+00  0.000E+00  4.17590E+01  1.795E-01  2.000E+01  2.000E+04 -1.916E-01
   1   12   16     1    16    1.4520E+05 -5.0483E+03   1.5024E+05  0.000E+00  0.000E+00  0.000E+00  4.12851E+01  1.828E-01  2.000E+01  2.000E+04 -2.524E-01
   1   12   17     1    17    1.5024E+05 -3.1874E+03   1.5343E+05  0.000E+00  0.000E+00  0.000E+00  4.08108E+01  1.858E-01  2.000E+01  2.000E+04 -1.594E-01
   1   12   18     1    18    1.5343E+05 -2.9896E+03   1.5642E+05  0.000E+00  0.000E+00  0.000E+00  4.03358E+01  1.881E-01  2.000E+01  2.000E+04 -1.495E-01
   1   12   19     1    19    1.5642E+05 -3.8295E+03   1.6025E+05  0.000E+00  0.000E+00  0.000E+00  3.98610E+01  1.906E-01  2.000E+01  2.000E+04 -1.915E-01
   1   13   20     1    20    1.6025E+05 -2.2582E+03   1.6251E+05  0.000E+00  0.000E+00  0.000E+00  3.93859E+01  1.928E-01  2.000E+01  2.000E+04 -1.129E-01
   1   14   21     1    21    1.6251E+05 -1.2795E+03   1.6379E+05  0.000E+00  0.000E+00  0.000E+00  3.89099E+01  1.940E-01  2.000E+01  2.000E+04 -6.397E-02
   1   14   22     1    22    1.6379E+05  5.3216E+03   1.5847E+05  0.000E+00  0.000E+00  0.000E+00  3.84312E+01  1.926E-01  2.000E+01  2.000E+04  2.661E-01
   1    9   30     2     1    5.0000E+04 -1.3113E+03   5.1311E+04  0.000E+00  0.000E+00  0.000E+00  4.02418E+01  1.168E-01  2.000E+01  2.000E+04 -6.557E-02
   1    9   29     2     2    5.1311E+04 -1.4774E+03   5.2789E+04  0.000E+00  0.000E+00  0.000E+00  3.99937E+01  1.187E-01  2.000E+01  2.000E+04 -7.387E-02
   1    9   28     2     3    5.2789E+04 -1.5079E+03   5.4297E+04  0.000E+00  0.000E+00  0.000E+00  3.97457E+01  1.207E-01  2.000E+01  2.000E+04 -7.540E-02
   1    9   27     2     4    5.4297E+04 -2.7343E+03   5.7031E+04  0.000E+00  0.000E+00  0.000E+00  3.94986E+01  1.236E-01  2.000E+01  2.000E+04 -1.367E-01
   1   10   26     2     5    5.7031E+04 -1.9231E+03   5.8954E+04  0.000E+00  0.000E+00  0.000E+00  3.92516E+01  1.266E-01  2.000E+01  2.000E+04 -9.616E-02
   1   11   25     2     6    5.8954E+04 -1.6470E+03   6.0601E+04  0.000E+00  0.000E+00  0.000E+00  3.90040E+01  1.290E-01  2.000E+01  2.000E+04 -8.235E-02
   1   12   24     2     7    6.0601E+04 -1.2541E+03   6.1855E+04  0.000E+00  0.000E+00  0.000E+00  3.87558E+01  1.308E-01  2.000E+01  2.000E+04 -6.270E-02
   1   13   23     2     8    6.1855E+04 -7.3882E+02   6.2594E+04  0.000E+00  0.000E+00  0.000E+00  3.85071E+01  1.321E-01  2.000E+01  2.000E+04 -3.694E-02
   1   14   22     2     9    6.2594E+04  1.8255E+03   6.0768E+04  0.000E+00  0.000E+00  0.000E+00  3.82564E+01  1.314E-01  2.000E+01  2.000E+04  9.128E-02
   1   14   22     3     1    2.1923E+05 -8.3034E+03   2.2754E+05  0.000E+00  0.000E+00  0.000E+00  3.77500E+01  1.944E-01  2.000E+01  2.000E+04 -4.152E-01
   1   15   23     3     2    2.2754E+05 -1.4931E+03   2.2903E+05  0.000E+00  0.000E+00  0.000E+00  3.68636E+01  1.970E-01  2.000E+01  2.000E+04 -7.465E-02
   1   15   24     3     3    2.2903E+05 -1.0295E+03   2.3006E+05  0.000E+00  0.000E+00  0.000E+00  3.59754E+01  1.976E-01  2.000E+01  2.000E+04 -5.147E-02
   1   15   25     3     4    2.3006E+05 -9.9431E+02   2.3105E+05  0.000E+00  0.000E+00  0.000E+00  3.50870E+01  1.981E-01  2.000E+01  2.000E+04 -4.972E-02
   1   15   26     3     5    2.3105E+05 -1.5327E+03   2.3259E+05  0.000E+00  0.000E+00  0.000E+00  3.41988E+01  1.988E-01  2.000E+01  2.000E+04 -7.663E-02
   1   16   27     3     6    2.3259E+05 -1.3563E+03   2.3394E+05  0.000E+00  0.000E+00  0.000E+00  3.33106E+01  1.995E-01  2.000E+01  2.000E+04 -6.782E-02
   1   17   28     3     7    2.3394E+05 -1.1001E+03   2.3504E+05  0.000E+00  0.000E+00  0.000E+00  3.24224E+01  2.002E-01  2.000E+01  2.000E+04 -5.500E-02
   1   18   29     3     8    2.3504E+05 -1.2046E+03   2.3625E+05  0.000E+00  0.000E+00  0.000E+00  3.15341E+01  2.008E-01  2.000E+01  2.000E+04 -6.023E-02
   1   18   30     3     9    2.3625E+05 -2.3767E+03   2.3863E+05  0.000E+00  0.000E+00  0.000E+00  3.06461E+01  2.017E-01  2.000E+01  2.000E+04 -1.188E-01



1
              HEAD IN LAYER   1 AT END OF TIME STEP   1 IN STRESS PERIOD    9
  ---------------------------------------------------------------------------

          1      2      3      4      5      6      7      8      9     10
         11     12     13     14     15     16     17     18     19     20
         21     22     23     24     25     26     27     28     29     30
 .........................................................................
   1  ****** ****** ****** ****** ****** ****** ****** ****** ****** ******
      ****** ****** ****** ****** ****** ****** ****** ****** ****** ******
      ****** ****** ****** ****** ****** ****** ****** ****** ****** ******
   2  ****** ****** ****** ****** ****** ****** ****** ****** ****** ******
      ****** ****** ****** ****** ****** ****** ****** ****** ****** ******
      ****** ****** ****** ****** ****** ****** ****** ****** ****** ******
   3  ****** ****** ****** ****** ****** ****** ****** ****** ****** ******
      ****** ****** ****** ****** ****** ****** ****** ****** ****** ******
      ****** ****** ****** ****** ****** ****** ****** ****** ****** ******
   4  ****** ****** ****** ****** ****** ****** ****** ****** ****** ******
      ****** ****** ****** ****** ****** ****** ****** ****** ****** ******
      ****** ****** ****** ****** ****** ****** ****** ****** ****** ******
   5  ****** ****** ****** ****** ****** ****** ****** ****** ****** ******
      ****** ****** ****** ****** ****** ****** ****** ****** ****** ******
      ****** ****** ****** ****** ****** ****** ****** ****** ****** ******
   6  ****** ****** ****** ****** ****** ****** ****** ****** ****** ******
      ****** ****** ****** ****** ****** ****** ****** ****** ****** ******
      ****** ****** ****** ****** ****** ****** ****** ****** ****** ******
   7  ****** ****** ****** ****** ****** ****** ****** ****** ****** ******
      ****** ****** ****** ****** ****** ****** ****** ****** ****** ******
      ****** ****** ****** ****** ****** ****** ****** ****** ****** ******
   8  ****** ****** ****** ****** ****** ****** ****** ****** ****** ******
      ****** ****** ****** ****** ****** ****** ****** ****** ****** ******
      ****** ****** ****** ****** ****** ****** ****** ****** ****** ******
   9  ****** ****** ****** ****** ****** ****** ****** ****** ****** ******
      ****** ****** ****** ****** ****** ****** ****** ****** ****** ******
      ****** ****** ****** ****** ****** ****** ****** ****** ****** ******
  10  ****** ****** ****** ****** ****** ****** ****** ****** ****** ******
      ****** ****** ****** ****** ****** ****** ****** ****** ****** ******
      ****** ****** ****** ****** ****** ****** ****** ****** ****** ******
  11  ****** ****** ****** ****** ****** ****** ****** ****** ****** ******
      ****** ****** ****** ****** ****** ****** ****** ****** ****** ******
      ****** ****** ****** ****** ****** ****** ****** ****** ****** ******
  12  ****** ****** ****** ****** ****** ****** ****** ****** ****** ******
      ****** ****** ****** ****** ****** ****** ****** ****** ****** ******
      ****** ****** ****** ****** ****** ****** ****** ****** ****** ******
  13  ****** ****** ****** ****** ****** ****** ****** ****** ****** ******
      ****** ****** ****** ****** ****** ****** ****** ****** ****** ******
      ****** ****** ****** ****** ****** ****** ****** ****** ****** ******
  14  ****** ****** ****** ****** ****** ****** ****** ****** ****** ******
      ****** ****** ****** ****** ****** ****** ****** ****** ****** ******
      ****** ****** ****** ****** ****** ****** ****** ****** ****** ******
  15  ****** ****** ****** ****** ****** ****** ****** ****** ****** ******
      ****** ****** ****** ****** ****** ****** ****** ****** ****** ******
      ****** ****** ****** ****** ****** ****** ****** ****** ****** ******
  16  ****** ****** ****** ****** ****** ****** ****** ****** ****** ******
      ****** ****** ****** ****** ****** ****** ****** ****** ****** ******
      ****** ****** ****** ****** ****** ****** ****** ****** ****** ******
  17  ****** ****** ****** ****** ****** ****** ****** ****** ****** ******
      ****** ****** ****** ****** ****** ****** ****** ****** ****** ******
      ****** ****** ****** ****** ****** ****** ****** ****** ****** ******
  18  ****** ****** ****** ****** ****** ****** ****** ****** ****** ******
      ****** ****** ****** ****** ****** ****** ****** ****** ****** ******
      ****** ****** ****** ****** ****** ****** ****** ****** ****** ******
  19  ****** ****** ****** ****** ****** ****** ****** ****** ****** ******
      ****** ****** ****** ****** ****** ****** ****** ****** ****** ******
      ****** ****** ****** ****** ****** ****** ****** ****** ****** ******
  20  ****** ****** ****** ****** ****** ****** ****** ****** ****** ******
      ****** ****** ****** ****** ****** ****** ****** ****** ****** ******
      ****** ****** ****** ****** ****** ****** ****** ****** ****** ******
  21  ****** ****** ****** ****** ****** ****** ****** ****** ****** ******
      ****** ****** ****** ****** ****** ****** ****** ****** ****** ******
      ****** ****** ****** ****** ****** ****** ****** ****** ****** ******
  22  ****** ****** ****** ****** ****** ****** ****** ****** ****** ******
      ****** ****** ****** ****** ****** ****** ****** ****** ****** ******
      ****** ****** ****** ****** ****** ****** ****** ****** ****** ******
  23  ****** ****** ****** ****** ****** ****** ****** ****** ****** ******
      ****** ****** ****** ****** ****** ****** ****** ****** ****** ******
      ****** ****** ****** ****** ****** ****** ****** ****** ****** ******
  24  ****** ****** ****** ****** ****** ****** ****** ****** ****** ******
      ****** ****** ****** ****** ****** ****** ****** ****** ****** ******
      ****** ****** ****** ****** ****** ****** ****** ****** ****** ******
  25  ****** ****** ****** ****** ****** ****** ****** ****** ****** ******
      ****** ****** ****** ****** ****** ****** ****** ****** ****** ******
      ****** ****** ****** ****** ****** ****** ****** ****** ****** ******

 HEAD WILL BE SAVED ON UNIT   51 AT END OF TIME STEP    1, STRESS PERIOD    9
1
  VOLUMETRIC BUDGET FOR ENTIRE MODEL AT END OF TIME STEP    1, STRESS PERIOD   9
  ------------------------------------------------------------------------------

     CUMULATIVE VOLUMES      L**3       RATES FOR THIS TIME STEP      L**3/T
     ------------------                 ------------------------

           IN:                                      IN:
           ---                                      ---
             STORAGE =    26247420.9712               STORAGE =        2682.5678
       CONSTANT HEAD =   154724103.6337         CONSTANT HEAD =      200452.8556
               WELLS =           0.0000                 WELLS =           0.0000
            RECHARGE =    18878400.0000              RECHARGE =       13800.0000
      STREAM LEAKAGE =     5607001.4893        STREAM LEAKAGE =        7147.1045

            TOTAL IN =   205456926.0942              TOTAL IN =      224082.5279

          OUT:                                     OUT:
          ----                                     ----
             STORAGE =     1256618.8648               STORAGE =           0.0000
       CONSTANT HEAD =           0.0000         CONSTANT HEAD =           0.0000
               WELLS =   105471000.5582                 WELLS =      128310.2197
            RECHARGE =           0.0000              RECHARGE =           0.0000
      STREAM LEAKAGE =    98729307.7319        STREAM LEAKAGE =       95772.3114

           TOTAL OUT =   205456927.1550             TOTAL OUT =      224082.5310

            IN - OUT =          -1.0607              IN - OUT =      -3.1395E-03

 PERCENT DISCREPANCY =          -0.00     PERCENT DISCREPANCY =          -0.00






         TIME SUMMARY AT END OF TIME STEP    1 IN STRESS PERIOD    9
                    SECONDS     MINUTES      HOURS       DAYS        YEARS
                    -----------------------------------------------------------
   TIME STEP LENGTH 7.94880E+06 1.32480E+05  2208.0      92.000     0.25188    
 STRESS PERIOD TIME 7.94880E+06 1.32480E+05  2208.0      92.000     0.25188    
         TOTAL TIME 7.10208E+07 1.18368E+06  19728.      822.00      2.2505    
1
1
                            STRESS PERIOD NO.   10, LENGTH =   91.00000    
                            -----------------------------------------------

                              NUMBER OF TIME STEPS =     1

                               MULTIPLIER FOR DELT =     1.500

                            INITIAL TIME STEP SIZE =   91.00000    

 WELL NO.  LAYER   ROW   COL   STRESS RATE         
 --------------------------------------------------
      1      1     23     20     -0.3361E+05
      2      1     23      4     -0.3381E+05
      3      1      5     26     -0.3082E+05
      4      1     21     27     -0.3006E+05

      4 WELLS

                 RECHARGE =  2.000000E-03

 REUSING STREAM SEGMENT DATA FROM LAST STRESS PERIOD
 
 SOLVING FOR HEAD 


     7 CALLS TO PCG ROUTINE FOR TIME STEP   1 IN STRESS PERIOD   10
    26 TOTAL ITERATIONS

 OUTPUT CONTROL FOR STRESS PERIOD   10   TIME STEP    1
    SAVE BUDGET
    SAVE HEAD FOR ALL LAYERS
    PRINT HEAD FOR ALL LAYERS
 UBDSV2 SAVING "STREAMFLOW OUT  " ON UNIT  50 AT TIME STEP  1, STRESS PERIOD  10



 STREAM LISTING     PERIOD     10   STEP        1

 LAYER ROW COL. STREAM  RCH.  FLOW INTO     FLOW TO   FLOW OUT OF   OVRLND.     DIRECT     STREAM       STREAM     STREAM     STREAM   STREAMBED  STREAMBED
                SEG.NO.  NO.  STRM. RCH.    AQUIFER    STRM. RCH.    RUNOFF     PRECIP       ET          HEAD       DEPTH      WIDTH   CONDCTNC.   GRADIENT

   1   13    1     1     1    1.0000E+05 -2.8437E+03   1.0284E+05  0.000E+00  0.000E+00  0.000E+00  4.84072E+01  1.459E-01  2.000E+01  2.000E+04 -1.422E-01
   1   13    2     1     2    1.0284E+05 -4.9460E+03   1.0779E+05  0.000E+00  0.000E+00  0.000E+00  4.79333E+01  1.492E-01  2.000E+01  2.000E+04 -2.473E-01
   1   14    3     1     3    1.0779E+05 -3.6436E+03   1.1143E+05  0.000E+00  0.000E+00  0.000E+00  4.74597E+01  1.528E-01  2.000E+01  2.000E+04 -1.822E-01
   1   15    4     1     4    1.1143E+05 -3.2168E+03   1.1465E+05  0.000E+00  0.000E+00  0.000E+00  4.69852E+01  1.557E-01  2.000E+01  2.000E+04 -1.608E-01
   1   16    5     1     5    1.1465E+05 -2.9390E+03   1.1759E+05  0.000E+00  0.000E+00  0.000E+00  4.65105E+01  1.582E-01  2.000E+01  2.000E+04 -1.469E-01
   1   16    6     1     6    1.1759E+05 -2.7081E+03   1.2030E+05  0.000E+00  0.000E+00  0.000E+00  4.60355E+01  1.605E-01  2.000E+01  2.000E+04 -1.354E-01
   1   16    7     1     7    1.2030E+05 -2.9494E+03   1.2325E+05  0.000E+00  0.000E+00  0.000E+00  4.55605E+01  1.628E-01  2.000E+01  2.000E+04 -1.475E-01
   1   16    8     1     8    1.2325E+05 -3.1198E+03   1.2637E+05  0.000E+00  0.000E+00  0.000E+00  4.50857E+01  1.652E-01  2.000E+01  2.000E+04 -1.560E-01
   1   16    9     1     9    1.2637E+05 -3.2167E+03   1.2958E+05  0.000E+00  0.000E+00  0.000E+00  4.46109E+01  1.677E-01  2.000E+01  2.000E+04 -1.608E-01
   1   16   10     1    10    1.2958E+05 -3.2410E+03   1.3282E+05  0.000E+00  0.000E+00  0.000E+00  4.41362E+01  1.703E-01  2.000E+01  2.000E+04 -1.621E-01
   1   16   11     1    11    1.3282E+05 -3.2096E+03   1.3603E+05  0.000E+00  0.000E+00  0.000E+00  4.36614E+01  1.728E-01  2.000E+01  2.000E+04 -1.605E-01
   1   16   12     1    12    1.3603E+05 -4.0880E+03   1.4012E+05  0.000E+00  0.000E+00  0.000E+00  4.31869E+01  1.755E-01  2.000E+01  2.000E+04 -2.044E-01
   1   15   13     1    13    1.4012E+05 -3.9538E+03   1.4408E+05  0.000E+00  0.000E+00  0.000E+00  4.27127E+01  1.786E-01  2.000E+01  2.000E+04 -1.977E-01
   1   14   14     1    14    1.4408E+05 -4.0743E+03   1.4815E+05  0.000E+00  0.000E+00  0.000E+00  4.22384E+01  1.816E-01  2.000E+01  2.000E+04 -2.037E-01
   1   13   15     1    15    1.4815E+05 -4.4066E+03   1.5256E+05  0.000E+00  0.000E+00  0.000E+00  4.17643E+01  1.848E-01  2.000E+01  2.000E+04 -2.203E-01
   1   12   16     1    16    1.5256E+05 -5.6005E+03   1.5816E+05  0.000E+00  0.000E+00  0.000E+00  4.12907E+01  1.884E-01  2.000E+01  2.000E+04 -2.800E-01
   1   12   17     1    17    1.5816E+05 -3.5957E+03   1.6175E+05  0.000E+00  0.000E+00  0.000E+00  4.08167E+01  1.917E-01  2.000E+01  2.000E+04 -1.798E-01
   1   12   18     1    18    1.6175E+05 -3.3901E+03   1.6514E+05  0.000E+00  0.000E+00  0.000E+00  4.03420E+01  1.942E-01  2.000E+01  2.000E+04 -1.695E-01
   1   12   19     1    19    1.6514E+05 -4.3171E+03   1.6946E+05  0.000E+00  0.000E+00  0.000E+00  3.98674E+01  1.970E-01  2.000E+01  2.000E+04 -2.159E-01
   1   13   20     1    20    1.6946E+05 -2.7310E+03   1.7219E+05  0.000E+00  0.000E+00  0.000E+00  3.93926E+01  1.995E-01  2.000E+01  2.000E+04 -1.365E-01
   1   14   21     1    21    1.7219E+05 -1.7150E+03   1.7391E+05  0.000E+00  0.000E+00  0.000E+00  3.89169E+01  2.010E-01  2.000E+01  2.000E+04 -8.575E-02
   1   14   22     1    22    1.7391E+05  5.2388E+03   1.6867E+05  0.000E+00  0.000E+00  0.000E+00  3.84384E+01  1.998E-01  2.000E+01  2.000E+04  2.619E-01
   1    9   30     2     1    5.0000E+04 -1.6727E+03   5.1673E+04  0.000E+00  0.000E+00  0.000E+00  4.02420E+01  1.170E-01  2.000E+01  2.000E+04 -8.363E-02
   1    9   29     2     2    5.1673E+04 -1.8361E+03   5.3509E+04  0.000E+00  0.000E+00  0.000E+00  3.99944E+01  1.194E-01  2.000E+01  2.000E+04 -9.180E-02
   1    9   28     2     3    5.3509E+04 -1.8650E+03   5.5374E+04  0.000E+00  0.000E+00  0.000E+00  3.97469E+01  1.219E-01  2.000E+01  2.000E+04 -9.325E-02
   1    9   27     2     4    5.5374E+04 -3.2138E+03   5.8588E+04  0.000E+00  0.000E+00  0.000E+00  3.95003E+01  1.253E-01  2.000E+01  2.000E+04 -1.607E-01
   1   10   26     2     5    5.8588E+04 -2.4184E+03   6.1006E+04  0.000E+00  0.000E+00  0.000E+00  3.92540E+01  1.290E-01  2.000E+01  2.000E+04 -1.209E-01
   1   11   25     2     6    6.1006E+04 -2.1209E+03   6.3127E+04  0.000E+00  0.000E+00  0.000E+00  3.90069E+01  1.319E-01  2.000E+01  2.000E+04 -1.060E-01
   1   12   24     2     7    6.3127E+04 -1.6728E+03   6.4800E+04  0.000E+00  0.000E+00  0.000E+00  3.87593E+01  1.343E-01  2.000E+01  2.000E+04 -8.364E-02
   1   13   23     2     8    6.4800E+04 -1.0650E+03   6.5865E+04  0.000E+00  0.000E+00  0.000E+00  3.85110E+01  1.360E-01  2.000E+01  2.000E+04 -5.325E-02
   1   14   22     2     9    6.5865E+04  1.6834E+03   6.4181E+04  0.000E+00  0.000E+00  0.000E+00  3.82606E+01  1.356E-01  2.000E+01  2.000E+04  8.417E-02
   1   14   22     3     1    2.3285E+05 -8.3892E+03   2.4124E+05  0.000E+00  0.000E+00  0.000E+00  3.77570E+01  2.015E-01  2.000E+01  2.000E+04 -4.195E-01
   1   15   23     3     2    2.4124E+05 -1.8993E+03   2.4314E+05  0.000E+00  0.000E+00  0.000E+00  3.68707E+01  2.041E-01  2.000E+01  2.000E+04 -9.496E-02
   1   15   24     3     3    2.4314E+05 -1.3216E+03   2.4446E+05  0.000E+00  0.000E+00  0.000E+00  3.59827E+01  2.049E-01  2.000E+01  2.000E+04 -6.608E-02
   1   15   25     3     4    2.4446E+05 -1.2862E+03   2.4574E+05  0.000E+00  0.000E+00  0.000E+00  3.50944E+01  2.055E-01  2.000E+01  2.000E+04 -6.431E-02
   1   15   26     3     5    2.4574E+05 -1.9073E+03   2.4765E+05  0.000E+00  0.000E+00  0.000E+00  3.42063E+01  2.063E-01  2.000E+01  2.000E+04 -9.536E-02
   1   16   27     3     6    2.4765E+05 -1.8279E+03   2.4948E+05  0.000E+00  0.000E+00  0.000E+00  3.33184E+01  2.073E-01  2.000E+01  2.000E+04 -9.140E-02
   1   17   28     3     7    2.4948E+05 -1.5819E+03   2.5106E+05  0.000E+00  0.000E+00  0.000E+00  3.24304E+01  2.081E-01  2.000E+01  2.000E+04 -7.909E-02
   1   18   29     3     8    2.5106E+05 -1.6575E+03   2.5272E+05  0.000E+00  0.000E+00  0.000E+00  3.15423E+01  2.089E-01  2.000E+01  2.000E+04 -8.288E-02
   1   18   30     3     9    2.5272E+05 -2.7170E+03   2.5544E+05  0.000E+00  0.000E+00  0.000E+00  3.06545E+01  2.100E-01  2.000E+01  2.000E+04 -1.358E-01



1
              HEAD IN LAYER   1 AT END OF TIME STEP   1 IN STRESS PERIOD   10
  ---------------------------------------------------------------------------

          1      2      3      4      5      6      7      8      9     10
         11     12     13     14     15     16     17     18     19     20
         21     22     23     24     25     26     27     28     29     30
 .........................................................................
   1  ****** ****** ****** ****** ****** ****** ****** ****** ****** ******
      ****** ****** ****** ****** ****** ****** ****** ****** ****** ******
      ****** ****** ****** ****** ****** ****** ****** ****** ****** ******
   2  ****** ****** ****** ****** ****** ****** ****** ****** ****** ******
      ****** ****** ****** ****** ****** ****** ****** ****** ****** ******
      ****** ****** ****** ****** ****** ****** ****** ****** ****** ******
   3  ****** ****** ****** ****** ****** ****** ****** ****** ****** ******
      ****** ****** ****** ****** ****** ****** ****** ****** ****** ******
      ****** ****** ****** ****** ****** ****** ****** ****** ****** ******
   4  ****** ****** ****** ****** ****** ****** ****** ****** ****** ******
      ****** ****** ****** ****** ****** ****** ****** ****** ****** ******
      ****** ****** ****** ****** ****** ****** ****** ****** ****** ******
   5  ****** ****** ****** ****** ****** ****** ****** ****** ****** ******
      ****** ****** ****** ****** ****** ****** ****** ****** ****** ******
      ****** ****** ****** ****** ****** ****** ****** ****** ****** ******
   6  ****** ****** ****** ****** ****** ****** ****** ****** ****** ******
      ****** ****** ****** ****** ****** ****** ****** ****** ****** ******
      ****** ****** ****** ****** ****** ****** ****** ****** ****** ******
   7  ****** ****** ****** ****** ****** ****** ****** ****** ****** ******
      ****** ****** ****** ****** ****** ****** ****** ****** ****** ******
      ****** ****** ****** ****** ****** ****** ****** ****** ****** ******
   8  ****** ****** ****** ****** ****** ****** ****** ****** ****** ******
      ****** ****** ****** ****** ****** ****** ****** ****** ****** ******
      ****** ****** ****** ****** ****** ****** ****** ****** ****** ******
   9  ****** ****** ****** ****** ****** ****** ****** ****** ****** ******
      ****** ****** ****** ****** ****** ****** ****** ****** ****** ******
      ****** ****** ****** ****** ****** ****** ****** ****** ****** ******
  10  ****** ****** ****** ****** ****** ****** ****** ****** ****** ******
      ****** ****** ****** ****** ****** ****** ****** ****** ****** ******
      ****** ****** ****** ****** ****** ****** ****** ****** ****** ******
  11  ****** ****** ****** ****** ****** ****** ****** ****** ****** ******
      ****** ****** ****** ****** ****** ****** ****** ****** ****** ******
      ****** ****** ****** ****** ****** ****** ****** ****** ****** ******
  12  ****** ****** ****** ****** ****** ****** ****** ****** ****** ******
      ****** ****** ****** ****** ****** ****** ****** ****** ****** ******
      ****** ****** ****** ****** ****** ****** ****** ****** ****** ******
  13  ****** ****** ****** ****** ****** ****** ****** ****** ****** ******
      ****** ****** ****** ****** ****** ****** ****** ****** ****** ******
      ****** ****** ****** ****** ****** ****** ****** ****** ****** ******
  14  ****** ****** ****** ****** ****** ****** ****** ****** ****** ******
      ****** ****** ****** ****** ****** ****** ****** ****** ****** ******
      ****** ****** ****** ****** ****** ****** ****** ****** ****** ******
  15  ****** ****** ****** ****** ****** ****** ****** ****** ****** ******
      ****** ****** ****** ****** ****** ****** ****** ****** ****** ******
      ****** ****** ****** ****** ****** ****** ****** ****** ****** ******
  16  ****** ****** ****** ****** ****** ****** ****** ****** ****** ******
      ****** ****** ****** ****** ****** ****** ****** ****** ****** ******
      ****** ****** ****** ****** ****** ****** ****** ****** ****** ******
  17  ****** ****** ****** ****** ****** ****** ****** ****** ****** ******
      ****** ****** ****** ****** ****** ****** ****** ****** ****** ******
      ****** ****** ****** ****** ****** ****** ****** ****** ****** ******
  18  ****** ****** ****** ****** ****** ****** ****** ****** ****** ******
      ****** ****** ****** ****** ****** ****** ****** ****** ****** ******
      ****** ****** ****** ****** ****** ****** ****** ****** ****** ******
  19  ****** ****** ****** ****** ****** ****** ****** ****** ****** ******
      ****** ****** ****** ****** ****** ****** ****** ****** ****** ******
      ****** ****** ****** ****** ****** ****** ****** ****** ****** ******
  20  ****** ****** ****** ****** ****** ****** ****** ****** ****** ******
      ****** ****** ****** ****** ****** ****** ****** ****** ****** ******
      ****** ****** ****** ****** ****** ****** ****** ****** ****** ******
  21  ****** ****** ****** ****** ****** ****** ****** ****** ****** ******
      ****** ****** ****** ****** ****** ****** ****** ****** ****** ******
      ****** ****** ****** ****** ****** ****** ****** ****** ****** ******
  22  ****** ****** ****** ****** ****** ****** ****** ****** ****** ******
      ****** ****** ****** ****** ****** ****** ****** ****** ****** ******
      ****** ****** ****** ****** ****** ****** ****** ****** ****** ******
  23  ****** ****** ****** ****** ****** ****** ****** ****** ****** ******
      ****** ****** ****** ****** ****** ****** ****** ****** ****** ******
      ****** ****** ****** ****** ****** ****** ****** ****** ****** ******
  24  ****** ****** ****** ****** ****** ****** ****** ****** ****** ******
      ****** ****** ****** ****** ****** ****** ****** ****** ****** ******
      ****** ****** ****** ****** ****** ****** ****** ****** ****** ******
  25  ****** ****** ****** ****** ****** ****** ****** ****** ****** ******
      ****** ****** ****** ****** ****** ****** ****** ****** ****** ******
      ****** ****** ****** ****** ****** ****** ****** ****** ****** ******

 HEAD WILL BE SAVED ON UNIT   51 AT END OF TIME STEP    1, STRESS PERIOD   10
1
  VOLUMETRIC BUDGET FOR ENTIRE MODEL AT END OF TIME STEP    1, STRESS PERIOD  10
  ------------------------------------------------------------------------------

     CUMULATIVE VOLUMES      L**3       RATES FOR THIS TIME STEP      L**3/T
     ------------------                 ------------------------

           IN:                                      IN:
           ---                                      ---
             STORAGE =    26247420.9712               STORAGE =           0.0000
       CONSTANT HEAD =   171950806.5306         CONSTANT HEAD =      189304.4274
               WELLS =           0.0000                 WELLS =           0.0000
            RECHARGE =    23901600.0000              RECHARGE =       55200.0000
      STREAM LEAKAGE =     6236926.4867        STREAM LEAKAGE =        6922.2527

            TOTAL IN =   228336753.9885              TOTAL IN =      251426.6802

          OUT:                                     OUT:
          ----                                     ----
             STORAGE =     2235615.3646               STORAGE =       10758.2033
       CONSTANT HEAD =           0.0000         CONSTANT HEAD =           0.0000
               WELLS =   117147230.5470                 WELLS =      128310.2197
            RECHARGE =           0.0000              RECHARGE =           0.0000
      STREAM LEAKAGE =   108953908.9751        STREAM LEAKAGE =      112358.2554

           TOTAL OUT =   228336754.8867             TOTAL OUT =      251426.6784

            IN - OUT =          -0.8983              IN - OUT =       1.7852E-03

 PERCENT DISCREPANCY =          -0.00     PERCENT DISCREPANCY =           0.00






         TIME SUMMARY AT END OF TIME STEP    1 IN STRESS PERIOD   10
                    SECONDS     MINUTES      HOURS       DAYS        YEARS
                    -----------------------------------------------------------
   TIME STEP LENGTH 7.86240E+06 1.31040E+05  2184.0      91.000     0.24914    
 STRESS PERIOD TIME 7.86240E+06 1.31040E+05  2184.0      91.000     0.24914    
         TOTAL TIME 7.88832E+07 1.31472E+06  21912.      913.00      2.4997    
1
1
                            STRESS PERIOD NO.   11, LENGTH =   91.00000    
                            -----------------------------------------------

                              NUMBER OF TIME STEPS =     1

                               MULTIPLIER FOR DELT =     1.500

                            INITIAL TIME STEP SIZE =   91.00000    

 WELL NO.  LAYER   ROW   COL   STRESS RATE         
 --------------------------------------------------
      1      1     23     20     -0.3361E+05
      2      1     23      4     -0.3381E+05
      3      1      5     26     -0.3082E+05
      4      1     21     27     -0.3006E+05

      4 WELLS

                 RECHARGE =   0.00000    

 REUSING STREAM SEGMENT DATA FROM LAST STRESS PERIOD
 
 SOLVING FOR HEAD 


     7 CALLS TO PCG ROUTINE FOR TIME STEP   1 IN STRESS PERIOD   11
    26 TOTAL ITERATIONS

 OUTPUT CONTROL FOR STRESS PERIOD   11   TIME STEP    1
    SAVE BUDGET
    SAVE HEAD FOR ALL LAYERS
    PRINT HEAD FOR ALL LAYERS
 UBDSV2 SAVING "STREAMFLOW OUT  " ON UNIT  50 AT TIME STEP  1, STRESS PERIOD  11



 STREAM LISTING     PERIOD     11   STEP        1

 LAYER ROW COL. STREAM  RCH.  FLOW INTO     FLOW TO   FLOW OUT OF   OVRLND.     DIRECT     STREAM       STREAM     STREAM     STREAM   STREAMBED  STREAMBED
                SEG.NO.  NO.  STRM. RCH.    AQUIFER    STRM. RCH.    RUNOFF     PRECIP       ET          HEAD       DEPTH      WIDTH   CONDCTNC.   GRADIENT

   1   13    1     1     1    1.0000E+05 -2.3595E+03   1.0236E+05  0.000E+00  0.000E+00  0.000E+00  4.84070E+01  1.457E-01  2.000E+01  2.000E+04 -1.180E-01
   1   13    2     1     2    1.0236E+05 -4.3130E+03   1.0667E+05  0.000E+00  0.000E+00  0.000E+00  4.79326E+01  1.485E-01  2.000E+01  2.000E+04 -2.156E-01
   1   14    3     1     3    1.0667E+05 -2.9887E+03   1.0966E+05  0.000E+00  0.000E+00  0.000E+00  4.74584E+01  1.516E-01  2.000E+01  2.000E+04 -1.494E-01
   1   15    4     1     4    1.0966E+05 -2.5652E+03   1.1223E+05  0.000E+00  0.000E+00  0.000E+00  4.69835E+01  1.540E-01  2.000E+01  2.000E+04 -1.283E-01
   1   16    5     1     5    1.1223E+05 -2.3374E+03   1.1456E+05  0.000E+00  0.000E+00  0.000E+00  4.65083E+01  1.560E-01  2.000E+01  2.000E+04 -1.169E-01
   1   16    6     1     6    1.1456E+05 -2.2323E+03   1.1680E+05  0.000E+00  0.000E+00  0.000E+00  4.60329E+01  1.579E-01  2.000E+01  2.000E+04 -1.116E-01
   1   16    7     1     7    1.1680E+05 -2.4667E+03   1.1926E+05  0.000E+00  0.000E+00  0.000E+00  4.55575E+01  1.598E-01  2.000E+01  2.000E+04 -1.233E-01
   1   16    8     1     8    1.1926E+05 -2.6331E+03   1.2190E+05  0.000E+00  0.000E+00  0.000E+00  4.50823E+01  1.618E-01  2.000E+01  2.000E+04 -1.317E-01
   1   16    9     1     9    1.2190E+05 -2.7301E+03   1.2463E+05  0.000E+00  0.000E+00  0.000E+00  4.46072E+01  1.640E-01  2.000E+01  2.000E+04 -1.365E-01
   1   16   10     1    10    1.2463E+05 -2.7586E+03   1.2738E+05  0.000E+00  0.000E+00  0.000E+00  4.41321E+01  1.662E-01  2.000E+01  2.000E+04 -1.379E-01
   1   16   11     1    11    1.2738E+05 -2.7333E+03   1.3012E+05  0.000E+00  0.000E+00  0.000E+00  4.36570E+01  1.683E-01  2.000E+01  2.000E+04 -1.367E-01
   1   16   12     1    12    1.3012E+05 -3.4784E+03   1.3360E+05  0.000E+00  0.000E+00  0.000E+00  4.31821E+01  1.708E-01  2.000E+01  2.000E+04 -1.739E-01
   1   15   13     1    13    1.3360E+05 -3.2901E+03   1.3689E+05  0.000E+00  0.000E+00  0.000E+00  4.27075E+01  1.734E-01  2.000E+01  2.000E+04 -1.645E-01
   1   14   14     1    14    1.3689E+05 -3.3995E+03   1.4029E+05  0.000E+00  0.000E+00  0.000E+00  4.22328E+01  1.759E-01  2.000E+01  2.000E+04 -1.700E-01
   1   13   15     1    15    1.4029E+05 -3.7438E+03   1.4403E+05  0.000E+00  0.000E+00  0.000E+00  4.17582E+01  1.786E-01  2.000E+01  2.000E+04 -1.872E-01
   1   12   16     1    16    1.4403E+05 -4.9730E+03   1.4900E+05  0.000E+00  0.000E+00  0.000E+00  4.12842E+01  1.819E-01  2.000E+01  2.000E+04 -2.487E-01
   1   12   17     1    17    1.4900E+05 -3.1223E+03   1.5212E+05  0.000E+00  0.000E+00  0.000E+00  4.08099E+01  1.849E-01  2.000E+01  2.000E+04 -1.561E-01
   1   12   18     1    18    1.5212E+05 -2.9232E+03   1.5505E+05  0.000E+00  0.000E+00  0.000E+00  4.03349E+01  1.871E-01  2.000E+01  2.000E+04 -1.462E-01
   1   12   19     1    19    1.5505E+05 -3.7479E+03   1.5880E+05  0.000E+00  0.000E+00  0.000E+00  3.98600E+01  1.896E-01  2.000E+01  2.000E+04 -1.874E-01
   1   13   20     1    20    1.5880E+05 -2.1679E+03   1.6096E+05  0.000E+00  0.000E+00  0.000E+00  3.93849E+01  1.917E-01  2.000E+01  2.000E+04 -1.084E-01
   1   14   21     1    21    1.6096E+05 -1.1996E+03   1.6216E+05  0.000E+00  0.000E+00  0.000E+00  3.89088E+01  1.929E-01  2.000E+01  2.000E+04 -5.998E-02
   1   14   22     1    22    1.6216E+05  5.3426E+03   1.5682E+05  0.000E+00  0.000E+00  0.000E+00  3.84300E+01  1.914E-01  2.000E+01  2.000E+04  2.671E-01
   1    9   30     2     1    5.0000E+04 -1.2312E+03   5.1231E+04  0.000E+00  0.000E+00  0.000E+00  4.02417E+01  1.167E-01  2.000E+01  2.000E+04 -6.156E-02
   1    9   29     2     2    5.1231E+04 -1.3984E+03   5.2630E+04  0.000E+00  0.000E+00  0.000E+00  3.99935E+01  1.185E-01  2.000E+01  2.000E+04 -6.992E-02
   1    9   28     2     3    5.2630E+04 -1.4308E+03   5.4060E+04  0.000E+00  0.000E+00  0.000E+00  3.97455E+01  1.205E-01  2.000E+01  2.000E+04 -7.154E-02
   1    9   27     2     4    5.4060E+04 -2.6421E+03   5.6703E+04  0.000E+00  0.000E+00  0.000E+00  3.94982E+01  1.232E-01  2.000E+01  2.000E+04 -1.321E-01
   1   10   26     2     5    5.6703E+04 -1.8208E+03   5.8523E+04  0.000E+00  0.000E+00  0.000E+00  3.92511E+01  1.261E-01  2.000E+01  2.000E+04 -9.104E-02
   1   11   25     2     6    5.8523E+04 -1.5466E+03   6.0070E+04  0.000E+00  0.000E+00  0.000E+00  3.90033E+01  1.283E-01  2.000E+01  2.000E+04 -7.733E-02
   1   12   24     2     7    6.0070E+04 -1.1616E+03   6.1232E+04  0.000E+00  0.000E+00  0.000E+00  3.87551E+01  1.301E-01  2.000E+01  2.000E+04 -5.808E-02
   1   13   23     2     8    6.1232E+04 -6.6224E+02   6.1894E+04  0.000E+00  0.000E+00  0.000E+00  3.85063E+01  1.313E-01  2.000E+01  2.000E+04 -3.311E-02
   1   14   22     2     9    6.1894E+04  1.8518E+03   6.0042E+04  0.000E+00  0.000E+00  0.000E+00  3.82555E+01  1.305E-01  2.000E+01  2.000E+04  9.259E-02
   1   14   22     3     1    2.1686E+05 -8.2838E+03   2.2515E+05  0.000E+00  0.000E+00  0.000E+00  3.77487E+01  1.932E-01  2.000E+01  2.000E+04 -4.142E-01
   1   15   23     3     2    2.2515E+05 -1.4177E+03   2.2656E+05  0.000E+00  0.000E+00  0.000E+00  3.68624E+01  1.957E-01  2.000E+01  2.000E+04 -7.088E-02
   1   15   24     3     3    2.2656E+05 -9.6650E+02   2.2753E+05  0.000E+00  0.000E+00  0.000E+00  3.59741E+01  1.963E-01  2.000E+01  2.000E+04 -4.833E-02
   1   15   25     3     4    2.2753E+05 -9.2742E+02   2.2846E+05  0.000E+00  0.000E+00  0.000E+00  3.50857E+01  1.968E-01  2.000E+01  2.000E+04 -4.637E-02
   1   15   26     3     5    2.2846E+05 -1.4430E+03   2.2990E+05  0.000E+00  0.000E+00  0.000E+00  3.41974E+01  1.974E-01  2.000E+01  2.000E+04 -7.215E-02
   1   16   27     3     6    2.2990E+05 -1.2517E+03   2.3115E+05  0.000E+00  0.000E+00  0.000E+00  3.33092E+01  1.981E-01  2.000E+01  2.000E+04 -6.259E-02
   1   17   28     3     7    2.3115E+05 -9.9514E+02   2.3215E+05  0.000E+00  0.000E+00  0.000E+00  3.24209E+01  1.987E-01  2.000E+01  2.000E+04 -4.976E-02
   1   18   29     3     8    2.3215E+05 -1.1106E+03   2.3326E+05  0.000E+00  0.000E+00  0.000E+00  3.15326E+01  1.992E-01  2.000E+01  2.000E+04 -5.553E-02
   1   18   30     3     9    2.3326E+05 -2.3000E+03   2.3556E+05  0.000E+00  0.000E+00  0.000E+00  3.06446E+01  2.001E-01  2.000E+01  2.000E+04 -1.150E-01



1
              HEAD IN LAYER   1 AT END OF TIME STEP   1 IN STRESS PERIOD   11
  ---------------------------------------------------------------------------

          1      2      3      4      5      6      7      8      9     10
         11     12     13     14     15     16     17     18     19     20
         21     22     23     24     25     26     27     28     29     30
 .........................................................................
   1  ****** ****** ****** ****** ****** ****** ****** ****** ****** ******
      ****** ****** ****** ****** ****** ****** ****** ****** ****** ******
      ****** ****** ****** ****** ****** ****** ****** ****** ****** ******
   2  ****** ****** ****** ****** ****** ****** ****** ****** ****** ******
      ****** ****** ****** ****** ****** ****** ****** ****** ****** ******
      ****** ****** ****** ****** ****** ****** ****** ****** ****** ******
   3  ****** ****** ****** ****** ****** ****** ****** ****** ****** ******
      ****** ****** ****** ****** ****** ****** ****** ****** ****** ******
      ****** ****** ****** ****** ****** ****** ****** ****** ****** ******
   4  ****** ****** ****** ****** ****** ****** ****** ****** ****** ******
      ****** ****** ****** ****** ****** ****** ****** ****** ****** ******
      ****** ****** ****** ****** ****** ****** ****** ****** ****** ******
   5  ****** ****** ****** ****** ****** ****** ****** ****** ****** ******
      ****** ****** ****** ****** ****** ****** ****** ****** ****** ******
      ****** ****** ****** ****** ****** ****** ****** ****** ****** ******
   6  ****** ****** ****** ****** ****** ****** ****** ****** ****** ******
      ****** ****** ****** ****** ****** ****** ****** ****** ****** ******
      ****** ****** ****** ****** ****** ****** ****** ****** ****** ******
   7  ****** ****** ****** ****** ****** ****** ****** ****** ****** ******
      ****** ****** ****** ****** ****** ****** ****** ****** ****** ******
      ****** ****** ****** ****** ****** ****** ****** ****** ****** ******
   8  ****** ****** ****** ****** ****** ****** ****** ****** ****** ******
      ****** ****** ****** ****** ****** ****** ****** ****** ****** ******
      ****** ****** ****** ****** ****** ****** ****** ****** ****** ******
   9  ****** ****** ****** ****** ****** ****** ****** ****** ****** ******
      ****** ****** ****** ****** ****** ****** ****** ****** ****** ******
      ****** ****** ****** ****** ****** ****** ****** ****** ****** ******
  10  ****** ****** ****** ****** ****** ****** ****** ****** ****** ******
      ****** ****** ****** ****** ****** ****** ****** ****** ****** ******
      ****** ****** ****** ****** ****** ****** ****** ****** ****** ******
  11  ****** ****** ****** ****** ****** ****** ****** ****** ****** ******
      ****** ****** ****** ****** ****** ****** ****** ****** ****** ******
      ****** ****** ****** ****** ****** ****** ****** ****** ****** ******
  12  ****** ****** ****** ****** ****** ****** ****** ****** ****** ******
      ****** ****** ****** ****** ****** ****** ****** ****** ****** ******
      ****** ****** ****** ****** ****** ****** ****** ****** ****** ******
  13  ****** ****** ****** ****** ****** ****** ****** ****** ****** ******
      ****** ****** ****** ****** ****** ****** ****** ****** ****** ******
      ****** ****** ****** ****** ****** ****** ****** ****** ****** ******
  14  ****** ****** ****** ****** ****** ****** ****** ****** ****** ******
      ****** ****** ****** ****** ****** ****** ****** ****** ****** ******
      ****** ****** ****** ****** ****** ****** ****** ****** ****** ******
  15  ****** ****** ****** ****** ****** ****** ****** ****** ****** ******
      ****** ****** ****** ****** ****** ****** ****** ****** ****** ******
      ****** ****** ****** ****** ****** ****** ****** ****** ****** ******
  16  ****** ****** ****** ****** ****** ****** ****** ****** ****** ******
      ****** ****** ****** ****** ****** ****** ****** ****** ****** ******
      ****** ****** ****** ****** ****** ****** ****** ****** ****** ******
  17  ****** ****** ****** ****** ****** ****** ****** ****** ****** ******
      ****** ****** ****** ****** ****** ****** ****** ****** ****** ******
      ****** ****** ****** ****** ****** ****** ****** ****** ****** ******
  18  ****** ****** ****** ****** ****** ****** ****** ****** ****** ******
      ****** ****** ****** ****** ****** ****** ****** ****** ****** ******
      ****** ****** ****** ****** ****** ****** ****** ****** ****** ******
  19  ****** ****** ****** ****** ****** ****** ****** ****** ****** ******
      ****** ****** ****** ****** ****** ****** ****** ****** ****** ******
      ****** ****** ****** ****** ****** ****** ****** ****** ****** ******
  20  ****** ****** ****** ****** ****** ****** ****** ****** ****** ******
      ****** ****** ****** ****** ****** ****** ****** ****** ****** ******
      ****** ****** ****** ****** ****** ****** ****** ****** ****** ******
  21  ****** ****** ****** ****** ****** ****** ****** ****** ****** ******
      ****** ****** ****** ****** ****** ****** ****** ****** ****** ******
      ****** ****** ****** ****** ****** ****** ****** ****** ****** ******
  22  ****** ****** ****** ****** ****** ****** ****** ****** ****** ******
      ****** ****** ****** ****** ****** ****** ****** ****** ****** ******
      ****** ****** ****** ****** ****** ****** ****** ****** ****** ******
  23  ****** ****** ****** ****** ****** ****** ****** ****** ****** ******
      ****** ****** ****** ****** ****** ****** ****** ****** ****** ******
      ****** ****** ****** ****** ****** ****** ****** ****** ****** ******
  24  ****** ****** ****** ****** ****** ****** ****** ****** ****** ******
      ****** ****** ****** ****** ****** ****** ****** ****** ****** ******
      ****** ****** ****** ****** ****** ****** ****** ****** ****** ******
  25  ****** ****** ****** ****** ****** ****** ****** ****** ****** ******
      ****** ****** ****** ****** ****** ****** ****** ****** ****** ******
      ****** ****** ****** ****** ****** ****** ****** ****** ****** ******

 HEAD WILL BE SAVED ON UNIT   51 AT END OF TIME STEP    1, STRESS PERIOD   11
1
  VOLUMETRIC BUDGET FOR ENTIRE MODEL AT END OF TIME STEP    1, STRESS PERIOD  11
  ------------------------------------------------------------------------------

     CUMULATIVE VOLUMES      L**3       RATES FOR THIS TIME STEP      L**3/T
     ------------------                 ------------------------

           IN:                                      IN:
           ---                                      ---
             STORAGE =    27325789.3064               STORAGE =       11850.2015
       CONSTANT HEAD =   190334532.6465         CONSTANT HEAD =      202018.9683
               WELLS =           0.0000                 WELLS =           0.0000
            RECHARGE =    23901600.0000              RECHARGE =           0.0000
      STREAM LEAKAGE =     6891611.9280        STREAM LEAKAGE =        7194.3455

            TOTAL IN =   248453533.8809              TOTAL IN =      221063.5153

          OUT:                                     OUT:
          ----                                     ----
             STORAGE =     2235615.3646               STORAGE =           0.0000
       CONSTANT HEAD =           0.0000         CONSTANT HEAD =           0.0000
               WELLS =   128823460.5358                 WELLS =      128310.2197
            RECHARGE =           0.0000              RECHARGE =           0.0000
      STREAM LEAKAGE =   117394459.0791        STREAM LEAKAGE =       92753.2978

           TOTAL OUT =   248453534.9795             TOTAL OUT =      221063.5175

            IN - OUT =          -1.0986              IN - OUT =      -2.2019E-03

 PERCENT DISCREPANCY =          -0.00     PERCENT DISCREPANCY =          -0.00






         TIME SUMMARY AT END OF TIME STEP    1 IN STRESS PERIOD   11
                    SECONDS     MINUTES      HOURS       DAYS        YEARS
                    -----------------------------------------------------------
   TIME STEP LENGTH 7.86240E+06 1.31040E+05  2184.0      91.000     0.24914    
 STRESS PERIOD TIME 7.86240E+06 1.31040E+05  2184.0      91.000     0.24914    
         TOTAL TIME 8.67456E+07 1.44576E+06  24096.      1004.0      2.7488    
1
1
                            STRESS PERIOD NO.   12, LENGTH =   91.00000    
                            -----------------------------------------------

                              NUMBER OF TIME STEPS =     1

                               MULTIPLIER FOR DELT =     1.500

                            INITIAL TIME STEP SIZE =   91.00000    

 WELL NO.  LAYER   ROW   COL   STRESS RATE         
 --------------------------------------------------
      1      1     23     20     -0.3361E+05
      2      1     23      4     -0.3381E+05
      3      1      5     26     -0.3082E+05
      4      1     21     27     -0.3006E+05

      4 WELLS

                 RECHARGE =  1.000000E-03

 REUSING STREAM SEGMENT DATA FROM LAST STRESS PERIOD
 
 SOLVING FOR HEAD 


     6 CALLS TO PCG ROUTINE FOR TIME STEP   1 IN STRESS PERIOD   12
    23 TOTAL ITERATIONS

 OUTPUT CONTROL FOR STRESS PERIOD   12   TIME STEP    1
    SAVE BUDGET
    SAVE HEAD FOR ALL LAYERS
    PRINT HEAD FOR ALL LAYERS
 UBDSV2 SAVING "STREAMFLOW OUT  " ON UNIT  50 AT TIME STEP  1, STRESS PERIOD  12



 STREAM LISTING     PERIOD     12   STEP        1

 LAYER ROW COL. STREAM  RCH.  FLOW INTO     FLOW TO   FLOW OUT OF   OVRLND.     DIRECT     STREAM       STREAM     STREAM     STREAM   STREAMBED  STREAMBED
                SEG.NO.  NO.  STRM. RCH.    AQUIFER    STRM. RCH.    RUNOFF     PRECIP       ET          HEAD       DEPTH      WIDTH   CONDCTNC.   GRADIENT

   1   13    1     1     1    1.0000E+05 -2.5330E+03   1.0253E+05  0.000E+00  0.000E+00  0.000E+00  4.84071E+01  1.457E-01  2.000E+01  2.000E+04 -1.267E-01
   1   13    2     1     2    1.0253E+05 -4.5310E+03   1.0706E+05  0.000E+00  0.000E+00  0.000E+00  4.79329E+01  1.488E-01  2.000E+01  2.000E+04 -2.266E-01
   1   14    3     1     3    1.0706E+05 -3.2278E+03   1.1029E+05  0.000E+00  0.000E+00  0.000E+00  4.74589E+01  1.521E-01  2.000E+01  2.000E+04 -1.614E-01
   1   15    4     1     4    1.1029E+05 -2.8063E+03   1.1310E+05  0.000E+00  0.000E+00  0.000E+00  4.69841E+01  1.546E-01  2.000E+01  2.000E+04 -1.403E-01
   1   16    5     1     5    1.1310E+05 -2.5599E+03   1.1566E+05  0.000E+00  0.000E+00  0.000E+00  4.65091E+01  1.568E-01  2.000E+01  2.000E+04 -1.280E-01
   1   16    6     1     6    1.1566E+05 -2.4094E+03   1.1807E+05  0.000E+00  0.000E+00  0.000E+00  4.60338E+01  1.588E-01  2.000E+01  2.000E+04 -1.205E-01
   1   16    7     1     7    1.1807E+05 -2.6457E+03   1.2071E+05  0.000E+00  0.000E+00  0.000E+00  4.55586E+01  1.609E-01  2.000E+01  2.000E+04 -1.323E-01
   1   16    8     1     8    1.2071E+05 -2.8132E+03   1.2353E+05  0.000E+00  0.000E+00  0.000E+00  4.50835E+01  1.631E-01  2.000E+01  2.000E+04 -1.407E-01
   1   16    9     1     9    1.2353E+05 -2.9102E+03   1.2644E+05  0.000E+00  0.000E+00  0.000E+00  4.46085E+01  1.654E-01  2.000E+01  2.000E+04 -1.455E-01
   1   16   10     1    10    1.2644E+05 -2.9374E+03   1.2937E+05  0.000E+00  0.000E+00  0.000E+00  4.41336E+01  1.677E-01  2.000E+01  2.000E+04 -1.469E-01
   1   16   11     1    11    1.2937E+05 -2.9103E+03   1.3228E+05  0.000E+00  0.000E+00  0.000E+00  4.36586E+01  1.700E-01  2.000E+01  2.000E+04 -1.455E-01
   1   16   12     1    12    1.3228E+05 -3.7012E+03   1.3599E+05  0.000E+00  0.000E+00  0.000E+00  4.31839E+01  1.725E-01  2.000E+01  2.000E+04 -1.851E-01
   1   15   13     1    13    1.3599E+05 -3.5335E+03   1.3952E+05  0.000E+00  0.000E+00  0.000E+00  4.27094E+01  1.753E-01  2.000E+01  2.000E+04 -1.767E-01
   1   14   14     1    14    1.3952E+05 -3.6455E+03   1.4316E+05  0.000E+00  0.000E+00  0.000E+00  4.22348E+01  1.780E-01  2.000E+01  2.000E+04 -1.823E-01
   1   13   15     1    15    1.4316E+05 -3.9843E+03   1.4715E+05  0.000E+00  0.000E+00  0.000E+00  4.17604E+01  1.809E-01  2.000E+01  2.000E+04 -1.992E-01
   1   12   16     1    16    1.4715E+05 -5.1926E+03   1.5234E+05  0.000E+00  0.000E+00  0.000E+00  4.12866E+01  1.843E-01  2.000E+01  2.000E+04 -2.596E-01
   1   12   17     1    17    1.5234E+05 -3.2960E+03   1.5564E+05  0.000E+00  0.000E+00  0.000E+00  4.08124E+01  1.874E-01  2.000E+01  2.000E+04 -1.648E-01
   1   12   18     1    18    1.5564E+05 -3.0965E+03   1.5873E+05  0.000E+00  0.000E+00  0.000E+00  4.03375E+01  1.897E-01  2.000E+01  2.000E+04 -1.548E-01
   1   12   19     1    19    1.5873E+05 -3.9593E+03   1.6269E+05  0.000E+00  0.000E+00  0.000E+00  3.98627E+01  1.923E-01  2.000E+01  2.000E+04 -1.980E-01
   1   13   20     1    20    1.6269E+05 -2.3868E+03   1.6508E+05  0.000E+00  0.000E+00  0.000E+00  3.93877E+01  1.946E-01  2.000E+01  2.000E+04 -1.193E-01
   1   14   21     1    21    1.6508E+05 -1.3965E+03   1.6648E+05  0.000E+00  0.000E+00  0.000E+00  3.89118E+01  1.959E-01  2.000E+01  2.000E+04 -6.983E-02
   1   14   22     1    22    1.6648E+05  5.2976E+03   1.6118E+05  0.000E+00  0.000E+00  0.000E+00  3.84332E+01  1.945E-01  2.000E+01  2.000E+04  2.649E-01
   1    9   30     2     1    5.0000E+04 -1.4107E+03   5.1411E+04  0.000E+00  0.000E+00  0.000E+00  4.02418E+01  1.168E-01  2.000E+01  2.000E+04 -7.053E-02
   1    9   29     2     2    5.1411E+04 -1.5760E+03   5.2987E+04  0.000E+00  0.000E+00  0.000E+00  3.99939E+01  1.189E-01  2.000E+01  2.000E+04 -7.880E-02
   1    9   28     2     3    5.2987E+04 -1.6059E+03   5.4593E+04  0.000E+00  0.000E+00  0.000E+00  3.97461E+01  1.211E-01  2.000E+01  2.000E+04 -8.030E-02
   1    9   27     2     4    5.4593E+04 -2.8628E+03   5.7455E+04  0.000E+00  0.000E+00  0.000E+00  3.94990E+01  1.240E-01  2.000E+01  2.000E+04 -1.431E-01
   1   10   26     2     5    5.7455E+04 -2.0583E+03   5.9514E+04  0.000E+00  0.000E+00  0.000E+00  3.92523E+01  1.273E-01  2.000E+01  2.000E+04 -1.029E-01
   1   11   25     2     6    5.9514E+04 -1.7776E+03   6.1291E+04  0.000E+00  0.000E+00  0.000E+00  3.90048E+01  1.298E-01  2.000E+01  2.000E+04 -8.888E-02
   1   12   24     2     7    6.1291E+04 -1.3714E+03   6.2663E+04  0.000E+00  0.000E+00  0.000E+00  3.87568E+01  1.318E-01  2.000E+01  2.000E+04 -6.857E-02
   1   13   23     2     8    6.2663E+04 -8.3257E+02   6.3495E+04  0.000E+00  0.000E+00  0.000E+00  3.85082E+01  1.332E-01  2.000E+01  2.000E+04 -4.163E-02
   1   14   22     2     9    6.3495E+04  1.7865E+03   6.1709E+04  0.000E+00  0.000E+00  0.000E+00  3.82576E+01  1.326E-01  2.000E+01  2.000E+04  8.932E-02
   1   14   22     3     1    2.2289E+05 -8.3278E+03   2.3122E+05  0.000E+00  0.000E+00  0.000E+00  3.77519E+01  1.963E-01  2.000E+01  2.000E+04 -4.164E-01
   1   15   23     3     2    2.3122E+05 -1.6023E+03   2.3282E+05  0.000E+00  0.000E+00  0.000E+00  3.68656E+01  1.989E-01  2.000E+01  2.000E+04 -8.011E-02
   1   15   24     3     3    2.3282E+05 -1.1109E+03   2.3393E+05  0.000E+00  0.000E+00  0.000E+00  3.59774E+01  1.996E-01  2.000E+01  2.000E+04 -5.555E-02
   1   15   25     3     4    2.3393E+05 -1.0766E+03   2.3500E+05  0.000E+00  0.000E+00  0.000E+00  3.50890E+01  2.001E-01  2.000E+01  2.000E+04 -5.383E-02
   1   15   26     3     5    2.3500E+05 -1.6380E+03   2.3664E+05  0.000E+00  0.000E+00  0.000E+00  3.42008E+01  2.008E-01  2.000E+01  2.000E+04 -8.190E-02
   1   16   27     3     6    2.3664E+05 -1.4862E+03   2.3813E+05  0.000E+00  0.000E+00  0.000E+00  3.33127E+01  2.016E-01  2.000E+01  2.000E+04 -7.431E-02
   1   17   28     3     7    2.3813E+05 -1.2321E+03   2.3936E+05  0.000E+00  0.000E+00  0.000E+00  3.24246E+01  2.023E-01  2.000E+01  2.000E+04 -6.160E-02
   1   18   29     3     8    2.3936E+05 -1.3272E+03   2.4069E+05  0.000E+00  0.000E+00  0.000E+00  3.15363E+01  2.030E-01  2.000E+01  2.000E+04 -6.636E-02
   1   18   30     3     9    2.4069E+05 -2.4707E+03   2.4316E+05  0.000E+00  0.000E+00  0.000E+00  3.06484E+01  2.039E-01  2.000E+01  2.000E+04 -1.235E-01



1
              HEAD IN LAYER   1 AT END OF TIME STEP   1 IN STRESS PERIOD   12
  ---------------------------------------------------------------------------

          1      2      3      4      5      6      7      8      9     10
         11     12     13     14     15     16     17     18     19     20
         21     22     23     24     25     26     27     28     29     30
 .........................................................................
   1  ****** ****** ****** ****** ****** ****** ****** ****** ****** ******
      ****** ****** ****** ****** ****** ****** ****** ****** ****** ******
      ****** ****** ****** ****** ****** ****** ****** ****** ****** ******
   2  ****** ****** ****** ****** ****** ****** ****** ****** ****** ******
      ****** ****** ****** ****** ****** ****** ****** ****** ****** ******
      ****** ****** ****** ****** ****** ****** ****** ****** ****** ******
   3  ****** ****** ****** ****** ****** ****** ****** ****** ****** ******
      ****** ****** ****** ****** ****** ****** ****** ****** ****** ******
      ****** ****** ****** ****** ****** ****** ****** ****** ****** ******
   4  ****** ****** ****** ****** ****** ****** ****** ****** ****** ******
      ****** ****** ****** ****** ****** ****** ****** ****** ****** ******
      ****** ****** ****** ****** ****** ****** ****** ****** ****** ******
   5  ****** ****** ****** ****** ****** ****** ****** ****** ****** ******
      ****** ****** ****** ****** ****** ****** ****** ****** ****** ******
      ****** ****** ****** ****** ****** ****** ****** ****** ****** ******
   6  ****** ****** ****** ****** ****** ****** ****** ****** ****** ******
      ****** ****** ****** ****** ****** ****** ****** ****** ****** ******
      ****** ****** ****** ****** ****** ****** ****** ****** ****** ******
   7  ****** ****** ****** ****** ****** ****** ****** ****** ****** ******
      ****** ****** ****** ****** ****** ****** ****** ****** ****** ******
      ****** ****** ****** ****** ****** ****** ****** ****** ****** ******
   8  ****** ****** ****** ****** ****** ****** ****** ****** ****** ******
      ****** ****** ****** ****** ****** ****** ****** ****** ****** ******
      ****** ****** ****** ****** ****** ****** ****** ****** ****** ******
   9  ****** ****** ****** ****** ****** ****** ****** ****** ****** ******
      ****** ****** ****** ****** ****** ****** ****** ****** ****** ******
      ****** ****** ****** ****** ****** ****** ****** ****** ****** ******
  10  ****** ****** ****** ****** ****** ****** ****** ****** ****** ******
      ****** ****** ****** ****** ****** ****** ****** ****** ****** ******
      ****** ****** ****** ****** ****** ****** ****** ****** ****** ******
  11  ****** ****** ****** ****** ****** ****** ****** ****** ****** ******
      ****** ****** ****** ****** ****** ****** ****** ****** ****** ******
      ****** ****** ****** ****** ****** ****** ****** ****** ****** ******
  12  ****** ****** ****** ****** ****** ****** ****** ****** ****** ******
      ****** ****** ****** ****** ****** ****** ****** ****** ****** ******
      ****** ****** ****** ****** ****** ****** ****** ****** ****** ******
  13  ****** ****** ****** ****** ****** ****** ****** ****** ****** ******
      ****** ****** ****** ****** ****** ****** ****** ****** ****** ******
      ****** ****** ****** ****** ****** ****** ****** ****** ****** ******
  14  ****** ****** ****** ****** ****** ****** ****** ****** ****** ******
      ****** ****** ****** ****** ****** ****** ****** ****** ****** ******
      ****** ****** ****** ****** ****** ****** ****** ****** ****** ******
  15  ****** ****** ****** ****** ****** ****** ****** ****** ****** ******
      ****** ****** ****** ****** ****** ****** ****** ****** ****** ******
      ****** ****** ****** ****** ****** ****** ****** ****** ****** ******
  16  ****** ****** ****** ****** ****** ****** ****** ****** ****** ******
      ****** ****** ****** ****** ****** ****** ****** ****** ****** ******
      ****** ****** ****** ****** ****** ****** ****** ****** ****** ******
  17  ****** ****** ****** ****** ****** ****** ****** ****** ****** ******
      ****** ****** ****** ****** ****** ****** ****** ****** ****** ******
      ****** ****** ****** ****** ****** ****** ****** ****** ****** ******
  18  ****** ****** ****** ****** ****** ****** ****** ****** ****** ******
      ****** ****** ****** ****** ****** ****** ****** ****** ****** ******
      ****** ****** ****** ****** ****** ****** ****** ****** ****** ******
  19  ****** ****** ****** ****** ****** ****** ****** ****** ****** ******
      ****** ****** ****** ****** ****** ****** ****** ****** ****** ******
      ****** ****** ****** ****** ****** ****** ****** ****** ****** ******
  20  ****** ****** ****** ****** ****** ****** ****** ****** ****** ******
      ****** ****** ****** ****** ****** ****** ****** ****** ****** ******
      ****** ****** ****** ****** ****** ****** ****** ****** ****** ******
  21  ****** ****** ****** ****** ****** ****** ****** ****** ****** ******
      ****** ****** ****** ****** ****** ****** ****** ****** ****** ******
      ****** ****** ****** ****** ****** ****** ****** ****** ****** ******
  22  ****** ****** ****** ****** ****** ****** ****** ****** ****** ******
      ****** ****** ****** ****** ****** ****** ****** ****** ****** ******
      ****** ****** ****** ****** ****** ****** ****** ****** ****** ******
  23  ****** ****** ****** ****** ****** ****** ****** ****** ****** ******
      ****** ****** ****** ****** ****** ****** ****** ****** ****** ******
      ****** ****** ****** ****** ****** ****** ****** ****** ****** ******
  24  ****** ****** ****** ****** ****** ****** ****** ****** ****** ******
      ****** ****** ****** ****** ****** ****** ****** ****** ****** ******
      ****** ****** ****** ****** ****** ****** ****** ****** ****** ******
  25  ****** ****** ****** ****** ****** ****** ****** ****** ****** ******
      ****** ****** ****** ****** ****** ****** ****** ****** ****** ******
      ****** ****** ****** ****** ****** ****** ****** ****** ****** ******

 HEAD WILL BE SAVED ON UNIT   51 AT END OF TIME STEP    1, STRESS PERIOD   12
1
  VOLUMETRIC BUDGET FOR ENTIRE MODEL AT END OF TIME STEP    1, STRESS PERIOD  12
  ------------------------------------------------------------------------------

     CUMULATIVE VOLUMES      L**3       RATES FOR THIS TIME STEP      L**3/T
     ------------------                 ------------------------

           IN:                                      IN:
           ---                                      ---
             STORAGE =    27325789.3064               STORAGE =           0.0000
       CONSTANT HEAD =   208316401.5749         CONSTANT HEAD =      197602.9553
               WELLS =           0.0000                 WELLS =           0.0000
            RECHARGE =    26413200.0000              RECHARGE =       27600.0000
      STREAM LEAKAGE =     7536267.5149        STREAM LEAKAGE =        7084.1273

            TOTAL IN =   269591658.3963              TOTAL IN =      232287.0826

          OUT:                                     OUT:
          ----                                     ----
             STORAGE =     2575375.6405               STORAGE =        3733.6294
       CONSTANT HEAD =           0.0000         CONSTANT HEAD =           0.0000
               WELLS =   140499690.5246                 WELLS =      128310.2197
            RECHARGE =           0.0000              RECHARGE =           0.0000
      STREAM LEAKAGE =   126516593.2506        STREAM LEAKAGE =      100243.2327

           TOTAL OUT =   269591659.4156             TOTAL OUT =      232287.0817

            IN - OUT =          -1.0194              IN - OUT =       8.7111E-04

 PERCENT DISCREPANCY =          -0.00     PERCENT DISCREPANCY =           0.00






         TIME SUMMARY AT END OF TIME STEP    1 IN STRESS PERIOD   12
                    SECONDS     MINUTES      HOURS       DAYS        YEARS
                    -----------------------------------------------------------
   TIME STEP LENGTH 7.86240E+06 1.31040E+05  2184.0      91.000     0.24914    
 STRESS PERIOD TIME 7.86240E+06 1.31040E+05  2184.0      91.000     0.24914    
         TOTAL TIME 9.46080E+07 1.57680E+06  26280.      1095.0      2.9979    
1

 Run end date and time (yyyy/mm/dd hh:mm:ss): 2018/10/09 16:31:33
 Elapsed run time:  0.049 Seconds

