                                  MODFLOW-2005     
      U.S. GEOLOGICAL SURVEY MODULAR FINITE-DIFFERENCE GROUND-WATER FLOW MODEL
                            VERSION 1.11.00 8/8/2013

 LIST FILE: supply2.lst
                         UNIT   10

 OPENING ..\data\supply.dis
 FILE TYPE:DIS   UNIT   11   STATUS:OLD    
 FORMAT:FORMATTED              ACCESS:SEQUENTIAL          

 OPENING ..\data\supply.ba6
 FILE TYPE:BAS6   UNIT   12   STATUS:OLD    
 FORMAT:FORMATTED              ACCESS:SEQUENTIAL          

 OPENING ..\data\supply_het.bc6
 FILE TYPE:BCF6   UNIT   13   STATUS:OLD    
 FORMAT:FORMATTED              ACCESS:SEQUENTIAL          

 OPENING ..\data\supply.rch
 FILE TYPE:RCH   UNIT   15   STATUS:OLD    
 FORMAT:FORMATTED              ACCESS:SEQUENTIAL          

 OPENING ..\data\supply2.sfr
 FILE TYPE:SFR   UNIT   16   STATUS:OLD    
 FORMAT:FORMATTED              ACCESS:SEQUENTIAL          

 OPENING ..\data\supply.oc
 FILE TYPE:OC   UNIT   17   STATUS:OLD    
 FORMAT:FORMATTED              ACCESS:SEQUENTIAL          

 OPENING ..\data\supply.pcg
 FILE TYPE:PCG   UNIT   18   STATUS:OLD    
 FORMAT:FORMATTED              ACCESS:SEQUENTIAL          

 OPENING supply2.wel
 FILE TYPE:WEL   UNIT   19   STATUS:OLD    
 FORMAT:FORMATTED              ACCESS:SEQUENTIAL          

 OPENING supply2sf.cbc
 FILE TYPE:DATA(BINARY)   UNIT   50   STATUS:UNKNOWN
 FORMAT:BINARY                 ACCESS:SEQUENTIAL          

 OPENING supply2hd.bhd
 FILE TYPE:DATA(BINARY)   UNIT   51   STATUS:UNKNOWN
 FORMAT:BINARY                 ACCESS:SEQUENTIAL          

 BAS -- BASIC PACKAGE, VERSION 7, 5/2/2005 INPUT READ FROM UNIT   12
 
 MODFLOW was compiled using uniform precision
 Precision of REAL and DOUBLE PRECISION variables:          15

 DISCRETIZATION INPUT DATA READ FROM UNIT   11
    1 LAYERS        25 ROWS        30 COLUMNS
   12 STRESS PERIOD(S) IN SIMULATION
 MODEL TIME UNIT IS DAYS
 MODEL LENGTH UNIT IS UNDEFINED
  Confining bed flag for each layer:
   0

                     DELR =   200.000    

                     DELC =   200.000    

 TOP ELEVATION OF LAYER 1 =  100.0000    

   MODEL LAYER BOTTOM EL. =   0.00000     FOR LAYER   1


 STRESS PERIOD     LENGTH       TIME STEPS     MULTIPLIER FOR DELT    SS FLAG
 ----------------------------------------------------------------------------
        1         92.00000          1                    1.500         TR
        2         91.00000          1                    1.500         TR
        3         91.00000          1                    1.500         TR
        4         91.00000          1                    1.500         TR
        5         92.00000          1                    1.500         TR
        6         91.00000          1                    1.500         TR
        7         91.00000          1                    1.500         TR
        8         91.00000          1                    1.500         TR
        9         92.00000          1                    1.500         TR
       10         91.00000          1                    1.500         TR
       11         91.00000          1                    1.500         TR
       12         91.00000          1                    1.500         TR

 TRANSIENT SIMULATION



 
 #MODOFC transient water supply sample problem                                   
 #                                                                               
 THE FREE FORMAT OPTION HAS BEEN SELECTED



                     BOUNDARY ARRAY FOR LAYER   1
 READING ON UNIT   12 WITH FORMAT: (20I4)              

 AQUIFER HEAD WILL BE SET TO   0.0000     AT ALL NO-FLOW NODES (IBOUND=0).



                       INITIAL HEAD FOR LAYER   1
 READING ON UNIT   12 WITH FORMAT: (10F13.0)           

 OUTPUT CONTROL IS SPECIFIED ONLY AT TIME STEPS FOR WHICH OUTPUT IS DESIRED
 COMPACT CELL-BY-CELL BUDGET FILES WILL BE WRITTEN
 HEAD PRINT FORMAT CODE IS  18    DRAWDOWN PRINT FORMAT CODE IS   0
 HEADS WILL BE SAVED ON UNIT   51    DRAWDOWNS WILL BE SAVED ON UNIT    0

 BCF -- BLOCK-CENTERED FLOW PACKAGE, VERSION 7, 5/2/2005
         INPUT READ FROM UNIT 13
 TRANSIENT SIMULATION
 HEAD AT CELLS THAT CONVERT TO DRY=   0.0000    
 WETTING CAPABILITY IS NOT ACTIVE
      LAYER  LAYER-TYPE CODE     INTERBLOCK T
      --------------------------------------------
         1            0          0 -- HARMONIC    

 COLUMN TO ROW ANISOTROPY =  1.000000    

     PRIMARY STORAGE COEF =  5.000000E-02 FOR LAYER   1



               TRANSMIS. ALONG ROWS FOR LAYER   1
 READING ON UNIT   13 WITH FORMAT: (FREE)              

 WEL -- WELL PACKAGE, VERSION 7, 5/2/2005 INPUT READ FROM UNIT   19
 # Well package input file written by MMProc
 No named parameters
 MAXIMUM OF      8 ACTIVE WELLS AT ONE TIME


     0 Well parameters

 RCH -- RECHARGE PACKAGE, VERSION 7, 5/2/2005 INPUT READ FROM UNIT   15
 No named parameters
 OPTION 1 -- RECHARGE TO TOP LAYER


     0 Recharge parameters

 SFR7 -- STREAMFLOW ROUTING PACKAGE, VERSION 1.0.7, 2013-01-15
         INPUT READ FROM UNIT  16
 #  Supply2 test problem for GWM-VI
 #  The eighth entry in the first data line is ISTCB2 -
 #    Setting this to a negative number indicates that
 #    streamflows out of the reach will be saved to a
 #    binary file.  The absolute value of ISTCB2 is the
 #    unit to which unformatted flows will be written.
 #
 No named parameters
 Segment information will not be 
 read by reach
 No named parameters
 No specifed inflow files


 NUMBER OF STREAM REACHES IS   40

 NUMBER OF STREAM SEGMENTS IS    3

 NUMBER OF STREAM PARAMETERS IS    0

 NUMBER OF STREAM SEGMENTS DEFINED USING PARAMETERS IS              0

 MAXIMUM ERROR FOR STREAM LEAKAGE RATES IS  1.00E-04

 CONSTANT FOR MANNINGS EQUATION IS  1.2839E+05





   STREAM NETWORK DESCRIPTION: 

   LAYER    ROW    COL   SEGMENT   REACH     LENGTH
                          NUMBER   NUMBER    IN CELL        
   --------------------------------------------------
      1     13      1       1        1    2.0000E+02
      1     13      2       1        2    2.0000E+02
      1     14      3       1        3    2.0000E+02
      1     15      4       1        4    2.0000E+02
      1     16      5       1        5    2.0000E+02
      1     16      6       1        6    2.0000E+02
      1     16      7       1        7    2.0000E+02
      1     16      8       1        8    2.0000E+02
      1     16      9       1        9    2.0000E+02
      1     16     10       1       10    2.0000E+02
      1     16     11       1       11    2.0000E+02
      1     16     12       1       12    2.0000E+02
      1     15     13       1       13    2.0000E+02
      1     14     14       1       14    2.0000E+02
      1     13     15       1       15    2.0000E+02
      1     12     16       1       16    2.0000E+02
      1     12     17       1       17    2.0000E+02
      1     12     18       1       18    2.0000E+02
      1     12     19       1       19    2.0000E+02
      1     13     20       1       20    2.0000E+02
      1     14     21       1       21    2.0000E+02
      1     14     22       1       22    2.0000E+02
      1      9     30       2        1    2.0000E+02
      1      9     29       2        2    2.0000E+02
      1      9     28       2        3    2.0000E+02
      1      9     27       2        4    2.0000E+02
      1     10     26       2        5    2.0000E+02
      1     11     25       2        6    2.0000E+02
      1     12     24       2        7    2.0000E+02
      1     13     23       2        8    2.0000E+02
      1     14     22       2        9    2.0000E+02
      1     14     22       3        1    2.0000E+02
      1     15     23       3        2    2.0000E+02
      1     15     24       3        3    2.0000E+02
      1     15     25       3        4    2.0000E+02
      1     15     26       3        5    2.0000E+02
      1     16     27       3        6    2.0000E+02
      1     17     28       3        7    2.0000E+02
      1     18     29       3        8    2.0000E+02
      1     18     30       3        9    2.0000E+02




 PCG -- CONJUGATE-GRADIENT SOLUTION PACKAGE, VERSION 7, 5/2/2005
 MAXIMUM OF    500 CALLS OF SOLUTION ROUTINE
 MAXIMUM OF      5 INTERNAL ITERATIONS PER CALL TO SOLUTION ROUTINE
 MATRIX PRECONDITIONING TYPE :    1



                                    SOLUTION BY THE CONJUGATE-GRADIENT METHOD
                                   -------------------------------------------
                    MAXIMUM NUMBER OF CALLS TO PCG ROUTINE =      500
                        MAXIMUM ITERATIONS PER CALL TO PCG =        5
                               MATRIX PRECONDITIONING TYPE =        1
        RELAXATION FACTOR (ONLY USED WITH PRECOND. TYPE 1) =    0.10000E+01
 PARAMETER OF POLYNOMIAL PRECOND. = 2 (2) OR IS CALCULATED :        0
                         HEAD CHANGE CRITERION FOR CLOSURE =    0.10000E-05
                     RESIDUAL CHANGE CRITERION FOR CLOSURE =    0.10000E+01
            PCG HEAD AND RESIDUAL CHANGE PRINTOUT INTERVAL =        1
     PRINTING FROM SOLVER IS LIMITED(1) OR SUPPRESSED (>1) =        1
                            STEADY-STATE DAMPING PARAMETER =    0.10000E+01
                               TRANSIENT DAMPING PARAMETER =    0.10000E+01
1
                            STRESS PERIOD NO.    1, LENGTH =   92.00000    
                            -----------------------------------------------

                              NUMBER OF TIME STEPS =     1

                               MULTIPLIER FOR DELT =     1.500

                            INITIAL TIME STEP SIZE =   92.00000    

 WELL NO.  LAYER   ROW   COL   STRESS RATE         
 --------------------------------------------------
      1      1     14      6       0.000    
      2      1      3      9       0.000    
      3      1     20     10       0.000    
      4      1     14     20       0.000    
      5      1     15      4     -0.1412E+05
      6      1     11     22     -0.1126E+05
      7      1     18     29     -0.4576E+05
      8      1     14     29      -7478.    

      8 WELLS

                 RECHARGE =  5.000000E-04



 CLASSIFICATION & COUNT OF STREAM SEGMENTS BASED ON SOURCE OF INFLOW:

                HEADWATER     DIVERSION     RECEIVES TRIBUTARY FLOW
                ---------     ---------     -----------------------
                     2              0               1



                    INPUT DATA FOR EACH STREAM SEGMENT
 ---------------------------------------------------------------------------------------------

 SEGMENT    SEG.     INFLOW   OVERLAND   STREAM    STREAM   ICALC  OUTFLOW  DIVERSION PRIORITY
    NO.    LENGTH     RATE     RUNOFF      ET       PPT.    METH.  TO SEG.  FROM SEG.    NO.

      1  4.400E+03 1.000E+05 0.000E+00 0.000E+00 0.000E+00    1        3        0        0
      2  1.800E+03 5.000E+04 0.000E+00 0.000E+00 0.000E+00    1        3        0        0
      3  1.800E+03 0.000E+00 0.000E+00 0.000E+00 0.000E+00    1        0        0        0


         STREAMBED PROPERTIES AND STREAM DIMENSIONS

 SEGMENT     BED HYD. COND.      BED THICKNESS     ELEV.-TOP OF BED     WIDTH OF STREAM     DEPTH OF STREAM    STREAM ROUGHNESS
    No.     UPPER     LOWER     UPPER     LOWER     UPPER     LOWER     UPPER     LOWER     UPPER     LOWER   CHANNEL      BANK

     1  5.000E+00 5.000E+00 1.000E+00 1.000E+00 4.850E+01 3.800E+01 2.000E+01 2.000E+01                     5.000E-02
     2  5.000E+00 5.000E+00 1.000E+00 1.000E+00 4.025E+01 3.800E+01 2.000E+01 2.000E+01                     5.000E-02
     3  5.000E+00 5.000E+00 1.000E+00 1.000E+00 3.800E+01 3.000E+01 2.000E+01 2.000E+01                     5.000E-02



 
 SOLVING FOR HEAD 


     9 CALLS TO PCG ROUTINE FOR TIME STEP   1 IN STRESS PERIOD    1
    39 TOTAL ITERATIONS

 OUTPUT CONTROL FOR STRESS PERIOD    1   TIME STEP    1
    SAVE BUDGET
    SAVE HEAD FOR ALL LAYERS
    PRINT HEAD FOR ALL LAYERS
 UBDSV2 SAVING "STREAMFLOW OUT  " ON UNIT  50 AT TIME STEP  1, STRESS PERIOD   1



 STREAM LISTING     PERIOD      1   STEP        1

 LAYER ROW COL. STREAM  RCH.  FLOW INTO     FLOW TO   FLOW OUT OF   OVRLND.     DIRECT     STREAM       STREAM     STREAM     STREAM   STREAMBED  STREAMBED
                SEG.NO.  NO.  STRM. RCH.    AQUIFER    STRM. RCH.    RUNOFF     PRECIP       ET          HEAD       DEPTH      WIDTH   CONDCTNC.   GRADIENT

   1   13    1     1     1    1.0000E+05 -6.1179E+03   1.0612E+05  0.000E+00  0.000E+00  0.000E+00  4.84087E+01  1.473E-01  2.000E+01  2.000E+04 -3.059E-01
   1   13    2     1     2    1.0612E+05 -7.5858E+03   1.1370E+05  0.000E+00  0.000E+00  0.000E+00  4.79372E+01  1.531E-01  2.000E+01  2.000E+04 -3.793E-01
   1   14    3     1     3    1.1370E+05 -2.1807E+03   1.1588E+05  0.000E+00  0.000E+00  0.000E+00  4.74640E+01  1.571E-01  2.000E+01  2.000E+04 -1.090E-01
   1   15    4     1     4    1.1588E+05  1.1696E+04   1.0419E+05  0.000E+00  0.000E+00  0.000E+00  4.69827E+01  1.532E-01  2.000E+01  2.000E+04  5.848E-01
   1   16    5     1     5    1.0419E+05 -7.1414E+03   1.1133E+05  0.000E+00  0.000E+00  0.000E+00  4.65036E+01  1.513E-01  2.000E+01  2.000E+04 -3.571E-01
   1   16    6     1     6    1.1133E+05 -4.2997E+03   1.1563E+05  0.000E+00  0.000E+00  0.000E+00  4.60311E+01  1.561E-01  2.000E+01  2.000E+04 -2.150E-01
   1   16    7     1     7    1.1563E+05 -4.1396E+03   1.1977E+05  0.000E+00  0.000E+00  0.000E+00  4.55572E+01  1.595E-01  2.000E+01  2.000E+04 -2.070E-01
   1   16    8     1     8    1.1977E+05 -4.1007E+03   1.2387E+05  0.000E+00  0.000E+00  0.000E+00  4.50833E+01  1.628E-01  2.000E+01  2.000E+04 -2.050E-01
   1   16    9     1     9    1.2387E+05 -4.0915E+03   1.2796E+05  0.000E+00  0.000E+00  0.000E+00  4.46093E+01  1.661E-01  2.000E+01  2.000E+04 -2.046E-01
   1   16   10     1    10    1.2796E+05 -4.0904E+03   1.3205E+05  0.000E+00  0.000E+00  0.000E+00  4.41352E+01  1.693E-01  2.000E+01  2.000E+04 -2.045E-01
   1   16   11     1    11    1.3205E+05 -4.1282E+03   1.3618E+05  0.000E+00  0.000E+00  0.000E+00  4.36611E+01  1.725E-01  2.000E+01  2.000E+04 -2.064E-01
   1   16   12     1    12    1.3618E+05 -7.0215E+03   1.4320E+05  0.000E+00  0.000E+00  0.000E+00  4.31881E+01  1.768E-01  2.000E+01  2.000E+04 -3.511E-01
   1   15   13     1    13    1.4320E+05 -7.3440E+03   1.5055E+05  0.000E+00  0.000E+00  0.000E+00  4.27163E+01  1.822E-01  2.000E+01  2.000E+04 -3.672E-01
   1   14   14     1    14    1.5055E+05 -7.8431E+03   1.5839E+05  0.000E+00  0.000E+00  0.000E+00  4.22446E+01  1.878E-01  2.000E+01  2.000E+04 -3.922E-01
   1   13   15     1    15    1.5839E+05 -8.1821E+03   1.6657E+05  0.000E+00  0.000E+00  0.000E+00  4.17731E+01  1.936E-01  2.000E+01  2.000E+04 -4.091E-01
   1   12   16     1    16    1.6657E+05 -8.7898E+03   1.7536E+05  0.000E+00  0.000E+00  0.000E+00  4.13018E+01  1.996E-01  2.000E+01  2.000E+04 -4.395E-01
   1   12   17     1    17    1.7536E+05 -6.1928E+03   1.8155E+05  0.000E+00  0.000E+00  0.000E+00  4.08298E+01  2.048E-01  2.000E+01  2.000E+04 -3.096E-01
   1   12   18     1    18    1.8155E+05 -5.9180E+03   1.8747E+05  0.000E+00  0.000E+00  0.000E+00  4.03566E+01  2.089E-01  2.000E+01  2.000E+04 -2.959E-01
   1   12   19     1    19    1.8747E+05 -6.7430E+03   1.9421E+05  0.000E+00  0.000E+00  0.000E+00  3.98836E+01  2.132E-01  2.000E+01  2.000E+04 -3.371E-01
   1   13   20     1    20    1.9421E+05 -5.7749E+03   1.9999E+05  0.000E+00  0.000E+00  0.000E+00  3.94105E+01  2.173E-01  2.000E+01  2.000E+04 -2.887E-01
   1   14   21     1    21    1.9999E+05 -5.9111E+03   2.0590E+05  0.000E+00  0.000E+00  0.000E+00  3.89371E+01  2.212E-01  2.000E+01  2.000E+04 -2.956E-01
   1   14   22     1    22    2.0590E+05  3.8928E+03   2.0201E+05  0.000E+00  0.000E+00  0.000E+00  3.84605E+01  2.218E-01  2.000E+01  2.000E+04  1.946E-01
   1    9   30     2     1    5.0000E+04 -4.2991E+03   5.4299E+04  0.000E+00  0.000E+00  0.000E+00  4.02438E+01  1.188E-01  2.000E+01  2.000E+04 -2.150E-01
   1    9   29     2     2    5.4299E+04 -4.6322E+03   5.8931E+04  0.000E+00  0.000E+00  0.000E+00  3.99998E+01  1.248E-01  2.000E+01  2.000E+04 -2.316E-01
   1    9   28     2     3    5.8931E+04 -4.9977E+03   6.3929E+04  0.000E+00  0.000E+00  0.000E+00  3.97561E+01  1.311E-01  2.000E+01  2.000E+04 -2.499E-01
   1    9   27     2     4    6.3929E+04 -7.8417E+03   7.1771E+04  0.000E+00  0.000E+00  0.000E+00  3.95142E+01  1.392E-01  2.000E+01  2.000E+04 -3.921E-01
   1   10   26     2     5    7.1771E+04 -6.4727E+03   7.8243E+04  0.000E+00  0.000E+00  0.000E+00  3.92728E+01  1.478E-01  2.000E+01  2.000E+04 -3.236E-01
   1   11   25     2     6    7.8243E+04 -5.4470E+03   8.3690E+04  0.000E+00  0.000E+00  0.000E+00  3.90297E+01  1.547E-01  2.000E+01  2.000E+04 -2.724E-01
   1   12   24     2     7    8.3690E+04 -4.2138E+03   8.7904E+04  0.000E+00  0.000E+00  0.000E+00  3.87852E+01  1.602E-01  2.000E+01  2.000E+04 -2.107E-01
   1   13   23     2     8    8.7904E+04 -1.2604E+03   8.9164E+04  0.000E+00  0.000E+00  0.000E+00  3.85382E+01  1.632E-01  2.000E+01  2.000E+04 -6.302E-02
   1   14   22     2     9    8.9164E+04  4.5701E+02   8.8707E+04  0.000E+00  0.000E+00  0.000E+00  3.82887E+01  1.637E-01  2.000E+01  2.000E+04  2.285E-02
   1   14   22     3     1    2.9072E+05 -9.6065E+03   3.0032E+05  0.000E+00  0.000E+00  0.000E+00  3.77855E+01  2.300E-01  2.000E+01  2.000E+04 -4.803E-01
   1   15   23     3     2    3.0032E+05 -1.9818E+03   3.0230E+05  0.000E+00  0.000E+00  0.000E+00  3.68993E+01  2.327E-01  2.000E+01  2.000E+04 -9.909E-02
   1   15   24     3     3    3.0230E+05 -1.5203E+03   3.0382E+05  0.000E+00  0.000E+00  0.000E+00  3.60112E+01  2.335E-01  2.000E+01  2.000E+04 -7.601E-02
   1   15   25     3     4    3.0382E+05 -1.5555E+03   3.0538E+05  0.000E+00  0.000E+00  0.000E+00  3.51231E+01  2.342E-01  2.000E+01  2.000E+04 -7.778E-02
   1   15   26     3     5    3.0538E+05 -1.7061E+03   3.0709E+05  0.000E+00  0.000E+00  0.000E+00  3.42349E+01  2.349E-01  2.000E+01  2.000E+04 -8.530E-02
   1   16   27     3     6    3.0709E+05 -1.7417E+03   3.0883E+05  0.000E+00  0.000E+00  0.000E+00  3.33468E+01  2.357E-01  2.000E+01  2.000E+04 -8.708E-02
   1   17   28     3     7    3.0883E+05 -1.0317E+03   3.0986E+05  0.000E+00  0.000E+00  0.000E+00  3.24586E+01  2.364E-01  2.000E+01  2.000E+04 -5.158E-02
   1   18   29     3     8    3.0986E+05  2.4618E+04   2.8524E+05  0.000E+00  0.000E+00  0.000E+00  3.15642E+01  2.309E-01  2.000E+01  2.000E+04  1.231E+00
   1   18   30     3     9    2.8524E+05  1.9600E+01   2.8522E+05  0.000E+00  0.000E+00  0.000E+00  3.06696E+01  2.251E-01  2.000E+01  2.000E+04  9.800E-04



1
              HEAD IN LAYER   1 AT END OF TIME STEP   1 IN STRESS PERIOD    1
  ---------------------------------------------------------------------------

          1      2      3      4      5      6      7      8      9     10
         11     12     13     14     15     16     17     18     19     20
         21     22     23     24     25     26     27     28     29     30
 .........................................................................
   1  ****** ****** ****** ****** ****** ****** ****** ****** ****** ******
      ****** ****** ****** ****** ****** ****** ****** ****** ****** ******
      ****** ****** ****** ****** ****** ****** ****** ****** ****** ******
   2  ****** ****** ****** ****** ****** ****** ****** ****** ****** ******
      ****** ****** ****** ****** ****** ****** ****** ****** ****** ******
      ****** ****** ****** ****** ****** ****** ****** ****** ****** ******
   3  ****** ****** ****** ****** ****** ****** ****** ****** ****** ******
      ****** ****** ****** ****** ****** ****** ****** ****** ****** ******
      ****** ****** ****** ****** ****** ****** ****** ****** ****** ******
   4  ****** ****** ****** ****** ****** ****** ****** ****** ****** ******
      ****** ****** ****** ****** ****** ****** ****** ****** ****** ******
      ****** ****** ****** ****** ****** ****** ****** ****** ****** ******
   5  ****** ****** ****** ****** ****** ****** ****** ****** ****** ******
      ****** ****** ****** ****** ****** ****** ****** ****** ****** ******
      ****** ****** ****** ****** ****** ****** ****** ****** ****** ******
   6  ****** ****** ****** ****** ****** ****** ****** ****** ****** ******
      ****** ****** ****** ****** ****** ****** ****** ****** ****** ******
      ****** ****** ****** ****** ****** ****** ****** ****** ****** ******
   7  ****** ****** ****** ****** ****** ****** ****** ****** ****** ******
      ****** ****** ****** ****** ****** ****** ****** ****** ****** ******
      ****** ****** ****** ****** ****** ****** ****** ****** ****** ******
   8  ****** ****** ****** ****** ****** ****** ****** ****** ****** ******
      ****** ****** ****** ****** ****** ****** ****** ****** ****** ******
      ****** ****** ****** ****** ****** ****** ****** ****** ****** ******
   9  ****** ****** ****** ****** ****** ****** ****** ****** ****** ******
      ****** ****** ****** ****** ****** ****** ****** ****** ****** ******
      ****** ****** ****** ****** ****** ****** ****** ****** ****** ******
  10  ****** ****** ****** ****** ****** ****** ****** ****** ****** ******
      ****** ****** ****** ****** ****** ****** ****** ****** ****** ******
      ****** ****** ****** ****** ****** ****** ****** ****** ****** ******
  11  ****** ****** ****** ****** ****** ****** ****** ****** ****** ******
      ****** ****** ****** ****** ****** ****** ****** ****** ****** ******
      ****** ****** ****** ****** ****** ****** ****** ****** ****** ******
  12  ****** ****** ****** ****** ****** ****** ****** ****** ****** ******
      ****** ****** ****** ****** ****** ****** ****** ****** ****** ******
      ****** ****** ****** ****** ****** ****** ****** ****** ****** ******
  13  ****** ****** ****** ****** ****** ****** ****** ****** ****** ******
      ****** ****** ****** ****** ****** ****** ****** ****** ****** ******
      ****** ****** ****** ****** ****** ****** ****** ****** ****** ******
  14  ****** ****** ****** ****** ****** ****** ****** ****** ****** ******
      ****** ****** ****** ****** ****** ****** ****** ****** ****** ******
      ****** ****** ****** ****** ****** ****** ****** ****** ****** ******
  15  ****** ****** ****** ****** ****** ****** ****** ****** ****** ******
      ****** ****** ****** ****** ****** ****** ****** ****** ****** ******
      ****** ****** ****** ****** ****** ****** ****** ****** ****** ******
  16  ****** ****** ****** ****** ****** ****** ****** ****** ****** ******
      ****** ****** ****** ****** ****** ****** ****** ****** ****** ******
      ****** ****** ****** ****** ****** ****** ****** ****** ****** ******
  17  ****** ****** ****** ****** ****** ****** ****** ****** ****** ******
      ****** ****** ****** ****** ****** ****** ****** ****** ****** ******
      ****** ****** ****** ****** ****** ****** ****** ****** ****** ******
  18  ****** ****** ****** ****** ****** ****** ****** ****** ****** ******
      ****** ****** ****** ****** ****** ****** ****** ****** ****** ******
      ****** ****** ****** ****** ****** ****** ****** ****** ****** ******
  19  ****** ****** ****** ****** ****** ****** ****** ****** ****** ******
      ****** ****** ****** ****** ****** ****** ****** ****** ****** ******
      ****** ****** ****** ****** ****** ****** ****** ****** ****** ******
  20  ****** ****** ****** ****** ****** ****** ****** ****** ****** ******
      ****** ****** ****** ****** ****** ****** ****** ****** ****** ******
      ****** ****** ****** ****** ****** ****** ****** ****** ****** ******
  21  ****** ****** ****** ****** ****** ****** ****** ****** ****** ******
      ****** ****** ****** ****** ****** ****** ****** ****** ****** ******
      ****** ****** ****** ****** ****** ****** ****** ****** ****** ******
  22  ****** ****** ****** ****** ****** ****** ****** ****** ****** ******
      ****** ****** ****** ****** ****** ****** ****** ****** ****** ******
      ****** ****** ****** ****** ****** ****** ****** ****** ****** ******
  23  ****** ****** ****** ****** ****** ****** ****** ****** ****** ******
      ****** ****** ****** ****** ****** ****** ****** ****** ****** ******
      ****** ****** ****** ****** ****** ****** ****** ****** ****** ******
  24  ****** ****** ****** ****** ****** ****** ****** ****** ****** ******
      ****** ****** ****** ****** ****** ****** ****** ****** ****** ******
      ****** ****** ****** ****** ****** ****** ****** ****** ****** ******
  25  ****** ****** ****** ****** ****** ****** ****** ****** ****** ******
      ****** ****** ****** ****** ****** ****** ****** ****** ****** ******
      ****** ****** ****** ****** ****** ****** ****** ****** ****** ******

 HEAD WILL BE SAVED ON UNIT   51 AT END OF TIME STEP    1, STRESS PERIOD    1
1
  VOLUMETRIC BUDGET FOR ENTIRE MODEL AT END OF TIME STEP    1, STRESS PERIOD   1
  ------------------------------------------------------------------------------

     CUMULATIVE VOLUMES      L**3       RATES FOR THIS TIME STEP      L**3/T
     ------------------                 ------------------------

           IN:                                      IN:
           ---                                      ---
             STORAGE =    17293738.9748               STORAGE =      187975.4236
       CONSTANT HEAD =     1110108.2200         CONSTANT HEAD =       12066.3937
               WELLS =           0.0000                 WELLS =           0.0000
            RECHARGE =     1269600.0000              RECHARGE =       13800.0000
      STREAM LEAKAGE =     3742843.5695        STREAM LEAKAGE =       40683.0823

            TOTAL IN =    23416290.7642              TOTAL IN =      254524.8996

          OUT:                                     OUT:
          ----                                     ----
             STORAGE =           0.0000               STORAGE =           0.0000
       CONSTANT HEAD =           0.0000         CONSTANT HEAD =           0.0000
               WELLS =     7233106.7189                 WELLS =       78620.7252
            RECHARGE =           0.0000              RECHARGE =           0.0000
      STREAM LEAKAGE =    16183184.5848        STREAM LEAKAGE =      175904.1803

           TOTAL OUT =    23416291.3037             TOTAL OUT =      254524.9055

            IN - OUT =          -0.5395              IN - OUT =      -5.8642E-03

 PERCENT DISCREPANCY =          -0.00     PERCENT DISCREPANCY =          -0.00






         TIME SUMMARY AT END OF TIME STEP    1 IN STRESS PERIOD    1
                    SECONDS     MINUTES      HOURS       DAYS        YEARS
                    -----------------------------------------------------------
   TIME STEP LENGTH 7.94880E+06 1.32480E+05  2208.0      92.000     0.25188    
 STRESS PERIOD TIME 7.94880E+06 1.32480E+05  2208.0      92.000     0.25188    
         TOTAL TIME 7.94880E+06 1.32480E+05  2208.0      92.000     0.25188    
1
1
                            STRESS PERIOD NO.    2, LENGTH =   91.00000    
                            -----------------------------------------------

                              NUMBER OF TIME STEPS =     1

                               MULTIPLIER FOR DELT =     1.500

                            INITIAL TIME STEP SIZE =   91.00000    

 WELL NO.  LAYER   ROW   COL   STRESS RATE         
 --------------------------------------------------
      1      1     14      6       0.000    
      2      1      3      9       0.000    
      3      1     20     10       0.000    
      4      1     14     20       0.000    
      5      1     15      4     -0.1412E+05
      6      1     11     22     -0.1126E+05
      7      1     18     29     -0.4576E+05
      8      1     14     29      -7478.    

      8 WELLS

                 RECHARGE =  2.000000E-03

 REUSING STREAM SEGMENT DATA FROM LAST STRESS PERIOD
 
 SOLVING FOR HEAD 


     8 CALLS TO PCG ROUTINE FOR TIME STEP   1 IN STRESS PERIOD    2
    32 TOTAL ITERATIONS

 OUTPUT CONTROL FOR STRESS PERIOD    2   TIME STEP    1
    SAVE BUDGET
    SAVE HEAD FOR ALL LAYERS
    PRINT HEAD FOR ALL LAYERS
 UBDSV2 SAVING "STREAMFLOW OUT  " ON UNIT  50 AT TIME STEP  1, STRESS PERIOD   2



 STREAM LISTING     PERIOD      2   STEP        1

 LAYER ROW COL. STREAM  RCH.  FLOW INTO     FLOW TO   FLOW OUT OF   OVRLND.     DIRECT     STREAM       STREAM     STREAM     STREAM   STREAMBED  STREAMBED
                SEG.NO.  NO.  STRM. RCH.    AQUIFER    STRM. RCH.    RUNOFF     PRECIP       ET          HEAD       DEPTH      WIDTH   CONDCTNC.   GRADIENT

   1   13    1     1     1    1.0000E+05 -4.0061E+03   1.0401E+05  0.000E+00  0.000E+00  0.000E+00  4.84077E+01  1.464E-01  2.000E+01  2.000E+04 -2.003E-01
   1   13    2     1     2    1.0401E+05 -5.2660E+03   1.0927E+05  0.000E+00  0.000E+00  0.000E+00  4.79344E+01  1.503E-01  2.000E+01  2.000E+04 -2.633E-01
   1   14    3     1     3    1.0927E+05 -1.0955E+03   1.1037E+05  0.000E+00  0.000E+00  0.000E+00  4.74598E+01  1.530E-01  2.000E+01  2.000E+04 -5.478E-02
   1   15    4     1     4    1.1037E+05  1.2840E+04   9.7527E+04  0.000E+00  0.000E+00  0.000E+00  4.69776E+01  1.481E-01  2.000E+01  2.000E+04  6.420E-01
   1   16    5     1     5    9.7527E+04 -4.2071E+03   1.0173E+05  0.000E+00  0.000E+00  0.000E+00  4.64966E+01  1.443E-01  2.000E+01  2.000E+04 -2.104E-01
   1   16    6     1     6    1.0173E+05 -2.5037E+03   1.0424E+05  0.000E+00  0.000E+00  0.000E+00  4.60222E+01  1.472E-01  2.000E+01  2.000E+04 -1.252E-01
   1   16    7     1     7    1.0424E+05 -2.4160E+03   1.0665E+05  0.000E+00  0.000E+00  0.000E+00  4.55471E+01  1.493E-01  2.000E+01  2.000E+04 -1.208E-01
   1   16    8     1     8    1.0665E+05 -2.3901E+03   1.0904E+05  0.000E+00  0.000E+00  0.000E+00  4.50718E+01  1.514E-01  2.000E+01  2.000E+04 -1.195E-01
   1   16    9     1     9    1.0904E+05 -2.3719E+03   1.1142E+05  0.000E+00  0.000E+00  0.000E+00  4.45965E+01  1.534E-01  2.000E+01  2.000E+04 -1.186E-01
   1   16   10     1    10    1.1142E+05 -2.3504E+03   1.1377E+05  0.000E+00  0.000E+00  0.000E+00  4.41212E+01  1.553E-01  2.000E+01  2.000E+04 -1.175E-01
   1   16   11     1    11    1.1377E+05 -2.3603E+03   1.1613E+05  0.000E+00  0.000E+00  0.000E+00  4.36459E+01  1.573E-01  2.000E+01  2.000E+04 -1.180E-01
   1   16   12     1    12    1.1613E+05 -4.1610E+03   1.2029E+05  0.000E+00  0.000E+00  0.000E+00  4.31713E+01  1.599E-01  2.000E+01  2.000E+04 -2.080E-01
   1   15   13     1    13    1.2029E+05 -4.1461E+03   1.2443E+05  0.000E+00  0.000E+00  0.000E+00  4.26974E+01  1.633E-01  2.000E+01  2.000E+04 -2.073E-01
   1   14   14     1    14    1.2443E+05 -4.5353E+03   1.2897E+05  0.000E+00  0.000E+00  0.000E+00  4.22235E+01  1.667E-01  2.000E+01  2.000E+04 -2.268E-01
   1   13   15     1    15    1.2897E+05 -4.8835E+03   1.3385E+05  0.000E+00  0.000E+00  0.000E+00  4.17500E+01  1.704E-01  2.000E+01  2.000E+04 -2.442E-01
   1   12   16     1    16    1.3385E+05 -5.6769E+03   1.3953E+05  0.000E+00  0.000E+00  0.000E+00  4.12768E+01  1.745E-01  2.000E+01  2.000E+04 -2.838E-01
   1   12   17     1    17    1.3953E+05 -3.7053E+03   1.4323E+05  0.000E+00  0.000E+00  0.000E+00  4.08031E+01  1.781E-01  2.000E+01  2.000E+04 -1.853E-01
   1   12   18     1    18    1.4323E+05 -3.4033E+03   1.4664E+05  0.000E+00  0.000E+00  0.000E+00  4.03285E+01  1.807E-01  2.000E+01  2.000E+04 -1.702E-01
   1   12   19     1    19    1.4664E+05 -3.5163E+03   1.5015E+05  0.000E+00  0.000E+00  0.000E+00  3.98538E+01  1.833E-01  2.000E+01  2.000E+04 -1.758E-01
   1   13   20     1    20    1.5015E+05 -2.5671E+03   1.5272E+05  0.000E+00  0.000E+00  0.000E+00  3.93787E+01  1.856E-01  2.000E+01  2.000E+04 -1.284E-01
   1   14   21     1    21    1.5272E+05 -3.1492E+03   1.5587E+05  0.000E+00  0.000E+00  0.000E+00  3.89036E+01  1.876E-01  2.000E+01  2.000E+04 -1.575E-01
   1   14   22     1    22    1.5587E+05  4.6868E+03   1.5118E+05  0.000E+00  0.000E+00  0.000E+00  3.84257E+01  1.871E-01  2.000E+01  2.000E+04  2.343E-01
   1    9   30     2     1    5.0000E+04 -1.3897E+03   5.1390E+04  0.000E+00  0.000E+00  0.000E+00  4.02418E+01  1.168E-01  2.000E+01  2.000E+04 -6.949E-02
   1    9   29     2     2    5.1390E+04 -1.7500E+03   5.3140E+04  0.000E+00  0.000E+00  0.000E+00  3.99940E+01  1.190E-01  2.000E+01  2.000E+04 -8.750E-02
   1    9   28     2     3    5.3140E+04 -2.1600E+03   5.5300E+04  0.000E+00  0.000E+00  0.000E+00  3.97466E+01  1.216E-01  2.000E+01  2.000E+04 -1.080E-01
   1    9   27     2     4    5.5300E+04 -4.2457E+03   5.9545E+04  0.000E+00  0.000E+00  0.000E+00  3.95009E+01  1.259E-01  2.000E+01  2.000E+04 -2.123E-01
   1   10   26     2     5    5.9545E+04 -2.6388E+03   6.2184E+04  0.000E+00  0.000E+00  0.000E+00  3.92554E+01  1.304E-01  2.000E+01  2.000E+04 -1.319E-01
   1   11   25     2     6    6.2184E+04 -1.7482E+03   6.3932E+04  0.000E+00  0.000E+00  0.000E+00  3.90082E+01  1.332E-01  2.000E+01  2.000E+04 -8.741E-02
   1   12   24     2     7    6.3932E+04 -8.7643E+02   6.4809E+04  0.000E+00  0.000E+00  0.000E+00  3.87598E+01  1.348E-01  2.000E+01  2.000E+04 -4.382E-02
   1   13   23     2     8    6.4809E+04 -1.7770E+02   6.4987E+04  0.000E+00  0.000E+00  0.000E+00  3.85105E+01  1.355E-01  2.000E+01  2.000E+04 -8.885E-03
   1   14   22     2     9    6.4987E+04  1.3672E+03   6.3619E+04  0.000E+00  0.000E+00  0.000E+00  3.82597E+01  1.347E-01  2.000E+01  2.000E+04  6.836E-02
   1   14   22     3     1    2.1480E+05 -8.8717E+03   2.2367E+05  0.000E+00  0.000E+00  0.000E+00  3.77478E+01  1.922E-01  2.000E+01  2.000E+04 -4.436E-01
   1   15   23     3     2    2.2367E+05 -1.0385E+03   2.2471E+05  0.000E+00  0.000E+00  0.000E+00  3.68615E+01  1.948E-01  2.000E+01  2.000E+04 -5.193E-02
   1   15   24     3     3    2.2471E+05 -6.4504E+02   2.2536E+05  0.000E+00  0.000E+00  0.000E+00  3.59731E+01  1.953E-01  2.000E+01  2.000E+04 -3.225E-02
   1   15   25     3     4    2.2536E+05 -6.2757E+02   2.2599E+05  0.000E+00  0.000E+00  0.000E+00  3.50845E+01  1.956E-01  2.000E+01  2.000E+04 -3.138E-02
   1   15   26     3     5    2.2599E+05 -5.1703E+02   2.2650E+05  0.000E+00  0.000E+00  0.000E+00  3.41959E+01  1.959E-01  2.000E+01  2.000E+04 -2.585E-02
   1   16   27     3     6    2.2650E+05 -3.2467E+02   2.2683E+05  0.000E+00  0.000E+00  0.000E+00  3.33072E+01  1.961E-01  2.000E+01  2.000E+04 -1.623E-02
   1   17   28     3     7    2.2683E+05  4.2206E+03   2.2261E+05  0.000E+00  0.000E+00  0.000E+00  3.24173E+01  1.951E-01  2.000E+01  2.000E+04  2.110E-01
   1   18   29     3     8    2.2261E+05  2.3755E+04   1.9885E+05  0.000E+00  0.000E+00  0.000E+00  3.15211E+01  1.877E-01  2.000E+01  2.000E+04  1.188E+00
   1   18   30     3     9    1.9885E+05  5.0881E+03   1.9376E+05  0.000E+00  0.000E+00  0.000E+00  3.06244E+01  1.799E-01  2.000E+01  2.000E+04  2.544E-01



1
              HEAD IN LAYER   1 AT END OF TIME STEP   1 IN STRESS PERIOD    2
  ---------------------------------------------------------------------------

          1      2      3      4      5      6      7      8      9     10
         11     12     13     14     15     16     17     18     19     20
         21     22     23     24     25     26     27     28     29     30
 .........................................................................
   1  ****** ****** ****** ****** ****** ****** ****** ****** ****** ******
      ****** ****** ****** ****** ****** ****** ****** ****** ****** ******
      ****** ****** ****** ****** ****** ****** ****** ****** ****** ******
   2  ****** ****** ****** ****** ****** ****** ****** ****** ****** ******
      ****** ****** ****** ****** ****** ****** ****** ****** ****** ******
      ****** ****** ****** ****** ****** ****** ****** ****** ****** ******
   3  ****** ****** ****** ****** ****** ****** ****** ****** ****** ******
      ****** ****** ****** ****** ****** ****** ****** ****** ****** ******
      ****** ****** ****** ****** ****** ****** ****** ****** ****** ******
   4  ****** ****** ****** ****** ****** ****** ****** ****** ****** ******
      ****** ****** ****** ****** ****** ****** ****** ****** ****** ******
      ****** ****** ****** ****** ****** ****** ****** ****** ****** ******
   5  ****** ****** ****** ****** ****** ****** ****** ****** ****** ******
      ****** ****** ****** ****** ****** ****** ****** ****** ****** ******
      ****** ****** ****** ****** ****** ****** ****** ****** ****** ******
   6  ****** ****** ****** ****** ****** ****** ****** ****** ****** ******
      ****** ****** ****** ****** ****** ****** ****** ****** ****** ******
      ****** ****** ****** ****** ****** ****** ****** ****** ****** ******
   7  ****** ****** ****** ****** ****** ****** ****** ****** ****** ******
      ****** ****** ****** ****** ****** ****** ****** ****** ****** ******
      ****** ****** ****** ****** ****** ****** ****** ****** ****** ******
   8  ****** ****** ****** ****** ****** ****** ****** ****** ****** ******
      ****** ****** ****** ****** ****** ****** ****** ****** ****** ******
      ****** ****** ****** ****** ****** ****** ****** ****** ****** ******
   9  ****** ****** ****** ****** ****** ****** ****** ****** ****** ******
      ****** ****** ****** ****** ****** ****** ****** ****** ****** ******
      ****** ****** ****** ****** ****** ****** ****** ****** ****** ******
  10  ****** ****** ****** ****** ****** ****** ****** ****** ****** ******
      ****** ****** ****** ****** ****** ****** ****** ****** ****** ******
      ****** ****** ****** ****** ****** ****** ****** ****** ****** ******
  11  ****** ****** ****** ****** ****** ****** ****** ****** ****** ******
      ****** ****** ****** ****** ****** ****** ****** ****** ****** ******
      ****** ****** ****** ****** ****** ****** ****** ****** ****** ******
  12  ****** ****** ****** ****** ****** ****** ****** ****** ****** ******
      ****** ****** ****** ****** ****** ****** ****** ****** ****** ******
      ****** ****** ****** ****** ****** ****** ****** ****** ****** ******
  13  ****** ****** ****** ****** ****** ****** ****** ****** ****** ******
      ****** ****** ****** ****** ****** ****** ****** ****** ****** ******
      ****** ****** ****** ****** ****** ****** ****** ****** ****** ******
  14  ****** ****** ****** ****** ****** ****** ****** ****** ****** ******
      ****** ****** ****** ****** ****** ****** ****** ****** ****** ******
      ****** ****** ****** ****** ****** ****** ****** ****** ****** ******
  15  ****** ****** ****** ****** ****** ****** ****** ****** ****** ******
      ****** ****** ****** ****** ****** ****** ****** ****** ****** ******
      ****** ****** ****** ****** ****** ****** ****** ****** ****** ******
  16  ****** ****** ****** ****** ****** ****** ****** ****** ****** ******
      ****** ****** ****** ****** ****** ****** ****** ****** ****** ******
      ****** ****** ****** ****** ****** ****** ****** ****** ****** ******
  17  ****** ****** ****** ****** ****** ****** ****** ****** ****** ******
      ****** ****** ****** ****** ****** ****** ****** ****** ****** ******
      ****** ****** ****** ****** ****** ****** ****** ****** ****** ******
  18  ****** ****** ****** ****** ****** ****** ****** ****** ****** ******
      ****** ****** ****** ****** ****** ****** ****** ****** ****** ******
      ****** ****** ****** ****** ****** ****** ****** ****** ****** ******
  19  ****** ****** ****** ****** ****** ****** ****** ****** ****** ******
      ****** ****** ****** ****** ****** ****** ****** ****** ****** ******
      ****** ****** ****** ****** ****** ****** ****** ****** ****** ******
  20  ****** ****** ****** ****** ****** ****** ****** ****** ****** ******
      ****** ****** ****** ****** ****** ****** ****** ****** ****** ******
      ****** ****** ****** ****** ****** ****** ****** ****** ****** ******
  21  ****** ****** ****** ****** ****** ****** ****** ****** ****** ******
      ****** ****** ****** ****** ****** ****** ****** ****** ****** ******
      ****** ****** ****** ****** ****** ****** ****** ****** ****** ******
  22  ****** ****** ****** ****** ****** ****** ****** ****** ****** ******
      ****** ****** ****** ****** ****** ****** ****** ****** ****** ******
      ****** ****** ****** ****** ****** ****** ****** ****** ****** ******
  23  ****** ****** ****** ****** ****** ****** ****** ****** ****** ******
      ****** ****** ****** ****** ****** ****** ****** ****** ****** ******
      ****** ****** ****** ****** ****** ****** ****** ****** ****** ******
  24  ****** ****** ****** ****** ****** ****** ****** ****** ****** ******
      ****** ****** ****** ****** ****** ****** ****** ****** ****** ******
      ****** ****** ****** ****** ****** ****** ****** ****** ****** ******
  25  ****** ****** ****** ****** ****** ****** ****** ****** ****** ******
      ****** ****** ****** ****** ****** ****** ****** ****** ****** ******
      ****** ****** ****** ****** ****** ****** ****** ****** ****** ******

 HEAD WILL BE SAVED ON UNIT   51 AT END OF TIME STEP    1, STRESS PERIOD    2
1
  VOLUMETRIC BUDGET FOR ENTIRE MODEL AT END OF TIME STEP    1, STRESS PERIOD   2
  ------------------------------------------------------------------------------

     CUMULATIVE VOLUMES      L**3       RATES FOR THIS TIME STEP      L**3/T
     ------------------                 ------------------------

           IN:                                      IN:
           ---                                      ---
             STORAGE =    21935782.8848               STORAGE =       51011.4715
       CONSTANT HEAD =     2581915.6703         CONSTANT HEAD =       16173.7082
               WELLS =           0.0000                 WELLS =           0.0000
            RECHARGE =     6292800.0000              RECHARGE =       55200.0000
      STREAM LEAKAGE =     8470985.9680        STREAM LEAKAGE =       51957.6088

            TOTAL IN =    39281484.5231              TOTAL IN =      174342.7886

          OUT:                                     OUT:
          ----                                     ----
             STORAGE =           0.0000               STORAGE =           0.0000
       CONSTANT HEAD =           0.0000         CONSTANT HEAD =           0.0000
               WELLS =    14387592.7126                 WELLS =       78620.7252
            RECHARGE =           0.0000              RECHARGE =           0.0000
      STREAM LEAKAGE =    24893892.9338        STREAM LEAKAGE =       95722.0698

           TOTAL OUT =    39281485.6464             TOTAL OUT =      174342.7950

            IN - OUT =          -1.1233              IN - OUT =      -6.4154E-03

 PERCENT DISCREPANCY =          -0.00     PERCENT DISCREPANCY =          -0.00






         TIME SUMMARY AT END OF TIME STEP    1 IN STRESS PERIOD    2
                    SECONDS     MINUTES      HOURS       DAYS        YEARS
                    -----------------------------------------------------------
   TIME STEP LENGTH 7.86240E+06 1.31040E+05  2184.0      91.000     0.24914    
 STRESS PERIOD TIME 7.86240E+06 1.31040E+05  2184.0      91.000     0.24914    
         TOTAL TIME 1.58112E+07 2.63520E+05  4392.0      183.00     0.50103    
1
1
                            STRESS PERIOD NO.    3, LENGTH =   91.00000    
                            -----------------------------------------------

                              NUMBER OF TIME STEPS =     1

                               MULTIPLIER FOR DELT =     1.500

                            INITIAL TIME STEP SIZE =   91.00000    

 WELL NO.  LAYER   ROW   COL   STRESS RATE         
 --------------------------------------------------
      1      1     14      6       0.000    
      2      1      3      9       0.000    
      3      1     20     10       0.000    
      4      1     14     20       0.000    
      5      1     15      4     -0.1412E+05
      6      1     11     22     -0.1126E+05
      7      1     18     29     -0.4576E+05
      8      1     14     29      -7478.    

      8 WELLS

                 RECHARGE =   0.00000    

 REUSING STREAM SEGMENT DATA FROM LAST STRESS PERIOD
 
 SOLVING FOR HEAD 


     8 CALLS TO PCG ROUTINE FOR TIME STEP   1 IN STRESS PERIOD    3
    32 TOTAL ITERATIONS

 OUTPUT CONTROL FOR STRESS PERIOD    3   TIME STEP    1
    SAVE BUDGET
    SAVE HEAD FOR ALL LAYERS
    PRINT HEAD FOR ALL LAYERS
 UBDSV2 SAVING "STREAMFLOW OUT  " ON UNIT  50 AT TIME STEP  1, STRESS PERIOD   3



 STREAM LISTING     PERIOD      3   STEP        1

 LAYER ROW COL. STREAM  RCH.  FLOW INTO     FLOW TO   FLOW OUT OF   OVRLND.     DIRECT     STREAM       STREAM     STREAM     STREAM   STREAMBED  STREAMBED
                SEG.NO.  NO.  STRM. RCH.    AQUIFER    STRM. RCH.    RUNOFF     PRECIP       ET          HEAD       DEPTH      WIDTH   CONDCTNC.   GRADIENT

   1   13    1     1     1    1.0000E+05 -2.7659E+03   1.0277E+05  0.000E+00  0.000E+00  0.000E+00  4.84072E+01  1.458E-01  2.000E+01  2.000E+04 -1.383E-01
   1   13    2     1     2    1.0277E+05 -3.8729E+03   1.0664E+05  0.000E+00  0.000E+00  0.000E+00  4.79328E+01  1.487E-01  2.000E+01  2.000E+04 -1.936E-01
   1   14    3     1     3    1.0664E+05 -6.3528E+02   1.0727E+05  0.000E+00  0.000E+00  0.000E+00  4.74574E+01  1.506E-01  2.000E+01  2.000E+04 -3.176E-02
   1   15    4     1     4    1.0727E+05  1.3345E+04   9.3929E+04  0.000E+00  0.000E+00  0.000E+00  4.69747E+01  1.452E-01  2.000E+01  2.000E+04  6.672E-01
   1   16    5     1     5    9.3929E+04 -2.4161E+03   9.6345E+04  0.000E+00  0.000E+00  0.000E+00  4.64927E+01  1.404E-01  2.000E+01  2.000E+04 -1.208E-01
   1   16    6     1     6    9.6345E+04 -1.5036E+03   9.7849E+04  0.000E+00  0.000E+00  0.000E+00  4.60171E+01  1.421E-01  2.000E+01  2.000E+04 -7.518E-02
   1   16    7     1     7    9.7849E+04 -1.4745E+03   9.9323E+04  0.000E+00  0.000E+00  0.000E+00  4.55411E+01  1.434E-01  2.000E+01  2.000E+04 -7.373E-02
   1   16    8     1     8    9.9323E+04 -1.4671E+03   1.0079E+05  0.000E+00  0.000E+00  0.000E+00  4.50652E+01  1.447E-01  2.000E+01  2.000E+04 -7.335E-02
   1   16    9     1     9    1.0079E+05 -1.4540E+03   1.0224E+05  0.000E+00  0.000E+00  0.000E+00  4.45891E+01  1.460E-01  2.000E+01  2.000E+04 -7.270E-02
   1   16   10     1    10    1.0224E+05 -1.4333E+03   1.0368E+05  0.000E+00  0.000E+00  0.000E+00  4.41131E+01  1.472E-01  2.000E+01  2.000E+04 -7.166E-02
   1   16   11     1    11    1.0368E+05 -1.4379E+03   1.0512E+05  0.000E+00  0.000E+00  0.000E+00  4.36371E+01  1.484E-01  2.000E+01  2.000E+04 -7.190E-02
   1   16   12     1    12    1.0512E+05 -2.5610E+03   1.0768E+05  0.000E+00  0.000E+00  0.000E+00  4.31615E+01  1.501E-01  2.000E+01  2.000E+04 -1.281E-01
   1   15   13     1    13    1.0768E+05 -2.5110E+03   1.1019E+05  0.000E+00  0.000E+00  0.000E+00  4.26864E+01  1.523E-01  2.000E+01  2.000E+04 -1.255E-01
   1   14   14     1    14    1.1019E+05 -2.8570E+03   1.1304E+05  0.000E+00  0.000E+00  0.000E+00  4.22113E+01  1.545E-01  2.000E+01  2.000E+04 -1.429E-01
   1   13   15     1    15    1.1304E+05 -3.2032E+03   1.1625E+05  0.000E+00  0.000E+00  0.000E+00  4.17366E+01  1.570E-01  2.000E+01  2.000E+04 -1.602E-01
   1   12   16     1    16    1.1625E+05 -3.9374E+03   1.2019E+05  0.000E+00  0.000E+00  0.000E+00  4.12622E+01  1.599E-01  2.000E+01  2.000E+04 -1.969E-01
   1   12   17     1    17    1.2019E+05 -2.4416E+03   1.2263E+05  0.000E+00  0.000E+00  0.000E+00  4.07875E+01  1.625E-01  2.000E+01  2.000E+04 -1.221E-01
   1   12   18     1    18    1.2263E+05 -2.1536E+03   1.2478E+05  0.000E+00  0.000E+00  0.000E+00  4.03121E+01  1.643E-01  2.000E+01  2.000E+04 -1.077E-01
   1   12   19     1    19    1.2478E+05 -1.9343E+03   1.2671E+05  0.000E+00  0.000E+00  0.000E+00  3.98364E+01  1.660E-01  2.000E+01  2.000E+04 -9.671E-02
   1   13   20     1    20    1.2671E+05 -1.1148E+03   1.2783E+05  0.000E+00  0.000E+00  0.000E+00  3.93604E+01  1.672E-01  2.000E+01  2.000E+04 -5.574E-02
   1   14   21     1    21    1.2783E+05 -1.6752E+03   1.2950E+05  0.000E+00  0.000E+00  0.000E+00  3.88842E+01  1.683E-01  2.000E+01  2.000E+04 -8.376E-02
   1   14   22     1    22    1.2950E+05  5.0479E+03   1.2446E+05  0.000E+00  0.000E+00  0.000E+00  3.84056E+01  1.669E-01  2.000E+01  2.000E+04  2.524E-01
   1    9   30     2     1    5.0000E+04 -1.3466E+02   5.0135E+04  0.000E+00  0.000E+00  0.000E+00  4.02410E+01  1.160E-01  2.000E+01  2.000E+04 -6.733E-03
   1    9   29     2     2    5.0135E+04 -5.0080E+02   5.0635E+04  0.000E+00  0.000E+00  0.000E+00  3.99914E+01  1.164E-01  2.000E+01  2.000E+04 -2.504E-02
   1    9   28     2     3    5.0635E+04 -9.0618E+02   5.1542E+04  0.000E+00  0.000E+00  0.000E+00  3.97424E+01  1.174E-01  2.000E+01  2.000E+04 -4.531E-02
   1    9   27     2     4    5.1542E+04 -2.4702E+03   5.4012E+04  0.000E+00  0.000E+00  0.000E+00  3.94947E+01  1.197E-01  2.000E+01  2.000E+04 -1.235E-01
   1   10   26     2     5    5.4012E+04 -9.5390E+02   5.4966E+04  0.000E+00  0.000E+00  0.000E+00  3.92470E+01  1.220E-01  2.000E+01  2.000E+04 -4.770E-02
   1   11   25     2     6    5.4966E+04 -1.7833E+02   5.5144E+04  0.000E+00  0.000E+00  0.000E+00  3.89978E+01  1.228E-01  2.000E+01  2.000E+04 -8.916E-03
   1   12   24     2     7    5.5144E+04  5.1410E+02   5.4630E+04  0.000E+00  0.000E+00  0.000E+00  3.87475E+01  1.225E-01  2.000E+01  2.000E+04  2.571E-02
   1   13   23     2     8    5.4630E+04  1.6280E+02   5.4467E+04  0.000E+00  0.000E+00  0.000E+00  3.84971E+01  1.221E-01  2.000E+01  2.000E+04  8.140E-03
   1   14   22     2     9    5.4467E+04  1.8508E+03   5.2616E+04  0.000E+00  0.000E+00  0.000E+00  3.82457E+01  1.207E-01  2.000E+01  2.000E+04  9.254E-02
   1   14   22     3     1    1.7707E+05 -8.5216E+03   1.8559E+05  0.000E+00  0.000E+00  0.000E+00  3.77271E+01  1.715E-01  2.000E+01  2.000E+04 -4.261E-01
   1   15   23     3     2    1.8559E+05 -6.4424E+02   1.8624E+05  0.000E+00  0.000E+00  0.000E+00  3.68408E+01  1.741E-01  2.000E+01  2.000E+04 -3.221E-02
   1   15   24     3     3    1.8624E+05 -3.1698E+02   1.8656E+05  0.000E+00  0.000E+00  0.000E+00  3.59522E+01  1.744E-01  2.000E+01  2.000E+04 -1.585E-02
   1   15   25     3     4    1.8656E+05 -2.7821E+02   1.8683E+05  0.000E+00  0.000E+00  0.000E+00  3.50635E+01  1.746E-01  2.000E+01  2.000E+04 -1.391E-02
   1   15   26     3     5    1.8683E+05 -8.3090E+01   1.8692E+05  0.000E+00  0.000E+00  0.000E+00  3.41747E+01  1.747E-01  2.000E+01  2.000E+04 -4.155E-03
   1   16   27     3     6    1.8692E+05  1.9917E+02   1.8672E+05  0.000E+00  0.000E+00  0.000E+00  3.32858E+01  1.746E-01  2.000E+01  2.000E+04  9.959E-03
   1   17   28     3     7    1.8672E+05  6.5099E+03   1.8021E+05  0.000E+00  0.000E+00  0.000E+00  3.23950E+01  1.728E-01  2.000E+01  2.000E+04  3.255E-01
   1   18   29     3     8    1.8021E+05  2.3284E+04   1.5692E+05  0.000E+00  0.000E+00  0.000E+00  3.14975E+01  1.642E-01  2.000E+01  2.000E+04  1.164E+00
   1   18   30     3     9    1.5692E+05  7.4951E+03   1.4943E+05  0.000E+00  0.000E+00  0.000E+00  3.05995E+01  1.550E-01  2.000E+01  2.000E+04  3.748E-01



1
              HEAD IN LAYER   1 AT END OF TIME STEP   1 IN STRESS PERIOD    3
  ---------------------------------------------------------------------------

          1      2      3      4      5      6      7      8      9     10
         11     12     13     14     15     16     17     18     19     20
         21     22     23     24     25     26     27     28     29     30
 .........................................................................
   1  ****** ****** ****** ****** ****** ****** ****** ****** ****** ******
      ****** ****** ****** ****** ****** ****** ****** ****** ****** ******
      ****** ****** ****** ****** ****** ****** ****** ****** ****** ******
   2  ****** ****** ****** ****** ****** ****** ****** ****** ****** ******
      ****** ****** ****** ****** ****** ****** ****** ****** ****** ******
      ****** ****** ****** ****** ****** ****** ****** ****** ****** ******
   3  ****** ****** ****** ****** ****** ****** ****** ****** ****** ******
      ****** ****** ****** ****** ****** ****** ****** ****** ****** ******
      ****** ****** ****** ****** ****** ****** ****** ****** ****** ******
   4  ****** ****** ****** ****** ****** ****** ****** ****** ****** ******
      ****** ****** ****** ****** ****** ****** ****** ****** ****** ******
      ****** ****** ****** ****** ****** ****** ****** ****** ****** ******
   5  ****** ****** ****** ****** ****** ****** ****** ****** ****** ******
      ****** ****** ****** ****** ****** ****** ****** ****** ****** ******
      ****** ****** ****** ****** ****** ****** ****** ****** ****** ******
   6  ****** ****** ****** ****** ****** ****** ****** ****** ****** ******
      ****** ****** ****** ****** ****** ****** ****** ****** ****** ******
      ****** ****** ****** ****** ****** ****** ****** ****** ****** ******
   7  ****** ****** ****** ****** ****** ****** ****** ****** ****** ******
      ****** ****** ****** ****** ****** ****** ****** ****** ****** ******
      ****** ****** ****** ****** ****** ****** ****** ****** ****** ******
   8  ****** ****** ****** ****** ****** ****** ****** ****** ****** ******
      ****** ****** ****** ****** ****** ****** ****** ****** ****** ******
      ****** ****** ****** ****** ****** ****** ****** ****** ****** ******
   9  ****** ****** ****** ****** ****** ****** ****** ****** ****** ******
      ****** ****** ****** ****** ****** ****** ****** ****** ****** ******
      ****** ****** ****** ****** ****** ****** ****** ****** ****** ******
  10  ****** ****** ****** ****** ****** ****** ****** ****** ****** ******
      ****** ****** ****** ****** ****** ****** ****** ****** ****** ******
      ****** ****** ****** ****** ****** ****** ****** ****** ****** ******
  11  ****** ****** ****** ****** ****** ****** ****** ****** ****** ******
      ****** ****** ****** ****** ****** ****** ****** ****** ****** ******
      ****** ****** ****** ****** ****** ****** ****** ****** ****** ******
  12  ****** ****** ****** ****** ****** ****** ****** ****** ****** ******
      ****** ****** ****** ****** ****** ****** ****** ****** ****** ******
      ****** ****** ****** ****** ****** ****** ****** ****** ****** ******
  13  ****** ****** ****** ****** ****** ****** ****** ****** ****** ******
      ****** ****** ****** ****** ****** ****** ****** ****** ****** ******
      ****** ****** ****** ****** ****** ****** ****** ****** ****** ******
  14  ****** ****** ****** ****** ****** ****** ****** ****** ****** ******
      ****** ****** ****** ****** ****** ****** ****** ****** ****** ******
      ****** ****** ****** ****** ****** ****** ****** ****** ****** ******
  15  ****** ****** ****** ****** ****** ****** ****** ****** ****** ******
      ****** ****** ****** ****** ****** ****** ****** ****** ****** ******
      ****** ****** ****** ****** ****** ****** ****** ****** ****** ******
  16  ****** ****** ****** ****** ****** ****** ****** ****** ****** ******
      ****** ****** ****** ****** ****** ****** ****** ****** ****** ******
      ****** ****** ****** ****** ****** ****** ****** ****** ****** ******
  17  ****** ****** ****** ****** ****** ****** ****** ****** ****** ******
      ****** ****** ****** ****** ****** ****** ****** ****** ****** ******
      ****** ****** ****** ****** ****** ****** ****** ****** ****** ******
  18  ****** ****** ****** ****** ****** ****** ****** ****** ****** ******
      ****** ****** ****** ****** ****** ****** ****** ****** ****** ******
      ****** ****** ****** ****** ****** ****** ****** ****** ****** ******
  19  ****** ****** ****** ****** ****** ****** ****** ****** ****** ******
      ****** ****** ****** ****** ****** ****** ****** ****** ****** ******
      ****** ****** ****** ****** ****** ****** ****** ****** ****** ******
  20  ****** ****** ****** ****** ****** ****** ****** ****** ****** ******
      ****** ****** ****** ****** ****** ****** ****** ****** ****** ******
      ****** ****** ****** ****** ****** ****** ****** ****** ****** ******
  21  ****** ****** ****** ****** ****** ****** ****** ****** ****** ******
      ****** ****** ****** ****** ****** ****** ****** ****** ****** ******
      ****** ****** ****** ****** ****** ****** ****** ****** ****** ******
  22  ****** ****** ****** ****** ****** ****** ****** ****** ****** ******
      ****** ****** ****** ****** ****** ****** ****** ****** ****** ******
      ****** ****** ****** ****** ****** ****** ****** ****** ****** ******
  23  ****** ****** ****** ****** ****** ****** ****** ****** ****** ******
      ****** ****** ****** ****** ****** ****** ****** ****** ****** ******
      ****** ****** ****** ****** ****** ****** ****** ****** ****** ******
  24  ****** ****** ****** ****** ****** ****** ****** ****** ****** ******
      ****** ****** ****** ****** ****** ****** ****** ****** ****** ******
      ****** ****** ****** ****** ****** ****** ****** ****** ****** ******
  25  ****** ****** ****** ****** ****** ****** ****** ****** ****** ******
      ****** ****** ****** ****** ****** ****** ****** ****** ****** ******
      ****** ****** ****** ****** ****** ****** ****** ****** ****** ******

 HEAD WILL BE SAVED ON UNIT   51 AT END OF TIME STEP    1, STRESS PERIOD    3
1
  VOLUMETRIC BUDGET FOR ENTIRE MODEL AT END OF TIME STEP    1, STRESS PERIOD   3
  ------------------------------------------------------------------------------

     CUMULATIVE VOLUMES      L**3       RATES FOR THIS TIME STEP      L**3/T
     ------------------                 ------------------------

           IN:                                      IN:
           ---                                      ---
             STORAGE =    26810553.4982               STORAGE =       53568.9078
       CONSTANT HEAD =     4809684.9799         CONSTANT HEAD =       24480.9814
               WELLS =           0.0000                 WELLS =           0.0000
            RECHARGE =     6292800.0000              RECHARGE =           0.0000
      STREAM LEAKAGE =    13786170.9672        STREAM LEAKAGE =       58408.6264

            TOTAL IN =    51699209.4453              TOTAL IN =      136458.5156

          OUT:                                     OUT:
          ----                                     ----
             STORAGE =           0.0000               STORAGE =           0.0000
       CONSTANT HEAD =           0.0000         CONSTANT HEAD =           0.0000
               WELLS =    21542078.7063                 WELLS =       78620.7252
            RECHARGE =           0.0000              RECHARGE =           0.0000
      STREAM LEAKAGE =    30157132.2482        STREAM LEAKAGE =       57837.7947

           TOTAL OUT =    51699210.9544             TOTAL OUT =      136458.5199

            IN - OUT =          -1.5091              IN - OUT =      -4.2398E-03

 PERCENT DISCREPANCY =          -0.00     PERCENT DISCREPANCY =          -0.00






         TIME SUMMARY AT END OF TIME STEP    1 IN STRESS PERIOD    3
                    SECONDS     MINUTES      HOURS       DAYS        YEARS
                    -----------------------------------------------------------
   TIME STEP LENGTH 7.86240E+06 1.31040E+05  2184.0      91.000     0.24914    
 STRESS PERIOD TIME 7.86240E+06 1.31040E+05  2184.0      91.000     0.24914    
         TOTAL TIME 2.36736E+07 3.94560E+05  6576.0      274.00     0.75017    
1
1
                            STRESS PERIOD NO.    4, LENGTH =   91.00000    
                            -----------------------------------------------

                              NUMBER OF TIME STEPS =     1

                               MULTIPLIER FOR DELT =     1.500

                            INITIAL TIME STEP SIZE =   91.00000    

 WELL NO.  LAYER   ROW   COL   STRESS RATE         
 --------------------------------------------------
      1      1     14      6       0.000    
      2      1      3      9       0.000    
      3      1     20     10       0.000    
      4      1     14     20       0.000    
      5      1     15      4     -0.1412E+05
      6      1     11     22     -0.1126E+05
      7      1     18     29     -0.4576E+05
      8      1     14     29      -7478.    

      8 WELLS

                 RECHARGE =  1.000000E-03

 REUSING STREAM SEGMENT DATA FROM LAST STRESS PERIOD
 
 SOLVING FOR HEAD 


     7 CALLS TO PCG ROUTINE FOR TIME STEP   1 IN STRESS PERIOD    4
    29 TOTAL ITERATIONS

 OUTPUT CONTROL FOR STRESS PERIOD    4   TIME STEP    1
    SAVE BUDGET
    SAVE HEAD FOR ALL LAYERS
    PRINT HEAD FOR ALL LAYERS
 UBDSV2 SAVING "STREAMFLOW OUT  " ON UNIT  50 AT TIME STEP  1, STRESS PERIOD   4



 STREAM LISTING     PERIOD      4   STEP        1

 LAYER ROW COL. STREAM  RCH.  FLOW INTO     FLOW TO   FLOW OUT OF   OVRLND.     DIRECT     STREAM       STREAM     STREAM     STREAM   STREAMBED  STREAMBED
                SEG.NO.  NO.  STRM. RCH.    AQUIFER    STRM. RCH.    RUNOFF     PRECIP       ET          HEAD       DEPTH      WIDTH   CONDCTNC.   GRADIENT

   1   13    1     1     1    1.0000E+05 -2.5420E+03   1.0254E+05  0.000E+00  0.000E+00  0.000E+00  4.84071E+01  1.458E-01  2.000E+01  2.000E+04 -1.271E-01
   1   13    2     1     2    1.0254E+05 -3.6118E+03   1.0615E+05  0.000E+00  0.000E+00  0.000E+00  4.79325E+01  1.484E-01  2.000E+01  2.000E+04 -1.806E-01
   1   14    3     1     3    1.0615E+05 -6.0822E+02   1.0676E+05  0.000E+00  0.000E+00  0.000E+00  4.74570E+01  1.502E-01  2.000E+01  2.000E+04 -3.041E-02
   1   15    4     1     4    1.0676E+05  1.3382E+04   9.3380E+04  0.000E+00  0.000E+00  0.000E+00  4.69743E+01  1.447E-01  2.000E+01  2.000E+04  6.691E-01
   1   16    5     1     5    9.3380E+04 -2.1197E+03   9.5500E+04  0.000E+00  0.000E+00  0.000E+00  4.64920E+01  1.398E-01  2.000E+01  2.000E+04 -1.060E-01
   1   16    6     1     6    9.5500E+04 -1.3589E+03   9.6859E+04  0.000E+00  0.000E+00  0.000E+00  4.60163E+01  1.413E-01  2.000E+01  2.000E+04 -6.794E-02
   1   16    7     1     7    9.6859E+04 -1.3414E+03   9.8200E+04  0.000E+00  0.000E+00  0.000E+00  4.55402E+01  1.425E-01  2.000E+01  2.000E+04 -6.707E-02
   1   16    8     1     8    9.8200E+04 -1.3387E+03   9.9539E+04  0.000E+00  0.000E+00  0.000E+00  4.50641E+01  1.437E-01  2.000E+01  2.000E+04 -6.693E-02
   1   16    9     1     9    9.9539E+04 -1.3288E+03   1.0087E+05  0.000E+00  0.000E+00  0.000E+00  4.45880E+01  1.448E-01  2.000E+01  2.000E+04 -6.644E-02
   1   16   10     1    10    1.0087E+05 -1.3120E+03   1.0218E+05  0.000E+00  0.000E+00  0.000E+00  4.41119E+01  1.460E-01  2.000E+01  2.000E+04 -6.560E-02
   1   16   11     1    11    1.0218E+05 -1.3173E+03   1.0350E+05  0.000E+00  0.000E+00  0.000E+00  4.36357E+01  1.471E-01  2.000E+01  2.000E+04 -6.586E-02
   1   16   12     1    12    1.0350E+05 -2.3072E+03   1.0580E+05  0.000E+00  0.000E+00  0.000E+00  4.31600E+01  1.487E-01  2.000E+01  2.000E+04 -1.154E-01
   1   15   13     1    13    1.0580E+05 -2.2790E+03   1.0808E+05  0.000E+00  0.000E+00  0.000E+00  4.26847E+01  1.506E-01  2.000E+01  2.000E+04 -1.139E-01
   1   14   14     1    14    1.0808E+05 -2.6059E+03   1.1069E+05  0.000E+00  0.000E+00  0.000E+00  4.22095E+01  1.527E-01  2.000E+01  2.000E+04 -1.303E-01
   1   13   15     1    15    1.1069E+05 -2.9298E+03   1.1362E+05  0.000E+00  0.000E+00  0.000E+00  4.17345E+01  1.550E-01  2.000E+01  2.000E+04 -1.465E-01
   1   12   16     1    16    1.1362E+05 -3.5725E+03   1.1719E+05  0.000E+00  0.000E+00  0.000E+00  4.12599E+01  1.576E-01  2.000E+01  2.000E+04 -1.786E-01
   1   12   17     1    17    1.1719E+05 -2.2232E+03   1.1941E+05  0.000E+00  0.000E+00  0.000E+00  4.07850E+01  1.600E-01  2.000E+01  2.000E+04 -1.112E-01
   1   12   18     1    18    1.1941E+05 -1.9499E+03   1.2136E+05  0.000E+00  0.000E+00  0.000E+00  4.03094E+01  1.617E-01  2.000E+01  2.000E+04 -9.749E-02
   1   12   19     1    19    1.2136E+05 -1.6791E+03   1.2304E+05  0.000E+00  0.000E+00  0.000E+00  3.98336E+01  1.631E-01  2.000E+01  2.000E+04 -8.395E-02
   1   13   20     1    20    1.2304E+05 -9.5111E+02   1.2399E+05  0.000E+00  0.000E+00  0.000E+00  3.93574E+01  1.642E-01  2.000E+01  2.000E+04 -4.756E-02
   1   14   21     1    21    1.2399E+05 -1.4479E+03   1.2544E+05  0.000E+00  0.000E+00  0.000E+00  3.88811E+01  1.652E-01  2.000E+01  2.000E+04 -7.239E-02
   1   14   22     1    22    1.2544E+05  5.0841E+03   1.2036E+05  0.000E+00  0.000E+00  0.000E+00  3.84023E+01  1.637E-01  2.000E+01  2.000E+04  2.542E-01
   1    9   30     2     1    5.0000E+04 -3.2729E+01   5.0033E+04  0.000E+00  0.000E+00  0.000E+00  4.02409E+01  1.159E-01  2.000E+01  2.000E+04 -1.636E-03
   1    9   29     2     2    5.0033E+04 -3.9315E+02   5.0426E+04  0.000E+00  0.000E+00  0.000E+00  3.99912E+01  1.162E-01  2.000E+01  2.000E+04 -1.966E-02
   1    9   28     2     3    5.0426E+04 -7.8106E+02   5.1207E+04  0.000E+00  0.000E+00  0.000E+00  3.97420E+01  1.170E-01  2.000E+01  2.000E+04 -3.905E-02
   1    9   27     2     4    5.1207E+04 -2.2004E+03   5.3407E+04  0.000E+00  0.000E+00  0.000E+00  3.94940E+01  1.190E-01  2.000E+01  2.000E+04 -1.100E-01
   1   10   26     2     5    5.3407E+04 -7.8727E+02   5.4195E+04  0.000E+00  0.000E+00  0.000E+00  3.92461E+01  1.211E-01  2.000E+01  2.000E+04 -3.936E-02
   1   11   25     2     6    5.4195E+04 -5.2961E+01   5.4248E+04  0.000E+00  0.000E+00  0.000E+00  3.89966E+01  1.216E-01  2.000E+01  2.000E+04 -2.648E-03
   1   12   24     2     7    5.4248E+04  6.1624E+02   5.3631E+04  0.000E+00  0.000E+00  0.000E+00  3.87463E+01  1.213E-01  2.000E+01  2.000E+04  3.081E-02
   1   13   23     2     8    5.3631E+04  1.3760E+02   5.3494E+04  0.000E+00  0.000E+00  0.000E+00  3.84958E+01  1.208E-01  2.000E+01  2.000E+04  6.880E-03
   1   14   22     2     9    5.3494E+04  1.9243E+03   5.1569E+04  0.000E+00  0.000E+00  0.000E+00  3.82444E+01  1.194E-01  2.000E+01  2.000E+04  9.621E-02
   1   14   22     3     1    1.7193E+05 -8.4796E+03   1.8041E+05  0.000E+00  0.000E+00  0.000E+00  3.77242E+01  1.686E-01  2.000E+01  2.000E+04 -4.240E-01
   1   15   23     3     2    1.8041E+05 -6.1920E+02   1.8103E+05  0.000E+00  0.000E+00  0.000E+00  3.68379E+01  1.712E-01  2.000E+01  2.000E+04 -3.096E-02
   1   15   24     3     3    1.8103E+05 -3.1322E+02   1.8134E+05  0.000E+00  0.000E+00  0.000E+00  3.59492E+01  1.715E-01  2.000E+01  2.000E+04 -1.566E-02
   1   15   25     3     4    1.8134E+05 -2.7236E+02   1.8161E+05  0.000E+00  0.000E+00  0.000E+00  3.50605E+01  1.716E-01  2.000E+01  2.000E+04 -1.362E-02
   1   15   26     3     5    1.8161E+05 -8.1405E+01   1.8169E+05  0.000E+00  0.000E+00  0.000E+00  3.41717E+01  1.717E-01  2.000E+01  2.000E+04 -4.070E-03
   1   16   27     3     6    1.8169E+05  2.1829E+02   1.8148E+05  0.000E+00  0.000E+00  0.000E+00  3.32828E+01  1.717E-01  2.000E+01  2.000E+04  1.091E-02
   1   17   28     3     7    1.8148E+05  6.7889E+03   1.7469E+05  0.000E+00  0.000E+00  0.000E+00  3.23919E+01  1.697E-01  2.000E+01  2.000E+04  3.394E-01
   1   18   29     3     8    1.7469E+05  2.3219E+04   1.5147E+05  0.000E+00  0.000E+00  0.000E+00  3.14943E+01  1.610E-01  2.000E+01  2.000E+04  1.161E+00
   1   18   30     3     9    1.5147E+05  7.8970E+03   1.4357E+05  0.000E+00  0.000E+00  0.000E+00  3.05960E+01  1.516E-01  2.000E+01  2.000E+04  3.948E-01



1
              HEAD IN LAYER   1 AT END OF TIME STEP   1 IN STRESS PERIOD    4
  ---------------------------------------------------------------------------

          1      2      3      4      5      6      7      8      9     10
         11     12     13     14     15     16     17     18     19     20
         21     22     23     24     25     26     27     28     29     30
 .........................................................................
   1  ****** ****** ****** ****** ****** ****** ****** ****** ****** ******
      ****** ****** ****** ****** ****** ****** ****** ****** ****** ******
      ****** ****** ****** ****** ****** ****** ****** ****** ****** ******
   2  ****** ****** ****** ****** ****** ****** ****** ****** ****** ******
      ****** ****** ****** ****** ****** ****** ****** ****** ****** ******
      ****** ****** ****** ****** ****** ****** ****** ****** ****** ******
   3  ****** ****** ****** ****** ****** ****** ****** ****** ****** ******
      ****** ****** ****** ****** ****** ****** ****** ****** ****** ******
      ****** ****** ****** ****** ****** ****** ****** ****** ****** ******
   4  ****** ****** ****** ****** ****** ****** ****** ****** ****** ******
      ****** ****** ****** ****** ****** ****** ****** ****** ****** ******
      ****** ****** ****** ****** ****** ****** ****** ****** ****** ******
   5  ****** ****** ****** ****** ****** ****** ****** ****** ****** ******
      ****** ****** ****** ****** ****** ****** ****** ****** ****** ******
      ****** ****** ****** ****** ****** ****** ****** ****** ****** ******
   6  ****** ****** ****** ****** ****** ****** ****** ****** ****** ******
      ****** ****** ****** ****** ****** ****** ****** ****** ****** ******
      ****** ****** ****** ****** ****** ****** ****** ****** ****** ******
   7  ****** ****** ****** ****** ****** ****** ****** ****** ****** ******
      ****** ****** ****** ****** ****** ****** ****** ****** ****** ******
      ****** ****** ****** ****** ****** ****** ****** ****** ****** ******
   8  ****** ****** ****** ****** ****** ****** ****** ****** ****** ******
      ****** ****** ****** ****** ****** ****** ****** ****** ****** ******
      ****** ****** ****** ****** ****** ****** ****** ****** ****** ******
   9  ****** ****** ****** ****** ****** ****** ****** ****** ****** ******
      ****** ****** ****** ****** ****** ****** ****** ****** ****** ******
      ****** ****** ****** ****** ****** ****** ****** ****** ****** ******
  10  ****** ****** ****** ****** ****** ****** ****** ****** ****** ******
      ****** ****** ****** ****** ****** ****** ****** ****** ****** ******
      ****** ****** ****** ****** ****** ****** ****** ****** ****** ******
  11  ****** ****** ****** ****** ****** ****** ****** ****** ****** ******
      ****** ****** ****** ****** ****** ****** ****** ****** ****** ******
      ****** ****** ****** ****** ****** ****** ****** ****** ****** ******
  12  ****** ****** ****** ****** ****** ****** ****** ****** ****** ******
      ****** ****** ****** ****** ****** ****** ****** ****** ****** ******
      ****** ****** ****** ****** ****** ****** ****** ****** ****** ******
  13  ****** ****** ****** ****** ****** ****** ****** ****** ****** ******
      ****** ****** ****** ****** ****** ****** ****** ****** ****** ******
      ****** ****** ****** ****** ****** ****** ****** ****** ****** ******
  14  ****** ****** ****** ****** ****** ****** ****** ****** ****** ******
      ****** ****** ****** ****** ****** ****** ****** ****** ****** ******
      ****** ****** ****** ****** ****** ****** ****** ****** ****** ******
  15  ****** ****** ****** ****** ****** ****** ****** ****** ****** ******
      ****** ****** ****** ****** ****** ****** ****** ****** ****** ******
      ****** ****** ****** ****** ****** ****** ****** ****** ****** ******
  16  ****** ****** ****** ****** ****** ****** ****** ****** ****** ******
      ****** ****** ****** ****** ****** ****** ****** ****** ****** ******
      ****** ****** ****** ****** ****** ****** ****** ****** ****** ******
  17  ****** ****** ****** ****** ****** ****** ****** ****** ****** ******
      ****** ****** ****** ****** ****** ****** ****** ****** ****** ******
      ****** ****** ****** ****** ****** ****** ****** ****** ****** ******
  18  ****** ****** ****** ****** ****** ****** ****** ****** ****** ******
      ****** ****** ****** ****** ****** ****** ****** ****** ****** ******
      ****** ****** ****** ****** ****** ****** ****** ****** ****** ******
  19  ****** ****** ****** ****** ****** ****** ****** ****** ****** ******
      ****** ****** ****** ****** ****** ****** ****** ****** ****** ******
      ****** ****** ****** ****** ****** ****** ****** ****** ****** ******
  20  ****** ****** ****** ****** ****** ****** ****** ****** ****** ******
      ****** ****** ****** ****** ****** ****** ****** ****** ****** ******
      ****** ****** ****** ****** ****** ****** ****** ****** ****** ******
  21  ****** ****** ****** ****** ****** ****** ****** ****** ****** ******
      ****** ****** ****** ****** ****** ****** ****** ****** ****** ******
      ****** ****** ****** ****** ****** ****** ****** ****** ****** ******
  22  ****** ****** ****** ****** ****** ****** ****** ****** ****** ******
      ****** ****** ****** ****** ****** ****** ****** ****** ****** ******
      ****** ****** ****** ****** ****** ****** ****** ****** ****** ******
  23  ****** ****** ****** ****** ****** ****** ****** ****** ****** ******
      ****** ****** ****** ****** ****** ****** ****** ****** ****** ******
      ****** ****** ****** ****** ****** ****** ****** ****** ****** ******
  24  ****** ****** ****** ****** ****** ****** ****** ****** ****** ******
      ****** ****** ****** ****** ****** ****** ****** ****** ****** ******
      ****** ****** ****** ****** ****** ****** ****** ****** ****** ******
  25  ****** ****** ****** ****** ****** ****** ****** ****** ****** ******
      ****** ****** ****** ****** ****** ****** ****** ****** ****** ******
      ****** ****** ****** ****** ****** ****** ****** ****** ****** ******

 HEAD WILL BE SAVED ON UNIT   51 AT END OF TIME STEP    1, STRESS PERIOD    4
1
  VOLUMETRIC BUDGET FOR ENTIRE MODEL AT END OF TIME STEP    1, STRESS PERIOD   4
  ------------------------------------------------------------------------------

     CUMULATIVE VOLUMES      L**3       RATES FOR THIS TIME STEP      L**3/T
     ------------------                 ------------------------

           IN:                                      IN:
           ---                                      ---
             STORAGE =    28416288.3027               STORAGE =       17645.4374
       CONSTANT HEAD =     7262004.3328         CONSTANT HEAD =       26948.5643
               WELLS =           0.0000                 WELLS =           0.0000
            RECHARGE =     8804400.0000              RECHARGE =       27600.0000
      STREAM LEAKAGE =    19179529.6131        STREAM LEAKAGE =       59267.6774

            TOTAL IN =    63662222.2485              TOTAL IN =      131461.6792

          OUT:                                     OUT:
          ----                                     ----
             STORAGE =         303.6987               STORAGE =           3.3373
       CONSTANT HEAD =           0.0000         CONSTANT HEAD =           0.0000
               WELLS =    28696564.6999                 WELLS =       78620.7252
            RECHARGE =           0.0000              RECHARGE =           0.0000
      STREAM LEAKAGE =    34965355.6033        STREAM LEAKAGE =       52837.6193

           TOTAL OUT =    63662224.0019             TOTAL OUT =      131461.6818

            IN - OUT =          -1.7534              IN - OUT =      -2.6839E-03

 PERCENT DISCREPANCY =          -0.00     PERCENT DISCREPANCY =          -0.00






         TIME SUMMARY AT END OF TIME STEP    1 IN STRESS PERIOD    4
                    SECONDS     MINUTES      HOURS       DAYS        YEARS
                    -----------------------------------------------------------
   TIME STEP LENGTH 7.86240E+06 1.31040E+05  2184.0      91.000     0.24914    
 STRESS PERIOD TIME 7.86240E+06 1.31040E+05  2184.0      91.000     0.24914    
         TOTAL TIME 3.15360E+07 5.25600E+05  8760.0      365.00     0.99932    
1
1
                            STRESS PERIOD NO.    5, LENGTH =   92.00000    
                            -----------------------------------------------

                              NUMBER OF TIME STEPS =     1

                               MULTIPLIER FOR DELT =     1.500

                            INITIAL TIME STEP SIZE =   92.00000    

 WELL NO.  LAYER   ROW   COL   STRESS RATE         
 --------------------------------------------------
      1      1     14      6       0.000    
      2      1      3      9       0.000    
      3      1     20     10       0.000    
      4      1     14     20       0.000    
      5      1     15      4     -0.1412E+05
      6      1     11     22     -0.1126E+05
      7      1     18     29     -0.4576E+05
      8      1     14     29      -7478.    

      8 WELLS

                 RECHARGE =  5.000000E-04

 REUSING STREAM SEGMENT DATA FROM LAST STRESS PERIOD
 
 SOLVING FOR HEAD 


     8 CALLS TO PCG ROUTINE FOR TIME STEP   1 IN STRESS PERIOD    5
    31 TOTAL ITERATIONS

 OUTPUT CONTROL FOR STRESS PERIOD    5   TIME STEP    1
    SAVE BUDGET
    SAVE HEAD FOR ALL LAYERS
    PRINT HEAD FOR ALL LAYERS
 UBDSV2 SAVING "STREAMFLOW OUT  " ON UNIT  50 AT TIME STEP  1, STRESS PERIOD   5



 STREAM LISTING     PERIOD      5   STEP        1

 LAYER ROW COL. STREAM  RCH.  FLOW INTO     FLOW TO   FLOW OUT OF   OVRLND.     DIRECT     STREAM       STREAM     STREAM     STREAM   STREAMBED  STREAMBED
                SEG.NO.  NO.  STRM. RCH.    AQUIFER    STRM. RCH.    RUNOFF     PRECIP       ET          HEAD       DEPTH      WIDTH   CONDCTNC.   GRADIENT

   1   13    1     1     1    1.0000E+05 -2.1371E+03   1.0214E+05  0.000E+00  0.000E+00  0.000E+00  4.84069E+01  1.456E-01  2.000E+01  2.000E+04 -1.069E-01
   1   13    2     1     2    1.0214E+05 -3.1541E+03   1.0529E+05  0.000E+00  0.000E+00  0.000E+00  4.79319E+01  1.479E-01  2.000E+01  2.000E+04 -1.577E-01
   1   14    3     1     3    1.0529E+05 -4.8747E+02   1.0578E+05  0.000E+00  0.000E+00  0.000E+00  4.74562E+01  1.494E-01  2.000E+01  2.000E+04 -2.437E-02
   1   15    4     1     4    1.0578E+05  1.3509E+04   9.2269E+04  0.000E+00  0.000E+00  0.000E+00  4.69733E+01  1.438E-01  2.000E+01  2.000E+04  6.755E-01
   1   16    5     1     5    9.2269E+04 -1.6932E+03   9.3962E+04  0.000E+00  0.000E+00  0.000E+00  4.64909E+01  1.386E-01  2.000E+01  2.000E+04 -8.466E-02
   1   16    6     1     6    9.3962E+04 -1.1096E+03   9.5072E+04  0.000E+00  0.000E+00  0.000E+00  4.60148E+01  1.398E-01  2.000E+01  2.000E+04 -5.548E-02
   1   16    7     1     7    9.5072E+04 -1.1027E+03   9.6175E+04  0.000E+00  0.000E+00  0.000E+00  4.55385E+01  1.408E-01  2.000E+01  2.000E+04 -5.513E-02
   1   16    8     1     8    9.6175E+04 -1.1038E+03   9.7279E+04  0.000E+00  0.000E+00  0.000E+00  4.50622E+01  1.418E-01  2.000E+01  2.000E+04 -5.519E-02
   1   16    9     1     9    9.7279E+04 -1.0970E+03   9.8376E+04  0.000E+00  0.000E+00  0.000E+00  4.45859E+01  1.428E-01  2.000E+01  2.000E+04 -5.485E-02
   1   16   10     1    10    9.8376E+04 -1.0837E+03   9.9459E+04  0.000E+00  0.000E+00  0.000E+00  4.41096E+01  1.437E-01  2.000E+01  2.000E+04 -5.419E-02
   1   16   11     1    11    9.9459E+04 -1.0885E+03   1.0055E+05  0.000E+00  0.000E+00  0.000E+00  4.36333E+01  1.447E-01  2.000E+01  2.000E+04 -5.443E-02
   1   16   12     1    12    1.0055E+05 -1.8983E+03   1.0245E+05  0.000E+00  0.000E+00  0.000E+00  4.31573E+01  1.459E-01  2.000E+01  2.000E+04 -9.492E-02
   1   15   13     1    13    1.0245E+05 -1.8501E+03   1.0430E+05  0.000E+00  0.000E+00  0.000E+00  4.26816E+01  1.476E-01  2.000E+01  2.000E+04 -9.250E-02
   1   14   14     1    14    1.0430E+05 -2.1515E+03   1.0645E+05  0.000E+00  0.000E+00  0.000E+00  4.22061E+01  1.493E-01  2.000E+01  2.000E+04 -1.076E-01
   1   13   15     1    15    1.0645E+05 -2.4600E+03   1.0891E+05  0.000E+00  0.000E+00  0.000E+00  4.17308E+01  1.512E-01  2.000E+01  2.000E+04 -1.230E-01
   1   12   16     1    16    1.0891E+05 -3.0606E+03   1.1197E+05  0.000E+00  0.000E+00  0.000E+00  4.12558E+01  1.535E-01  2.000E+01  2.000E+04 -1.530E-01
   1   12   17     1    17    1.1197E+05 -1.8779E+03   1.1385E+05  0.000E+00  0.000E+00  0.000E+00  4.07806E+01  1.556E-01  2.000E+01  2.000E+04 -9.389E-02
   1   12   18     1    18    1.1385E+05 -1.6204E+03   1.1547E+05  0.000E+00  0.000E+00  0.000E+00  4.03048E+01  1.570E-01  2.000E+01  2.000E+04 -8.102E-02
   1   12   19     1    19    1.1547E+05 -1.2796E+03   1.1675E+05  0.000E+00  0.000E+00  0.000E+00  3.98287E+01  1.582E-01  2.000E+01  2.000E+04 -6.398E-02
   1   13   20     1    20    1.1675E+05 -5.9947E+02   1.1735E+05  0.000E+00  0.000E+00  0.000E+00  3.93522E+01  1.590E-01  2.000E+01  2.000E+04 -2.997E-02
   1   14   21     1    21    1.1735E+05 -1.0681E+03   1.1841E+05  0.000E+00  0.000E+00  0.000E+00  3.88756E+01  1.597E-01  2.000E+01  2.000E+04 -5.340E-02
   1   14   22     1    22    1.1841E+05  5.1641E+03   1.1325E+05  0.000E+00  0.000E+00  0.000E+00  3.83966E+01  1.580E-01  2.000E+01  2.000E+04  2.582E-01
   1    9   30     2     1    5.0000E+04  2.0237E+02   4.9798E+04  0.000E+00  0.000E+00  0.000E+00  4.02407E+01  1.157E-01  2.000E+01  2.000E+04  1.012E-02
   1    9   29     2     2    4.9798E+04 -1.5514E+02   4.9953E+04  0.000E+00  0.000E+00  0.000E+00  3.99907E+01  1.157E-01  2.000E+01  2.000E+04 -7.757E-03
   1    9   28     2     3    4.9953E+04 -5.3261E+02   5.0485E+04  0.000E+00  0.000E+00  0.000E+00  3.97412E+01  1.162E-01  2.000E+01  2.000E+04 -2.663E-02
   1    9   27     2     4    5.0485E+04 -1.8141E+03   5.2300E+04  0.000E+00  0.000E+00  0.000E+00  3.94928E+01  1.178E-01  2.000E+01  2.000E+04 -9.071E-02
   1   10   26     2     5    5.2300E+04 -4.4695E+02   5.2746E+04  0.000E+00  0.000E+00  0.000E+00  3.92443E+01  1.193E-01  2.000E+01  2.000E+04 -2.235E-02
   1   11   25     2     6    5.2746E+04  2.5919E+02   5.2487E+04  0.000E+00  0.000E+00  0.000E+00  3.89945E+01  1.195E-01  2.000E+01  2.000E+04  1.296E-02
   1   12   24     2     7    5.2487E+04  8.9919E+02   5.1588E+04  0.000E+00  0.000E+00  0.000E+00  3.87437E+01  1.187E-01  2.000E+01  2.000E+04  4.496E-02
   1   13   23     2     8    5.1588E+04  2.0577E+02   5.1382E+04  0.000E+00  0.000E+00  0.000E+00  3.84929E+01  1.179E-01  2.000E+01  2.000E+04  1.029E-02
   1   14   22     2     9    5.1382E+04  2.0587E+03   4.9324E+04  0.000E+00  0.000E+00  0.000E+00  3.82414E+01  1.164E-01  2.000E+01  2.000E+04  1.029E-01
   1   14   22     3     1    1.6257E+05 -8.3944E+03   1.7097E+05  0.000E+00  0.000E+00  0.000E+00  3.77187E+01  1.631E-01  2.000E+01  2.000E+04 -4.197E-01
   1   15   23     3     2    1.7097E+05 -5.1872E+02   1.7149E+05  0.000E+00  0.000E+00  0.000E+00  3.68324E+01  1.657E-01  2.000E+01  2.000E+04 -2.594E-02
   1   15   24     3     3    1.7149E+05 -2.3885E+02   1.7173E+05  0.000E+00  0.000E+00  0.000E+00  3.59437E+01  1.660E-01  2.000E+01  2.000E+04 -1.194E-02
   1   15   25     3     4    1.7173E+05 -1.9784E+02   1.7192E+05  0.000E+00  0.000E+00  0.000E+00  3.50550E+01  1.661E-01  2.000E+01  2.000E+04 -9.892E-03
   1   15   26     3     5    1.7192E+05 -4.1266E+00   1.7193E+05  0.000E+00  0.000E+00  0.000E+00  3.41662E+01  1.662E-01  2.000E+01  2.000E+04 -2.063E-04
   1   16   27     3     6    1.7193E+05  3.2037E+02   1.7161E+05  0.000E+00  0.000E+00  0.000E+00  3.32772E+01  1.661E-01  2.000E+01  2.000E+04  1.602E-02
   1   17   28     3     7    1.7161E+05  7.2521E+03   1.6435E+05  0.000E+00  0.000E+00  0.000E+00  3.23861E+01  1.639E-01  2.000E+01  2.000E+04  3.626E-01
   1   18   29     3     8    1.6435E+05  2.3096E+04   1.4126E+05  0.000E+00  0.000E+00  0.000E+00  3.14881E+01  1.548E-01  2.000E+01  2.000E+04  1.155E+00
   1   18   30     3     9    1.4126E+05  8.4554E+03   1.3280E+05  0.000E+00  0.000E+00  0.000E+00  3.05895E+01  1.450E-01  2.000E+01  2.000E+04  4.228E-01



1
              HEAD IN LAYER   1 AT END OF TIME STEP   1 IN STRESS PERIOD    5
  ---------------------------------------------------------------------------

          1      2      3      4      5      6      7      8      9     10
         11     12     13     14     15     16     17     18     19     20
         21     22     23     24     25     26     27     28     29     30
 .........................................................................
   1  ****** ****** ****** ****** ****** ****** ****** ****** ****** ******
      ****** ****** ****** ****** ****** ****** ****** ****** ****** ******
      ****** ****** ****** ****** ****** ****** ****** ****** ****** ******
   2  ****** ****** ****** ****** ****** ****** ****** ****** ****** ******
      ****** ****** ****** ****** ****** ****** ****** ****** ****** ******
      ****** ****** ****** ****** ****** ****** ****** ****** ****** ******
   3  ****** ****** ****** ****** ****** ****** ****** ****** ****** ******
      ****** ****** ****** ****** ****** ****** ****** ****** ****** ******
      ****** ****** ****** ****** ****** ****** ****** ****** ****** ******
   4  ****** ****** ****** ****** ****** ****** ****** ****** ****** ******
      ****** ****** ****** ****** ****** ****** ****** ****** ****** ******
      ****** ****** ****** ****** ****** ****** ****** ****** ****** ******
   5  ****** ****** ****** ****** ****** ****** ****** ****** ****** ******
      ****** ****** ****** ****** ****** ****** ****** ****** ****** ******
      ****** ****** ****** ****** ****** ****** ****** ****** ****** ******
   6  ****** ****** ****** ****** ****** ****** ****** ****** ****** ******
      ****** ****** ****** ****** ****** ****** ****** ****** ****** ******
      ****** ****** ****** ****** ****** ****** ****** ****** ****** ******
   7  ****** ****** ****** ****** ****** ****** ****** ****** ****** ******
      ****** ****** ****** ****** ****** ****** ****** ****** ****** ******
      ****** ****** ****** ****** ****** ****** ****** ****** ****** ******
   8  ****** ****** ****** ****** ****** ****** ****** ****** ****** ******
      ****** ****** ****** ****** ****** ****** ****** ****** ****** ******
      ****** ****** ****** ****** ****** ****** ****** ****** ****** ******
   9  ****** ****** ****** ****** ****** ****** ****** ****** ****** ******
      ****** ****** ****** ****** ****** ****** ****** ****** ****** ******
      ****** ****** ****** ****** ****** ****** ****** ****** ****** ******
  10  ****** ****** ****** ****** ****** ****** ****** ****** ****** ******
      ****** ****** ****** ****** ****** ****** ****** ****** ****** ******
      ****** ****** ****** ****** ****** ****** ****** ****** ****** ******
  11  ****** ****** ****** ****** ****** ****** ****** ****** ****** ******
      ****** ****** ****** ****** ****** ****** ****** ****** ****** ******
      ****** ****** ****** ****** ****** ****** ****** ****** ****** ******
  12  ****** ****** ****** ****** ****** ****** ****** ****** ****** ******
      ****** ****** ****** ****** ****** ****** ****** ****** ****** ******
      ****** ****** ****** ****** ****** ****** ****** ****** ****** ******
  13  ****** ****** ****** ****** ****** ****** ****** ****** ****** ******
      ****** ****** ****** ****** ****** ****** ****** ****** ****** ******
      ****** ****** ****** ****** ****** ****** ****** ****** ****** ******
  14  ****** ****** ****** ****** ****** ****** ****** ****** ****** ******
      ****** ****** ****** ****** ****** ****** ****** ****** ****** ******
      ****** ****** ****** ****** ****** ****** ****** ****** ****** ******
  15  ****** ****** ****** ****** ****** ****** ****** ****** ****** ******
      ****** ****** ****** ****** ****** ****** ****** ****** ****** ******
      ****** ****** ****** ****** ****** ****** ****** ****** ****** ******
  16  ****** ****** ****** ****** ****** ****** ****** ****** ****** ******
      ****** ****** ****** ****** ****** ****** ****** ****** ****** ******
      ****** ****** ****** ****** ****** ****** ****** ****** ****** ******
  17  ****** ****** ****** ****** ****** ****** ****** ****** ****** ******
      ****** ****** ****** ****** ****** ****** ****** ****** ****** ******
      ****** ****** ****** ****** ****** ****** ****** ****** ****** ******
  18  ****** ****** ****** ****** ****** ****** ****** ****** ****** ******
      ****** ****** ****** ****** ****** ****** ****** ****** ****** ******
      ****** ****** ****** ****** ****** ****** ****** ****** ****** ******
  19  ****** ****** ****** ****** ****** ****** ****** ****** ****** ******
      ****** ****** ****** ****** ****** ****** ****** ****** ****** ******
      ****** ****** ****** ****** ****** ****** ****** ****** ****** ******
  20  ****** ****** ****** ****** ****** ****** ****** ****** ****** ******
      ****** ****** ****** ****** ****** ****** ****** ****** ****** ******
      ****** ****** ****** ****** ****** ****** ****** ****** ****** ******
  21  ****** ****** ****** ****** ****** ****** ****** ****** ****** ******
      ****** ****** ****** ****** ****** ****** ****** ****** ****** ******
      ****** ****** ****** ****** ****** ****** ****** ****** ****** ******
  22  ****** ****** ****** ****** ****** ****** ****** ****** ****** ******
      ****** ****** ****** ****** ****** ****** ****** ****** ****** ******
      ****** ****** ****** ****** ****** ****** ****** ****** ****** ******
  23  ****** ****** ****** ****** ****** ****** ****** ****** ****** ******
      ****** ****** ****** ****** ****** ****** ****** ****** ****** ******
      ****** ****** ****** ****** ****** ****** ****** ****** ****** ******
  24  ****** ****** ****** ****** ****** ****** ****** ****** ****** ******
      ****** ****** ****** ****** ****** ****** ****** ****** ****** ******
      ****** ****** ****** ****** ****** ****** ****** ****** ****** ******
  25  ****** ****** ****** ****** ****** ****** ****** ****** ****** ******
      ****** ****** ****** ****** ****** ****** ****** ****** ****** ******
      ****** ****** ****** ****** ****** ****** ****** ****** ****** ******

 HEAD WILL BE SAVED ON UNIT   51 AT END OF TIME STEP    1, STRESS PERIOD    5
1
  VOLUMETRIC BUDGET FOR ENTIRE MODEL AT END OF TIME STEP    1, STRESS PERIOD   5
  ------------------------------------------------------------------------------

     CUMULATIVE VOLUMES      L**3       RATES FOR THIS TIME STEP      L**3/T
     ------------------                 ------------------------

           IN:                                      IN:
           ---                                      ---
             STORAGE =    30056321.3630               STORAGE =       17826.4463
       CONSTANT HEAD =    10003369.6139         CONSTANT HEAD =       29797.4487
               WELLS =           0.0000                 WELLS =           0.0000
            RECHARGE =    10074000.0000              RECHARGE =       13800.0000
      STREAM LEAKAGE =    24830416.4243        STREAM LEAKAGE =       61422.6827

            TOTAL IN =    74964107.4011              TOTAL IN =      122846.5777

          OUT:                                     OUT:
          ----                                     ----
             STORAGE =         303.6987               STORAGE =           0.0000
       CONSTANT HEAD =           0.0000         CONSTANT HEAD =           0.0000
               WELLS =    35929671.4188                 WELLS =       78620.7252
            RECHARGE =           0.0000              RECHARGE =           0.0000
      STREAM LEAKAGE =    39034134.1999        STREAM LEAKAGE =       44225.8543

           TOTAL OUT =    74964109.3175             TOTAL OUT =      122846.5795

            IN - OUT =          -1.9163              IN - OUT =      -1.7711E-03

 PERCENT DISCREPANCY =          -0.00     PERCENT DISCREPANCY =          -0.00






         TIME SUMMARY AT END OF TIME STEP    1 IN STRESS PERIOD    5
                    SECONDS     MINUTES      HOURS       DAYS        YEARS
                    -----------------------------------------------------------
   TIME STEP LENGTH 7.94880E+06 1.32480E+05  2208.0      92.000     0.25188    
 STRESS PERIOD TIME 7.94880E+06 1.32480E+05  2208.0      92.000     0.25188    
         TOTAL TIME 3.94848E+07 6.58080E+05  10968.      457.00      1.2512    
1
1
                            STRESS PERIOD NO.    6, LENGTH =   91.00000    
                            -----------------------------------------------

                              NUMBER OF TIME STEPS =     1

                               MULTIPLIER FOR DELT =     1.500

                            INITIAL TIME STEP SIZE =   91.00000    

 WELL NO.  LAYER   ROW   COL   STRESS RATE         
 --------------------------------------------------
      1      1     14      6       0.000    
      2      1      3      9       0.000    
      3      1     20     10       0.000    
      4      1     14     20       0.000    
      5      1     15      4     -0.1412E+05
      6      1     11     22     -0.1126E+05
      7      1     18     29     -0.4576E+05
      8      1     14     29      -7478.    

      8 WELLS

                 RECHARGE =  2.000000E-03

 REUSING STREAM SEGMENT DATA FROM LAST STRESS PERIOD
 
 SOLVING FOR HEAD 


     8 CALLS TO PCG ROUTINE FOR TIME STEP   1 IN STRESS PERIOD    6
    31 TOTAL ITERATIONS

 OUTPUT CONTROL FOR STRESS PERIOD    6   TIME STEP    1
    SAVE BUDGET
    SAVE HEAD FOR ALL LAYERS
    PRINT HEAD FOR ALL LAYERS
 UBDSV2 SAVING "STREAMFLOW OUT  " ON UNIT  50 AT TIME STEP  1, STRESS PERIOD   6



 STREAM LISTING     PERIOD      6   STEP        1

 LAYER ROW COL. STREAM  RCH.  FLOW INTO     FLOW TO   FLOW OUT OF   OVRLND.     DIRECT     STREAM       STREAM     STREAM     STREAM   STREAMBED  STREAMBED
                SEG.NO.  NO.  STRM. RCH.    AQUIFER    STRM. RCH.    RUNOFF     PRECIP       ET          HEAD       DEPTH      WIDTH   CONDCTNC.   GRADIENT

   1   13    1     1     1    1.0000E+05 -2.4604E+03   1.0246E+05  0.000E+00  0.000E+00  0.000E+00  4.84071E+01  1.457E-01  2.000E+01  2.000E+04 -1.230E-01
   1   13    2     1     2    1.0246E+05 -3.5084E+03   1.0597E+05  0.000E+00  0.000E+00  0.000E+00  4.79324E+01  1.483E-01  2.000E+01  2.000E+04 -1.754E-01
   1   14    3     1     3    1.0597E+05 -6.4370E+02   1.0661E+05  0.000E+00  0.000E+00  0.000E+00  4.74569E+01  1.500E-01  2.000E+01  2.000E+04 -3.219E-02
   1   15    4     1     4    1.0661E+05  1.3342E+04   9.3271E+04  0.000E+00  0.000E+00  0.000E+00  4.69741E+01  1.446E-01  2.000E+01  2.000E+04  6.671E-01
   1   16    5     1     5    9.3271E+04 -2.1925E+03   9.5463E+04  0.000E+00  0.000E+00  0.000E+00  4.64920E+01  1.397E-01  2.000E+01  2.000E+04 -1.096E-01
   1   16    6     1     6    9.5463E+04 -1.4028E+03   9.6866E+04  0.000E+00  0.000E+00  0.000E+00  4.60163E+01  1.413E-01  2.000E+01  2.000E+04 -7.014E-02
   1   16    7     1     7    9.6866E+04 -1.3807E+03   9.8247E+04  0.000E+00  0.000E+00  0.000E+00  4.55402E+01  1.425E-01  2.000E+01  2.000E+04 -6.903E-02
   1   16    8     1     8    9.8247E+04 -1.3773E+03   9.9624E+04  0.000E+00  0.000E+00  0.000E+00  4.50642E+01  1.437E-01  2.000E+01  2.000E+04 -6.886E-02
   1   16    9     1     9    9.9624E+04 -1.3700E+03   1.0099E+05  0.000E+00  0.000E+00  0.000E+00  4.45881E+01  1.449E-01  2.000E+01  2.000E+04 -6.850E-02
   1   16   10     1    10    1.0099E+05 -1.3582E+03   1.0235E+05  0.000E+00  0.000E+00  0.000E+00  4.41120E+01  1.461E-01  2.000E+01  2.000E+04 -6.791E-02
   1   16   11     1    11    1.0235E+05 -1.3662E+03   1.0372E+05  0.000E+00  0.000E+00  0.000E+00  4.36359E+01  1.473E-01  2.000E+01  2.000E+04 -6.831E-02
   1   16   12     1    12    1.0372E+05 -2.3472E+03   1.0607E+05  0.000E+00  0.000E+00  0.000E+00  4.31602E+01  1.489E-01  2.000E+01  2.000E+04 -1.174E-01
   1   15   13     1    13    1.0607E+05 -2.3106E+03   1.0838E+05  0.000E+00  0.000E+00  0.000E+00  4.26849E+01  1.508E-01  2.000E+01  2.000E+04 -1.155E-01
   1   14   14     1    14    1.0838E+05 -2.6085E+03   1.1098E+05  0.000E+00  0.000E+00  0.000E+00  4.22097E+01  1.529E-01  2.000E+01  2.000E+04 -1.304E-01
   1   13   15     1    15    1.1098E+05 -2.8990E+03   1.1388E+05  0.000E+00  0.000E+00  0.000E+00  4.17347E+01  1.552E-01  2.000E+01  2.000E+04 -1.450E-01
   1   12   16     1    16    1.1388E+05 -3.4564E+03   1.1734E+05  0.000E+00  0.000E+00  0.000E+00  4.12601E+01  1.578E-01  2.000E+01  2.000E+04 -1.728E-01
   1   12   17     1    17    1.1734E+05 -2.1976E+03   1.1954E+05  0.000E+00  0.000E+00  0.000E+00  4.07851E+01  1.601E-01  2.000E+01  2.000E+04 -1.099E-01
   1   12   18     1    18    1.1954E+05 -1.9431E+03   1.2148E+05  0.000E+00  0.000E+00  0.000E+00  4.03095E+01  1.618E-01  2.000E+01  2.000E+04 -9.715E-02
   1   12   19     1    19    1.2148E+05 -1.6804E+03   1.2316E+05  0.000E+00  0.000E+00  0.000E+00  3.98337E+01  1.632E-01  2.000E+01  2.000E+04 -8.402E-02
   1   13   20     1    20    1.2316E+05 -1.0241E+03   1.2419E+05  0.000E+00  0.000E+00  0.000E+00  3.93575E+01  1.643E-01  2.000E+01  2.000E+04 -5.120E-02
   1   14   21     1    21    1.2419E+05 -1.4795E+03   1.2566E+05  0.000E+00  0.000E+00  0.000E+00  3.88812E+01  1.653E-01  2.000E+01  2.000E+04 -7.398E-02
   1   14   22     1    22    1.2566E+05  5.0571E+03   1.2061E+05  0.000E+00  0.000E+00  0.000E+00  3.84025E+01  1.639E-01  2.000E+01  2.000E+04  2.529E-01
   1    9   30     2     1    5.0000E+04 -1.6341E+02   5.0163E+04  0.000E+00  0.000E+00  0.000E+00  4.02410E+01  1.160E-01  2.000E+01  2.000E+04 -8.170E-03
   1    9   29     2     2    5.0163E+04 -5.1663E+02   5.0680E+04  0.000E+00  0.000E+00  0.000E+00  3.99915E+01  1.165E-01  2.000E+01  2.000E+04 -2.583E-02
   1    9   28     2     3    5.0680E+04 -8.8759E+02   5.1568E+04  0.000E+00  0.000E+00  0.000E+00  3.97424E+01  1.174E-01  2.000E+01  2.000E+04 -4.438E-02
   1    9   27     2     4    5.1568E+04 -2.2646E+03   5.3832E+04  0.000E+00  0.000E+00  0.000E+00  3.94946E+01  1.196E-01  2.000E+01  2.000E+04 -1.132E-01
   1   10   26     2     5    5.3832E+04 -9.2073E+02   5.4753E+04  0.000E+00  0.000E+00  0.000E+00  3.92467E+01  1.217E-01  2.000E+01  2.000E+04 -4.604E-02
   1   11   25     2     6    5.4753E+04 -1.9951E+02   5.4952E+04  0.000E+00  0.000E+00  0.000E+00  3.89975E+01  1.225E-01  2.000E+01  2.000E+04 -9.975E-03
   1   12   24     2     7    5.4952E+04  4.8555E+02   5.4467E+04  0.000E+00  0.000E+00  0.000E+00  3.87473E+01  1.223E-01  2.000E+01  2.000E+04  2.428E-02
   1   13   23     2     8    5.4467E+04  6.7390E+01   5.4399E+04  0.000E+00  0.000E+00  0.000E+00  3.84969E+01  1.219E-01  2.000E+01  2.000E+04  3.369E-03
   1   14   22     2     9    5.4399E+04  1.9182E+03   5.2481E+04  0.000E+00  0.000E+00  0.000E+00  3.82456E+01  1.206E-01  2.000E+01  2.000E+04  9.591E-02
   1   14   22     3     1    1.7309E+05 -8.4969E+03   1.8159E+05  0.000E+00  0.000E+00  0.000E+00  3.77248E+01  1.693E-01  2.000E+01  2.000E+04 -4.248E-01
   1   15   23     3     2    1.8159E+05 -6.5527E+02   1.8224E+05  0.000E+00  0.000E+00  0.000E+00  3.68385E+01  1.719E-01  2.000E+01  2.000E+04 -3.276E-02
   1   15   24     3     3    1.8224E+05 -3.5993E+02   1.8260E+05  0.000E+00  0.000E+00  0.000E+00  3.59499E+01  1.722E-01  2.000E+01  2.000E+04 -1.800E-02
   1   15   25     3     4    1.8260E+05 -3.2321E+02   1.8292E+05  0.000E+00  0.000E+00  0.000E+00  3.50612E+01  1.724E-01  2.000E+01  2.000E+04 -1.616E-02
   1   15   26     3     5    1.8292E+05 -1.5488E+02   1.8308E+05  0.000E+00  0.000E+00  0.000E+00  3.41725E+01  1.725E-01  2.000E+01  2.000E+04 -7.744E-03
   1   16   27     3     6    1.8308E+05  1.4987E+02   1.8293E+05  0.000E+00  0.000E+00  0.000E+00  3.32836E+01  1.725E-01  2.000E+01  2.000E+04  7.494E-03
   1   17   28     3     7    1.8293E+05  6.6467E+03   1.7628E+05  0.000E+00  0.000E+00  0.000E+00  3.23928E+01  1.706E-01  2.000E+01  2.000E+04  3.323E-01
   1   18   29     3     8    1.7628E+05  2.3238E+04   1.5304E+05  0.000E+00  0.000E+00  0.000E+00  3.14952E+01  1.619E-01  2.000E+01  2.000E+04  1.162E+00
   1   18   30     3     9    1.5304E+05  7.8570E+03   1.4519E+05  0.000E+00  0.000E+00  0.000E+00  3.05970E+01  1.526E-01  2.000E+01  2.000E+04  3.929E-01



1
              HEAD IN LAYER   1 AT END OF TIME STEP   1 IN STRESS PERIOD    6
  ---------------------------------------------------------------------------

          1      2      3      4      5      6      7      8      9     10
         11     12     13     14     15     16     17     18     19     20
         21     22     23     24     25     26     27     28     29     30
 .........................................................................
   1  ****** ****** ****** ****** ****** ****** ****** ****** ****** ******
      ****** ****** ****** ****** ****** ****** ****** ****** ****** ******
      ****** ****** ****** ****** ****** ****** ****** ****** ****** ******
   2  ****** ****** ****** ****** ****** ****** ****** ****** ****** ******
      ****** ****** ****** ****** ****** ****** ****** ****** ****** ******
      ****** ****** ****** ****** ****** ****** ****** ****** ****** ******
   3  ****** ****** ****** ****** ****** ****** ****** ****** ****** ******
      ****** ****** ****** ****** ****** ****** ****** ****** ****** ******
      ****** ****** ****** ****** ****** ****** ****** ****** ****** ******
   4  ****** ****** ****** ****** ****** ****** ****** ****** ****** ******
      ****** ****** ****** ****** ****** ****** ****** ****** ****** ******
      ****** ****** ****** ****** ****** ****** ****** ****** ****** ******
   5  ****** ****** ****** ****** ****** ****** ****** ****** ****** ******
      ****** ****** ****** ****** ****** ****** ****** ****** ****** ******
      ****** ****** ****** ****** ****** ****** ****** ****** ****** ******
   6  ****** ****** ****** ****** ****** ****** ****** ****** ****** ******
      ****** ****** ****** ****** ****** ****** ****** ****** ****** ******
      ****** ****** ****** ****** ****** ****** ****** ****** ****** ******
   7  ****** ****** ****** ****** ****** ****** ****** ****** ****** ******
      ****** ****** ****** ****** ****** ****** ****** ****** ****** ******
      ****** ****** ****** ****** ****** ****** ****** ****** ****** ******
   8  ****** ****** ****** ****** ****** ****** ****** ****** ****** ******
      ****** ****** ****** ****** ****** ****** ****** ****** ****** ******
      ****** ****** ****** ****** ****** ****** ****** ****** ****** ******
   9  ****** ****** ****** ****** ****** ****** ****** ****** ****** ******
      ****** ****** ****** ****** ****** ****** ****** ****** ****** ******
      ****** ****** ****** ****** ****** ****** ****** ****** ****** ******
  10  ****** ****** ****** ****** ****** ****** ****** ****** ****** ******
      ****** ****** ****** ****** ****** ****** ****** ****** ****** ******
      ****** ****** ****** ****** ****** ****** ****** ****** ****** ******
  11  ****** ****** ****** ****** ****** ****** ****** ****** ****** ******
      ****** ****** ****** ****** ****** ****** ****** ****** ****** ******
      ****** ****** ****** ****** ****** ****** ****** ****** ****** ******
  12  ****** ****** ****** ****** ****** ****** ****** ****** ****** ******
      ****** ****** ****** ****** ****** ****** ****** ****** ****** ******
      ****** ****** ****** ****** ****** ****** ****** ****** ****** ******
  13  ****** ****** ****** ****** ****** ****** ****** ****** ****** ******
      ****** ****** ****** ****** ****** ****** ****** ****** ****** ******
      ****** ****** ****** ****** ****** ****** ****** ****** ****** ******
  14  ****** ****** ****** ****** ****** ****** ****** ****** ****** ******
      ****** ****** ****** ****** ****** ****** ****** ****** ****** ******
      ****** ****** ****** ****** ****** ****** ****** ****** ****** ******
  15  ****** ****** ****** ****** ****** ****** ****** ****** ****** ******
      ****** ****** ****** ****** ****** ****** ****** ****** ****** ******
      ****** ****** ****** ****** ****** ****** ****** ****** ****** ******
  16  ****** ****** ****** ****** ****** ****** ****** ****** ****** ******
      ****** ****** ****** ****** ****** ****** ****** ****** ****** ******
      ****** ****** ****** ****** ****** ****** ****** ****** ****** ******
  17  ****** ****** ****** ****** ****** ****** ****** ****** ****** ******
      ****** ****** ****** ****** ****** ****** ****** ****** ****** ******
      ****** ****** ****** ****** ****** ****** ****** ****** ****** ******
  18  ****** ****** ****** ****** ****** ****** ****** ****** ****** ******
      ****** ****** ****** ****** ****** ****** ****** ****** ****** ******
      ****** ****** ****** ****** ****** ****** ****** ****** ****** ******
  19  ****** ****** ****** ****** ****** ****** ****** ****** ****** ******
      ****** ****** ****** ****** ****** ****** ****** ****** ****** ******
      ****** ****** ****** ****** ****** ****** ****** ****** ****** ******
  20  ****** ****** ****** ****** ****** ****** ****** ****** ****** ******
      ****** ****** ****** ****** ****** ****** ****** ****** ****** ******
      ****** ****** ****** ****** ****** ****** ****** ****** ****** ******
  21  ****** ****** ****** ****** ****** ****** ****** ****** ****** ******
      ****** ****** ****** ****** ****** ****** ****** ****** ****** ******
      ****** ****** ****** ****** ****** ****** ****** ****** ****** ******
  22  ****** ****** ****** ****** ****** ****** ****** ****** ****** ******
      ****** ****** ****** ****** ****** ****** ****** ****** ****** ******
      ****** ****** ****** ****** ****** ****** ****** ****** ****** ******
  23  ****** ****** ****** ****** ****** ****** ****** ****** ****** ******
      ****** ****** ****** ****** ****** ****** ****** ****** ****** ******
      ****** ****** ****** ****** ****** ****** ****** ****** ****** ******
  24  ****** ****** ****** ****** ****** ****** ****** ****** ****** ******
      ****** ****** ****** ****** ****** ****** ****** ****** ****** ******
      ****** ****** ****** ****** ****** ****** ****** ****** ****** ******
  25  ****** ****** ****** ****** ****** ****** ****** ****** ****** ******
      ****** ****** ****** ****** ****** ****** ****** ****** ****** ******
      ****** ****** ****** ****** ****** ****** ****** ****** ****** ******

 HEAD WILL BE SAVED ON UNIT   51 AT END OF TIME STEP    1, STRESS PERIOD    6
1
  VOLUMETRIC BUDGET FOR ENTIRE MODEL AT END OF TIME STEP    1, STRESS PERIOD   6
  ------------------------------------------------------------------------------

     CUMULATIVE VOLUMES      L**3       RATES FOR THIS TIME STEP      L**3/T
     ------------------                 ------------------------

           IN:                                      IN:
           ---                                      ---
             STORAGE =    30056321.3630               STORAGE =           0.0000
       CONSTANT HEAD =    12536770.2225         CONSTANT HEAD =       27839.5671
               WELLS =           0.0000                 WELLS =           0.0000
            RECHARGE =    15097200.0000              RECHARGE =       55200.0000
      STREAM LEAKAGE =    30177745.0846        STREAM LEAKAGE =       58761.8534

            TOTAL IN =    87868036.6701              TOTAL IN =      141801.4205

          OUT:                                     OUT:
          ----                                     ----
             STORAGE =      840360.6922               STORAGE =        9231.3955
       CONSTANT HEAD =           0.0000         CONSTANT HEAD =           0.0000
               WELLS =    43084157.4125                 WELLS =       78620.7252
            RECHARGE =           0.0000              RECHARGE =           0.0000
      STREAM LEAKAGE =    43943520.3368        STREAM LEAKAGE =       53949.2982

           TOTAL OUT =    87868038.4415             TOTAL OUT =      141801.4189

            IN - OUT =          -1.7714              IN - OUT =       1.5919E-03

 PERCENT DISCREPANCY =          -0.00     PERCENT DISCREPANCY =           0.00






         TIME SUMMARY AT END OF TIME STEP    1 IN STRESS PERIOD    6
                    SECONDS     MINUTES      HOURS       DAYS        YEARS
                    -----------------------------------------------------------
   TIME STEP LENGTH 7.86240E+06 1.31040E+05  2184.0      91.000     0.24914    
 STRESS PERIOD TIME 7.86240E+06 1.31040E+05  2184.0      91.000     0.24914    
         TOTAL TIME 4.73472E+07 7.89120E+05  13152.      548.00      1.5003    
1
1
                            STRESS PERIOD NO.    7, LENGTH =   91.00000    
                            -----------------------------------------------

                              NUMBER OF TIME STEPS =     1

                               MULTIPLIER FOR DELT =     1.500

                            INITIAL TIME STEP SIZE =   91.00000    

 WELL NO.  LAYER   ROW   COL   STRESS RATE         
 --------------------------------------------------
      1      1     14      6       0.000    
      2      1      3      9       0.000    
      3      1     20     10       0.000    
      4      1     14     20       0.000    
      5      1     15      4     -0.1412E+05
      6      1     11     22     -0.1126E+05
      7      1     18     29     -0.4576E+05
      8      1     14     29      -7478.    

      8 WELLS

                 RECHARGE =   0.00000    

 REUSING STREAM SEGMENT DATA FROM LAST STRESS PERIOD
 
 SOLVING FOR HEAD 


     8 CALLS TO PCG ROUTINE FOR TIME STEP   1 IN STRESS PERIOD    7
    32 TOTAL ITERATIONS

 OUTPUT CONTROL FOR STRESS PERIOD    7   TIME STEP    1
    SAVE BUDGET
    SAVE HEAD FOR ALL LAYERS
    PRINT HEAD FOR ALL LAYERS
 UBDSV2 SAVING "STREAMFLOW OUT  " ON UNIT  50 AT TIME STEP  1, STRESS PERIOD   7



 STREAM LISTING     PERIOD      7   STEP        1

 LAYER ROW COL. STREAM  RCH.  FLOW INTO     FLOW TO   FLOW OUT OF   OVRLND.     DIRECT     STREAM       STREAM     STREAM     STREAM   STREAMBED  STREAMBED
                SEG.NO.  NO.  STRM. RCH.    AQUIFER    STRM. RCH.    RUNOFF     PRECIP       ET          HEAD       DEPTH      WIDTH   CONDCTNC.   GRADIENT

   1   13    1     1     1    1.0000E+05 -1.8014E+03   1.0180E+05  0.000E+00  0.000E+00  0.000E+00  4.84068E+01  1.454E-01  2.000E+01  2.000E+04 -9.007E-02
   1   13    2     1     2    1.0180E+05 -2.7712E+03   1.0457E+05  0.000E+00  0.000E+00  0.000E+00  4.79315E+01  1.474E-01  2.000E+01  2.000E+04 -1.386E-01
   1   14    3     1     3    1.0457E+05 -3.9289E+02   1.0497E+05  0.000E+00  0.000E+00  0.000E+00  4.74556E+01  1.488E-01  2.000E+01  2.000E+04 -1.964E-02
   1   15    4     1     4    1.0497E+05  1.3604E+04   9.1362E+04  0.000E+00  0.000E+00  0.000E+00  4.69726E+01  1.431E-01  2.000E+01  2.000E+04  6.802E-01
   1   16    5     1     5    9.1362E+04 -1.4410E+03   9.2803E+04  0.000E+00  0.000E+00  0.000E+00  4.64899E+01  1.377E-01  2.000E+01  2.000E+04 -7.205E-02
   1   16    6     1     6    9.2803E+04 -9.4978E+02   9.3753E+04  0.000E+00  0.000E+00  0.000E+00  4.60137E+01  1.387E-01  2.000E+01  2.000E+04 -4.749E-02
   1   16    7     1     7    9.3753E+04 -9.4602E+02   9.4699E+04  0.000E+00  0.000E+00  0.000E+00  4.55373E+01  1.396E-01  2.000E+01  2.000E+04 -4.730E-02
   1   16    8     1     8    9.4699E+04 -9.4853E+02   9.5647E+04  0.000E+00  0.000E+00  0.000E+00  4.50609E+01  1.404E-01  2.000E+01  2.000E+04 -4.743E-02
   1   16    9     1     9    9.5647E+04 -9.4435E+02   9.6592E+04  0.000E+00  0.000E+00  0.000E+00  4.45844E+01  1.413E-01  2.000E+01  2.000E+04 -4.722E-02
   1   16   10     1    10    9.6592E+04 -9.3482E+02   9.7526E+04  0.000E+00  0.000E+00  0.000E+00  4.41080E+01  1.421E-01  2.000E+01  2.000E+04 -4.674E-02
   1   16   11     1    11    9.7526E+04 -9.4127E+02   9.8468E+04  0.000E+00  0.000E+00  0.000E+00  4.36315E+01  1.429E-01  2.000E+01  2.000E+04 -4.706E-02
   1   16   12     1    12    9.8468E+04 -1.6332E+03   1.0010E+05  0.000E+00  0.000E+00  0.000E+00  4.31554E+01  1.440E-01  2.000E+01  2.000E+04 -8.166E-02
   1   15   13     1    13    1.0010E+05 -1.5461E+03   1.0165E+05  0.000E+00  0.000E+00  0.000E+00  4.26795E+01  1.454E-01  2.000E+01  2.000E+04 -7.731E-02
   1   14   14     1    14    1.0165E+05 -1.8176E+03   1.0346E+05  0.000E+00  0.000E+00  0.000E+00  4.22037E+01  1.469E-01  2.000E+01  2.000E+04 -9.088E-02
   1   13   15     1    15    1.0346E+05 -2.1073E+03   1.0557E+05  0.000E+00  0.000E+00  0.000E+00  4.17281E+01  1.485E-01  2.000E+01  2.000E+04 -1.054E-01
   1   12   16     1    16    1.0557E+05 -2.6733E+03   1.0825E+05  0.000E+00  0.000E+00  0.000E+00  4.12528E+01  1.506E-01  2.000E+01  2.000E+04 -1.337E-01
   1   12   17     1    17    1.0825E+05 -1.6262E+03   1.0987E+05  0.000E+00  0.000E+00  0.000E+00  4.07774E+01  1.524E-01  2.000E+01  2.000E+04 -8.131E-02
   1   12   18     1    18    1.0987E+05 -1.3849E+03   1.1126E+05  0.000E+00  0.000E+00  0.000E+00  4.03014E+01  1.536E-01  2.000E+01  2.000E+04 -6.925E-02
   1   12   19     1    19    1.1126E+05 -9.9855E+02   1.1225E+05  0.000E+00  0.000E+00  0.000E+00  3.98251E+01  1.546E-01  2.000E+01  2.000E+04 -4.993E-02
   1   13   20     1    20    1.1225E+05 -3.5668E+02   1.1261E+05  0.000E+00  0.000E+00  0.000E+00  3.93484E+01  1.552E-01  2.000E+01  2.000E+04 -1.783E-02
   1   14   21     1    21    1.1261E+05 -8.1832E+02   1.1343E+05  0.000E+00  0.000E+00  0.000E+00  3.88716E+01  1.557E-01  2.000E+01  2.000E+04 -4.092E-02
   1   14   22     1    22    1.1343E+05  5.2154E+03   1.0821E+05  0.000E+00  0.000E+00  0.000E+00  3.83925E+01  1.539E-01  2.000E+01  2.000E+04  2.608E-01
   1    9   30     2     1    5.0000E+04  3.5177E+02   4.9648E+04  0.000E+00  0.000E+00  0.000E+00  4.02406E+01  1.156E-01  2.000E+01  2.000E+04  1.759E-02
   1    9   29     2     2    4.9648E+04 -3.6004E+00   4.9652E+04  0.000E+00  0.000E+00  0.000E+00  3.99904E+01  1.154E-01  2.000E+01  2.000E+04 -1.800E-04
   1    9   28     2     3    4.9652E+04 -3.7400E+02   5.0026E+04  0.000E+00  0.000E+00  0.000E+00  3.97406E+01  1.156E-01  2.000E+01  2.000E+04 -1.870E-02
   1    9   27     2     4    5.0026E+04 -1.5694E+03   5.1595E+04  0.000E+00  0.000E+00  0.000E+00  3.94920E+01  1.170E-01  2.000E+01  2.000E+04 -7.847E-02
   1   10   26     2     5    5.1595E+04 -2.2203E+02   5.1817E+04  0.000E+00  0.000E+00  0.000E+00  3.92432E+01  1.182E-01  2.000E+01  2.000E+04 -1.110E-02
   1   11   25     2     6    5.1817E+04  4.7027E+02   5.1347E+04  0.000E+00  0.000E+00  0.000E+00  3.89931E+01  1.181E-01  2.000E+01  2.000E+04  2.351E-02
   1   12   24     2     7    5.1347E+04  1.0950E+03   5.0252E+04  0.000E+00  0.000E+00  0.000E+00  3.87420E+01  1.170E-01  2.000E+01  2.000E+04  5.475E-02
   1   13   23     2     8    5.0252E+04  2.5887E+02   4.9993E+04  0.000E+00  0.000E+00  0.000E+00  3.84910E+01  1.160E-01  2.000E+01  2.000E+04  1.294E-02
   1   14   22     2     9    4.9993E+04  2.1527E+03   4.7840E+04  0.000E+00  0.000E+00  0.000E+00  3.82394E+01  1.144E-01  2.000E+01  2.000E+04  1.076E-01
   1   14   22     3     1    1.5605E+05 -8.3379E+03   1.6439E+05  0.000E+00  0.000E+00  0.000E+00  3.77148E+01  1.593E-01  2.000E+01  2.000E+04 -4.169E-01
   1   15   23     3     2    1.6439E+05 -4.4857E+02   1.6484E+05  0.000E+00  0.000E+00  0.000E+00  3.68285E+01  1.619E-01  2.000E+01  2.000E+04 -2.243E-02
   1   15   24     3     3    1.6484E+05 -1.8590E+02   1.6503E+05  0.000E+00  0.000E+00  0.000E+00  3.59398E+01  1.621E-01  2.000E+01  2.000E+04 -9.295E-03
   1   15   25     3     4    1.6503E+05 -1.4588E+02   1.6517E+05  0.000E+00  0.000E+00  0.000E+00  3.50511E+01  1.622E-01  2.000E+01  2.000E+04 -7.294E-03
   1   15   26     3     5    1.6517E+05  4.8188E+01   1.6512E+05  0.000E+00  0.000E+00  0.000E+00  3.41622E+01  1.622E-01  2.000E+01  2.000E+04  2.409E-03
   1   16   27     3     6    1.6512E+05  3.9012E+02   1.6473E+05  0.000E+00  0.000E+00  0.000E+00  3.32732E+01  1.621E-01  2.000E+01  2.000E+04  1.951E-02
   1   17   28     3     7    1.6473E+05  7.5479E+03   1.5719E+05  0.000E+00  0.000E+00  0.000E+00  3.23819E+01  1.597E-01  2.000E+01  2.000E+04  3.774E-01
   1   18   29     3     8    1.5719E+05  2.3009E+04   1.3418E+05  0.000E+00  0.000E+00  0.000E+00  3.14838E+01  1.504E-01  2.000E+01  2.000E+04  1.150E+00
   1   18   30     3     9    1.3418E+05  8.8129E+03   1.2537E+05  0.000E+00  0.000E+00  0.000E+00  3.05848E+01  1.403E-01  2.000E+01  2.000E+04  4.406E-01



1
              HEAD IN LAYER   1 AT END OF TIME STEP   1 IN STRESS PERIOD    7
  ---------------------------------------------------------------------------

          1      2      3      4      5      6      7      8      9     10
         11     12     13     14     15     16     17     18     19     20
         21     22     23     24     25     26     27     28     29     30
 .........................................................................
   1  ****** ****** ****** ****** ****** ****** ****** ****** ****** ******
      ****** ****** ****** ****** ****** ****** ****** ****** ****** ******
      ****** ****** ****** ****** ****** ****** ****** ****** ****** ******
   2  ****** ****** ****** ****** ****** ****** ****** ****** ****** ******
      ****** ****** ****** ****** ****** ****** ****** ****** ****** ******
      ****** ****** ****** ****** ****** ****** ****** ****** ****** ******
   3  ****** ****** ****** ****** ****** ****** ****** ****** ****** ******
      ****** ****** ****** ****** ****** ****** ****** ****** ****** ******
      ****** ****** ****** ****** ****** ****** ****** ****** ****** ******
   4  ****** ****** ****** ****** ****** ****** ****** ****** ****** ******
      ****** ****** ****** ****** ****** ****** ****** ****** ****** ******
      ****** ****** ****** ****** ****** ****** ****** ****** ****** ******
   5  ****** ****** ****** ****** ****** ****** ****** ****** ****** ******
      ****** ****** ****** ****** ****** ****** ****** ****** ****** ******
      ****** ****** ****** ****** ****** ****** ****** ****** ****** ******
   6  ****** ****** ****** ****** ****** ****** ****** ****** ****** ******
      ****** ****** ****** ****** ****** ****** ****** ****** ****** ******
      ****** ****** ****** ****** ****** ****** ****** ****** ****** ******
   7  ****** ****** ****** ****** ****** ****** ****** ****** ****** ******
      ****** ****** ****** ****** ****** ****** ****** ****** ****** ******
      ****** ****** ****** ****** ****** ****** ****** ****** ****** ******
   8  ****** ****** ****** ****** ****** ****** ****** ****** ****** ******
      ****** ****** ****** ****** ****** ****** ****** ****** ****** ******
      ****** ****** ****** ****** ****** ****** ****** ****** ****** ******
   9  ****** ****** ****** ****** ****** ****** ****** ****** ****** ******
      ****** ****** ****** ****** ****** ****** ****** ****** ****** ******
      ****** ****** ****** ****** ****** ****** ****** ****** ****** ******
  10  ****** ****** ****** ****** ****** ****** ****** ****** ****** ******
      ****** ****** ****** ****** ****** ****** ****** ****** ****** ******
      ****** ****** ****** ****** ****** ****** ****** ****** ****** ******
  11  ****** ****** ****** ****** ****** ****** ****** ****** ****** ******
      ****** ****** ****** ****** ****** ****** ****** ****** ****** ******
      ****** ****** ****** ****** ****** ****** ****** ****** ****** ******
  12  ****** ****** ****** ****** ****** ****** ****** ****** ****** ******
      ****** ****** ****** ****** ****** ****** ****** ****** ****** ******
      ****** ****** ****** ****** ****** ****** ****** ****** ****** ******
  13  ****** ****** ****** ****** ****** ****** ****** ****** ****** ******
      ****** ****** ****** ****** ****** ****** ****** ****** ****** ******
      ****** ****** ****** ****** ****** ****** ****** ****** ****** ******
  14  ****** ****** ****** ****** ****** ****** ****** ****** ****** ******
      ****** ****** ****** ****** ****** ****** ****** ****** ****** ******
      ****** ****** ****** ****** ****** ****** ****** ****** ****** ******
  15  ****** ****** ****** ****** ****** ****** ****** ****** ****** ******
      ****** ****** ****** ****** ****** ****** ****** ****** ****** ******
      ****** ****** ****** ****** ****** ****** ****** ****** ****** ******
  16  ****** ****** ****** ****** ****** ****** ****** ****** ****** ******
      ****** ****** ****** ****** ****** ****** ****** ****** ****** ******
      ****** ****** ****** ****** ****** ****** ****** ****** ****** ******
  17  ****** ****** ****** ****** ****** ****** ****** ****** ****** ******
      ****** ****** ****** ****** ****** ****** ****** ****** ****** ******
      ****** ****** ****** ****** ****** ****** ****** ****** ****** ******
  18  ****** ****** ****** ****** ****** ****** ****** ****** ****** ******
      ****** ****** ****** ****** ****** ****** ****** ****** ****** ******
      ****** ****** ****** ****** ****** ****** ****** ****** ****** ******
  19  ****** ****** ****** ****** ****** ****** ****** ****** ****** ******
      ****** ****** ****** ****** ****** ****** ****** ****** ****** ******
      ****** ****** ****** ****** ****** ****** ****** ****** ****** ******
  20  ****** ****** ****** ****** ****** ****** ****** ****** ****** ******
      ****** ****** ****** ****** ****** ****** ****** ****** ****** ******
      ****** ****** ****** ****** ****** ****** ****** ****** ****** ******
  21  ****** ****** ****** ****** ****** ****** ****** ****** ****** ******
      ****** ****** ****** ****** ****** ****** ****** ****** ****** ******
      ****** ****** ****** ****** ****** ****** ****** ****** ****** ******
  22  ****** ****** ****** ****** ****** ****** ****** ****** ****** ******
      ****** ****** ****** ****** ****** ****** ****** ****** ****** ******
      ****** ****** ****** ****** ****** ****** ****** ****** ****** ******
  23  ****** ****** ****** ****** ****** ****** ****** ****** ****** ******
      ****** ****** ****** ****** ****** ****** ****** ****** ****** ******
      ****** ****** ****** ****** ****** ****** ****** ****** ****** ******
  24  ****** ****** ****** ****** ****** ****** ****** ****** ****** ******
      ****** ****** ****** ****** ****** ****** ****** ****** ****** ******
      ****** ****** ****** ****** ****** ****** ****** ****** ****** ******
  25  ****** ****** ****** ****** ****** ****** ****** ****** ****** ******
      ****** ****** ****** ****** ****** ****** ****** ****** ****** ******
      ****** ****** ****** ****** ****** ****** ****** ****** ****** ******

 HEAD WILL BE SAVED ON UNIT   51 AT END OF TIME STEP    1, STRESS PERIOD    7
1
  VOLUMETRIC BUDGET FOR ENTIRE MODEL AT END OF TIME STEP    1, STRESS PERIOD   7
  ------------------------------------------------------------------------------

     CUMULATIVE VOLUMES      L**3       RATES FOR THIS TIME STEP      L**3/T
     ------------------                 ------------------------

           IN:                                      IN:
           ---                                      ---
             STORAGE =    32080643.4323               STORAGE =       22245.2975
       CONSTANT HEAD =    15425180.2085         CONSTANT HEAD =       31740.7691
               WELLS =           0.0000                 WELLS =           0.0000
            RECHARGE =    15097200.0000              RECHARGE =           0.0000
      STREAM LEAKAGE =    35906681.4020        STREAM LEAKAGE =       62955.3441

            TOTAL IN =    98509705.0428              TOTAL IN =      116941.4107

          OUT:                                     OUT:
          ----                                     ----
             STORAGE =      840360.6922               STORAGE =           0.0000
       CONSTANT HEAD =           0.0000         CONSTANT HEAD =           0.0000
               WELLS =    50238643.4062                 WELLS =       78620.7252
            RECHARGE =           0.0000              RECHARGE =           0.0000
      STREAM LEAKAGE =    47430702.9805        STREAM LEAKAGE =       38320.6884

           TOTAL OUT =    98509707.0789             TOTAL OUT =      116941.4136

            IN - OUT =          -2.0361              IN - OUT =      -2.9086E-03

 PERCENT DISCREPANCY =          -0.00     PERCENT DISCREPANCY =          -0.00






         TIME SUMMARY AT END OF TIME STEP    1 IN STRESS PERIOD    7
                    SECONDS     MINUTES      HOURS       DAYS        YEARS
                    -----------------------------------------------------------
   TIME STEP LENGTH 7.86240E+06 1.31040E+05  2184.0      91.000     0.24914    
 STRESS PERIOD TIME 7.86240E+06 1.31040E+05  2184.0      91.000     0.24914    
         TOTAL TIME 5.52096E+07 9.20160E+05  15336.      639.00      1.7495    
1
1
                            STRESS PERIOD NO.    8, LENGTH =   91.00000    
                            -----------------------------------------------

                              NUMBER OF TIME STEPS =     1

                               MULTIPLIER FOR DELT =     1.500

                            INITIAL TIME STEP SIZE =   91.00000    

 WELL NO.  LAYER   ROW   COL   STRESS RATE         
 --------------------------------------------------
      1      1     14      6       0.000    
      2      1      3      9       0.000    
      3      1     20     10       0.000    
      4      1     14     20       0.000    
      5      1     15      4     -0.1412E+05
      6      1     11     22     -0.1126E+05
      7      1     18     29     -0.4576E+05
      8      1     14     29      -7478.    

      8 WELLS

                 RECHARGE =  1.000000E-03

 REUSING STREAM SEGMENT DATA FROM LAST STRESS PERIOD
 
 SOLVING FOR HEAD 


     7 CALLS TO PCG ROUTINE FOR TIME STEP   1 IN STRESS PERIOD    8
    29 TOTAL ITERATIONS

 OUTPUT CONTROL FOR STRESS PERIOD    8   TIME STEP    1
    SAVE BUDGET
    SAVE HEAD FOR ALL LAYERS
    PRINT HEAD FOR ALL LAYERS
 UBDSV2 SAVING "STREAMFLOW OUT  " ON UNIT  50 AT TIME STEP  1, STRESS PERIOD   8



 STREAM LISTING     PERIOD      8   STEP        1

 LAYER ROW COL. STREAM  RCH.  FLOW INTO     FLOW TO   FLOW OUT OF   OVRLND.     DIRECT     STREAM       STREAM     STREAM     STREAM   STREAMBED  STREAMBED
                SEG.NO.  NO.  STRM. RCH.    AQUIFER    STRM. RCH.    RUNOFF     PRECIP       ET          HEAD       DEPTH      WIDTH   CONDCTNC.   GRADIENT

   1   13    1     1     1    1.0000E+05 -1.8803E+03   1.0188E+05  0.000E+00  0.000E+00  0.000E+00  4.84068E+01  1.455E-01  2.000E+01  2.000E+04 -9.401E-02
   1   13    2     1     2    1.0188E+05 -2.8505E+03   1.0473E+05  0.000E+00  0.000E+00  0.000E+00  4.79316E+01  1.475E-01  2.000E+01  2.000E+04 -1.425E-01
   1   14    3     1     3    1.0473E+05 -4.5782E+02   1.0519E+05  0.000E+00  0.000E+00  0.000E+00  4.74557E+01  1.489E-01  2.000E+01  2.000E+04 -2.289E-02
   1   15    4     1     4    1.0519E+05  1.3534E+04   9.1654E+04  0.000E+00  0.000E+00  0.000E+00  4.69728E+01  1.433E-01  2.000E+01  2.000E+04  6.767E-01
   1   16    5     1     5    9.1654E+04 -1.6159E+03   9.3270E+04  0.000E+00  0.000E+00  0.000E+00  4.64903E+01  1.380E-01  2.000E+01  2.000E+04 -8.080E-02
   1   16    6     1     6    9.3270E+04 -1.0576E+03   9.4328E+04  0.000E+00  0.000E+00  0.000E+00  4.60142E+01  1.392E-01  2.000E+01  2.000E+04 -5.288E-02
   1   16    7     1     7    9.4328E+04 -1.0488E+03   9.5377E+04  0.000E+00  0.000E+00  0.000E+00  4.55379E+01  1.401E-01  2.000E+01  2.000E+04 -5.244E-02
   1   16    8     1     8    9.5377E+04 -1.0505E+03   9.6427E+04  0.000E+00  0.000E+00  0.000E+00  4.50615E+01  1.411E-01  2.000E+01  2.000E+04 -5.252E-02
   1   16    9     1     9    9.6427E+04 -1.0474E+03   9.7475E+04  0.000E+00  0.000E+00  0.000E+00  4.45852E+01  1.420E-01  2.000E+01  2.000E+04 -5.237E-02
   1   16   10     1    10    9.7475E+04 -1.0402E+03   9.8515E+04  0.000E+00  0.000E+00  0.000E+00  4.41088E+01  1.429E-01  2.000E+01  2.000E+04 -5.201E-02
   1   16   11     1    11    9.8515E+04 -1.0495E+03   9.9564E+04  0.000E+00  0.000E+00  0.000E+00  4.36325E+01  1.438E-01  2.000E+01  2.000E+04 -5.248E-02
   1   16   12     1    12    9.9564E+04 -1.7952E+03   1.0136E+05  0.000E+00  0.000E+00  0.000E+00  4.31564E+01  1.451E-01  2.000E+01  2.000E+04 -8.976E-02
   1   15   13     1    13    1.0136E+05 -1.7160E+03   1.0308E+05  0.000E+00  0.000E+00  0.000E+00  4.26807E+01  1.466E-01  2.000E+01  2.000E+04 -8.580E-02
   1   14   14     1    14    1.0308E+05 -1.9811E+03   1.0506E+05  0.000E+00  0.000E+00  0.000E+00  4.22050E+01  1.482E-01  2.000E+01  2.000E+04 -9.906E-02
   1   13   15     1    15    1.0506E+05 -2.2585E+03   1.0732E+05  0.000E+00  0.000E+00  0.000E+00  4.17295E+01  1.500E-01  2.000E+01  2.000E+04 -1.129E-01
   1   12   16     1    16    1.0732E+05 -2.7877E+03   1.1010E+05  0.000E+00  0.000E+00  0.000E+00  4.12544E+01  1.521E-01  2.000E+01  2.000E+04 -1.394E-01
   1   12   17     1    17    1.1010E+05 -1.7389E+03   1.1184E+05  0.000E+00  0.000E+00  0.000E+00  4.07790E+01  1.540E-01  2.000E+01  2.000E+04 -8.695E-02
   1   12   18     1    18    1.1184E+05 -1.5041E+03   1.1335E+05  0.000E+00  0.000E+00  0.000E+00  4.03030E+01  1.553E-01  2.000E+01  2.000E+04 -7.521E-02
   1   12   19     1    19    1.1335E+05 -1.1489E+03   1.1449E+05  0.000E+00  0.000E+00  0.000E+00  3.98269E+01  1.564E-01  2.000E+01  2.000E+04 -5.744E-02
   1   13   20     1    20    1.1449E+05 -5.3492E+02   1.1503E+05  0.000E+00  0.000E+00  0.000E+00  3.93503E+01  1.571E-01  2.000E+01  2.000E+04 -2.675E-02
   1   14   21     1    21    1.1503E+05 -9.7576E+02   1.1601E+05  0.000E+00  0.000E+00  0.000E+00  3.88736E+01  1.577E-01  2.000E+01  2.000E+04 -4.879E-02
   1   14   22     1    22    1.1601E+05  5.1678E+03   1.1084E+05  0.000E+00  0.000E+00  0.000E+00  3.83946E+01  1.560E-01  2.000E+01  2.000E+04  2.584E-01
   1    9   30     2     1    5.0000E+04  1.8870E+02   4.9811E+04  0.000E+00  0.000E+00  0.000E+00  4.02407E+01  1.157E-01  2.000E+01  2.000E+04  9.435E-03
   1    9   29     2     2    4.9811E+04 -1.6394E+02   4.9975E+04  0.000E+00  0.000E+00  0.000E+00  3.99907E+01  1.157E-01  2.000E+01  2.000E+04 -8.197E-03
   1    9   28     2     3    4.9975E+04 -5.2893E+02   5.0504E+04  0.000E+00  0.000E+00  0.000E+00  3.97412E+01  1.162E-01  2.000E+01  2.000E+04 -2.645E-02
   1    9   27     2     4    5.0504E+04 -1.7482E+03   5.2252E+04  0.000E+00  0.000E+00  0.000E+00  3.94928E+01  1.178E-01  2.000E+01  2.000E+04 -8.741E-02
   1   10   26     2     5    5.2252E+04 -4.2750E+02   5.2680E+04  0.000E+00  0.000E+00  0.000E+00  3.92443E+01  1.193E-01  2.000E+01  2.000E+04 -2.137E-02
   1   11   25     2     6    5.2680E+04  2.6632E+02   5.2414E+04  0.000E+00  0.000E+00  0.000E+00  3.89944E+01  1.194E-01  2.000E+01  2.000E+04  1.332E-02
   1   12   24     2     7    5.2414E+04  9.0970E+02   5.1504E+04  0.000E+00  0.000E+00  0.000E+00  3.87436E+01  1.186E-01  2.000E+01  2.000E+04  4.548E-02
   1   13   23     2     8    5.1504E+04  1.8453E+02   5.1319E+04  0.000E+00  0.000E+00  0.000E+00  3.84928E+01  1.178E-01  2.000E+01  2.000E+04  9.226E-03
   1   14   22     2     9    5.1319E+04  2.0997E+03   4.9220E+04  0.000E+00  0.000E+00  0.000E+00  3.82412E+01  1.162E-01  2.000E+01  2.000E+04  1.050E-01
   1   14   22     3     1    1.6006E+05 -8.3808E+03   1.6844E+05  0.000E+00  0.000E+00  0.000E+00  3.77172E+01  1.617E-01  2.000E+01  2.000E+04 -4.190E-01
   1   15   23     3     2    1.6844E+05 -5.1231E+02   1.6895E+05  0.000E+00  0.000E+00  0.000E+00  3.68309E+01  1.643E-01  2.000E+01  2.000E+04 -2.562E-02
   1   15   24     3     3    1.6895E+05 -2.4600E+02   1.6920E+05  0.000E+00  0.000E+00  0.000E+00  3.59423E+01  1.645E-01  2.000E+01  2.000E+04 -1.230E-02
   1   15   25     3     4    1.6920E+05 -2.0761E+02   1.6940E+05  0.000E+00  0.000E+00  0.000E+00  3.50535E+01  1.646E-01  2.000E+01  2.000E+04 -1.038E-02
   1   15   26     3     5    1.6940E+05 -2.5887E+01   1.6943E+05  0.000E+00  0.000E+00  0.000E+00  3.41647E+01  1.647E-01  2.000E+01  2.000E+04 -1.294E-03
   1   16   27     3     6    1.6943E+05  3.0879E+02   1.6912E+05  0.000E+00  0.000E+00  0.000E+00  3.32757E+01  1.646E-01  2.000E+01  2.000E+04  1.544E-02
   1   17   28     3     7    1.6912E+05  7.3064E+03   1.6181E+05  0.000E+00  0.000E+00  0.000E+00  3.23846E+01  1.624E-01  2.000E+01  2.000E+04  3.653E-01
   1   18   29     3     8    1.6181E+05  2.3065E+04   1.3875E+05  0.000E+00  0.000E+00  0.000E+00  3.14866E+01  1.533E-01  2.000E+01  2.000E+04  1.153E+00
   1   18   30     3     9    1.3875E+05  8.5947E+03   1.3015E+05  0.000E+00  0.000E+00  0.000E+00  3.05878E+01  1.434E-01  2.000E+01  2.000E+04  4.297E-01



1
              HEAD IN LAYER   1 AT END OF TIME STEP   1 IN STRESS PERIOD    8
  ---------------------------------------------------------------------------

          1      2      3      4      5      6      7      8      9     10
         11     12     13     14     15     16     17     18     19     20
         21     22     23     24     25     26     27     28     29     30
 .........................................................................
   1  ****** ****** ****** ****** ****** ****** ****** ****** ****** ******
      ****** ****** ****** ****** ****** ****** ****** ****** ****** ******
      ****** ****** ****** ****** ****** ****** ****** ****** ****** ******
   2  ****** ****** ****** ****** ****** ****** ****** ****** ****** ******
      ****** ****** ****** ****** ****** ****** ****** ****** ****** ******
      ****** ****** ****** ****** ****** ****** ****** ****** ****** ******
   3  ****** ****** ****** ****** ****** ****** ****** ****** ****** ******
      ****** ****** ****** ****** ****** ****** ****** ****** ****** ******
      ****** ****** ****** ****** ****** ****** ****** ****** ****** ******
   4  ****** ****** ****** ****** ****** ****** ****** ****** ****** ******
      ****** ****** ****** ****** ****** ****** ****** ****** ****** ******
      ****** ****** ****** ****** ****** ****** ****** ****** ****** ******
   5  ****** ****** ****** ****** ****** ****** ****** ****** ****** ******
      ****** ****** ****** ****** ****** ****** ****** ****** ****** ******
      ****** ****** ****** ****** ****** ****** ****** ****** ****** ******
   6  ****** ****** ****** ****** ****** ****** ****** ****** ****** ******
      ****** ****** ****** ****** ****** ****** ****** ****** ****** ******
      ****** ****** ****** ****** ****** ****** ****** ****** ****** ******
   7  ****** ****** ****** ****** ****** ****** ****** ****** ****** ******
      ****** ****** ****** ****** ****** ****** ****** ****** ****** ******
      ****** ****** ****** ****** ****** ****** ****** ****** ****** ******
   8  ****** ****** ****** ****** ****** ****** ****** ****** ****** ******
      ****** ****** ****** ****** ****** ****** ****** ****** ****** ******
      ****** ****** ****** ****** ****** ****** ****** ****** ****** ******
   9  ****** ****** ****** ****** ****** ****** ****** ****** ****** ******
      ****** ****** ****** ****** ****** ****** ****** ****** ****** ******
      ****** ****** ****** ****** ****** ****** ****** ****** ****** ******
  10  ****** ****** ****** ****** ****** ****** ****** ****** ****** ******
      ****** ****** ****** ****** ****** ****** ****** ****** ****** ******
      ****** ****** ****** ****** ****** ****** ****** ****** ****** ******
  11  ****** ****** ****** ****** ****** ****** ****** ****** ****** ******
      ****** ****** ****** ****** ****** ****** ****** ****** ****** ******
      ****** ****** ****** ****** ****** ****** ****** ****** ****** ******
  12  ****** ****** ****** ****** ****** ****** ****** ****** ****** ******
      ****** ****** ****** ****** ****** ****** ****** ****** ****** ******
      ****** ****** ****** ****** ****** ****** ****** ****** ****** ******
  13  ****** ****** ****** ****** ****** ****** ****** ****** ****** ******
      ****** ****** ****** ****** ****** ****** ****** ****** ****** ******
      ****** ****** ****** ****** ****** ****** ****** ****** ****** ******
  14  ****** ****** ****** ****** ****** ****** ****** ****** ****** ******
      ****** ****** ****** ****** ****** ****** ****** ****** ****** ******
      ****** ****** ****** ****** ****** ****** ****** ****** ****** ******
  15  ****** ****** ****** ****** ****** ****** ****** ****** ****** ******
      ****** ****** ****** ****** ****** ****** ****** ****** ****** ******
      ****** ****** ****** ****** ****** ****** ****** ****** ****** ******
  16  ****** ****** ****** ****** ****** ****** ****** ****** ****** ******
      ****** ****** ****** ****** ****** ****** ****** ****** ****** ******
      ****** ****** ****** ****** ****** ****** ****** ****** ****** ******
  17  ****** ****** ****** ****** ****** ****** ****** ****** ****** ******
      ****** ****** ****** ****** ****** ****** ****** ****** ****** ******
      ****** ****** ****** ****** ****** ****** ****** ****** ****** ******
  18  ****** ****** ****** ****** ****** ****** ****** ****** ****** ******
      ****** ****** ****** ****** ****** ****** ****** ****** ****** ******
      ****** ****** ****** ****** ****** ****** ****** ****** ****** ******
  19  ****** ****** ****** ****** ****** ****** ****** ****** ****** ******
      ****** ****** ****** ****** ****** ****** ****** ****** ****** ******
      ****** ****** ****** ****** ****** ****** ****** ****** ****** ******
  20  ****** ****** ****** ****** ****** ****** ****** ****** ****** ******
      ****** ****** ****** ****** ****** ****** ****** ****** ****** ******
      ****** ****** ****** ****** ****** ****** ****** ****** ****** ******
  21  ****** ****** ****** ****** ****** ****** ****** ****** ****** ******
      ****** ****** ****** ****** ****** ****** ****** ****** ****** ******
      ****** ****** ****** ****** ****** ****** ****** ****** ****** ******
  22  ****** ****** ****** ****** ****** ****** ****** ****** ****** ******
      ****** ****** ****** ****** ****** ****** ****** ****** ****** ******
      ****** ****** ****** ****** ****** ****** ****** ****** ****** ******
  23  ****** ****** ****** ****** ****** ****** ****** ****** ****** ******
      ****** ****** ****** ****** ****** ****** ****** ****** ****** ******
      ****** ****** ****** ****** ****** ****** ****** ****** ****** ******
  24  ****** ****** ****** ****** ****** ****** ****** ****** ****** ******
      ****** ****** ****** ****** ****** ****** ****** ****** ****** ******
      ****** ****** ****** ****** ****** ****** ****** ****** ****** ******
  25  ****** ****** ****** ****** ****** ****** ****** ****** ****** ******
      ****** ****** ****** ****** ****** ****** ****** ****** ****** ******
      ****** ****** ****** ****** ****** ****** ****** ****** ****** ******

 HEAD WILL BE SAVED ON UNIT   51 AT END OF TIME STEP    1, STRESS PERIOD    8
1
  VOLUMETRIC BUDGET FOR ENTIRE MODEL AT END OF TIME STEP    1, STRESS PERIOD   8
  ------------------------------------------------------------------------------

     CUMULATIVE VOLUMES      L**3       RATES FOR THIS TIME STEP      L**3/T
     ------------------                 ------------------------

           IN:                                      IN:
           ---                                      ---
             STORAGE =    32200860.9784               STORAGE =        1321.0719
       CONSTANT HEAD =    18285202.8789         CONSTANT HEAD =       31428.8206
               WELLS =           0.0000                 WELLS =           0.0000
            RECHARGE =    17608800.0000              RECHARGE =       27600.0000
      STREAM LEAKAGE =    41514670.9328        STREAM LEAKAGE =       61626.2586

            TOTAL IN =   109609534.7902              TOTAL IN =      121976.1511

          OUT:                                     OUT:
          ----                                     ----
             STORAGE =      983662.9399               STORAGE =        1574.7500
       CONSTANT HEAD =           0.0000         CONSTANT HEAD =           0.0000
               WELLS =    57393129.3999                 WELLS =       78620.7252
            RECHARGE =           0.0000              RECHARGE =           0.0000
      STREAM LEAKAGE =    51232744.3387        STREAM LEAKAGE =       41780.6743

           TOTAL OUT =   109609536.6785             TOTAL OUT =      121976.1494

            IN - OUT =          -1.8883              IN - OUT =       1.6243E-03

 PERCENT DISCREPANCY =          -0.00     PERCENT DISCREPANCY =           0.00






         TIME SUMMARY AT END OF TIME STEP    1 IN STRESS PERIOD    8
                    SECONDS     MINUTES      HOURS       DAYS        YEARS
                    -----------------------------------------------------------
   TIME STEP LENGTH 7.86240E+06 1.31040E+05  2184.0      91.000     0.24914    
 STRESS PERIOD TIME 7.86240E+06 1.31040E+05  2184.0      91.000     0.24914    
         TOTAL TIME 6.30720E+07 1.05120E+06  17520.      730.00      1.9986    
1
1
                            STRESS PERIOD NO.    9, LENGTH =   92.00000    
                            -----------------------------------------------

                              NUMBER OF TIME STEPS =     1

                               MULTIPLIER FOR DELT =     1.500

                            INITIAL TIME STEP SIZE =   92.00000    

 WELL NO.  LAYER   ROW   COL   STRESS RATE         
 --------------------------------------------------
      1      1     14      6       0.000    
      2      1      3      9       0.000    
      3      1     20     10       0.000    
      4      1     14     20       0.000    
      5      1     15      4     -0.1412E+05
      6      1     11     22     -0.1126E+05
      7      1     18     29     -0.4576E+05
      8      1     14     29      -7478.    

      8 WELLS

                 RECHARGE =  5.000000E-04

 REUSING STREAM SEGMENT DATA FROM LAST STRESS PERIOD
 
 SOLVING FOR HEAD 


     7 CALLS TO PCG ROUTINE FOR TIME STEP   1 IN STRESS PERIOD    9
    29 TOTAL ITERATIONS

 OUTPUT CONTROL FOR STRESS PERIOD    9   TIME STEP    1
    SAVE BUDGET
    SAVE HEAD FOR ALL LAYERS
    PRINT HEAD FOR ALL LAYERS
 UBDSV2 SAVING "STREAMFLOW OUT  " ON UNIT  50 AT TIME STEP  1, STRESS PERIOD   9



 STREAM LISTING     PERIOD      9   STEP        1

 LAYER ROW COL. STREAM  RCH.  FLOW INTO     FLOW TO   FLOW OUT OF   OVRLND.     DIRECT     STREAM       STREAM     STREAM     STREAM   STREAMBED  STREAMBED
                SEG.NO.  NO.  STRM. RCH.    AQUIFER    STRM. RCH.    RUNOFF     PRECIP       ET          HEAD       DEPTH      WIDTH   CONDCTNC.   GRADIENT

   1   13    1     1     1    1.0000E+05 -1.6699E+03   1.0167E+05  0.000E+00  0.000E+00  0.000E+00  4.84067E+01  1.454E-01  2.000E+01  2.000E+04 -8.349E-02
   1   13    2     1     2    1.0167E+05 -2.6123E+03   1.0428E+05  0.000E+00  0.000E+00  0.000E+00  4.79313E+01  1.472E-01  2.000E+01  2.000E+04 -1.306E-01
   1   14    3     1     3    1.0428E+05 -3.8769E+02   1.0467E+05  0.000E+00  0.000E+00  0.000E+00  4.74553E+01  1.485E-01  2.000E+01  2.000E+04 -1.938E-02
   1   15    4     1     4    1.0467E+05  1.3605E+04   9.1064E+04  0.000E+00  0.000E+00  0.000E+00  4.69723E+01  1.428E-01  2.000E+01  2.000E+04  6.803E-01
   1   16    5     1     5    9.1064E+04 -1.4242E+03   9.2489E+04  0.000E+00  0.000E+00  0.000E+00  4.64897E+01  1.374E-01  2.000E+01  2.000E+04 -7.121E-02
   1   16    6     1     6    9.2489E+04 -9.3825E+02   9.3427E+04  0.000E+00  0.000E+00  0.000E+00  4.60135E+01  1.385E-01  2.000E+01  2.000E+04 -4.691E-02
   1   16    7     1     7    9.3427E+04 -9.3325E+02   9.4360E+04  0.000E+00  0.000E+00  0.000E+00  4.55370E+01  1.393E-01  2.000E+01  2.000E+04 -4.666E-02
   1   16    8     1     8    9.4360E+04 -9.3640E+02   9.5297E+04  0.000E+00  0.000E+00  0.000E+00  4.50606E+01  1.401E-01  2.000E+01  2.000E+04 -4.682E-02
   1   16    9     1     9    9.5297E+04 -9.3483E+02   9.6231E+04  0.000E+00  0.000E+00  0.000E+00  4.45841E+01  1.409E-01  2.000E+01  2.000E+04 -4.674E-02
   1   16   10     1    10    9.6231E+04 -9.2955E+02   9.7161E+04  0.000E+00  0.000E+00  0.000E+00  4.41077E+01  1.418E-01  2.000E+01  2.000E+04 -4.648E-02
   1   16   11     1    11    9.7161E+04 -9.3969E+02   9.8101E+04  0.000E+00  0.000E+00  0.000E+00  4.36312E+01  1.426E-01  2.000E+01  2.000E+04 -4.698E-02
   1   16   12     1    12    9.8101E+04 -1.6073E+03   9.9708E+04  0.000E+00  0.000E+00  0.000E+00  4.31551E+01  1.437E-01  2.000E+01  2.000E+04 -8.036E-02
   1   15   13     1    13    9.9708E+04 -1.5076E+03   1.0122E+05  0.000E+00  0.000E+00  0.000E+00  4.26791E+01  1.451E-01  2.000E+01  2.000E+04 -7.538E-02
   1   14   14     1    14    1.0122E+05 -1.7600E+03   1.0298E+05  0.000E+00  0.000E+00  0.000E+00  4.22033E+01  1.465E-01  2.000E+01  2.000E+04 -8.800E-02
   1   13   15     1    15    1.0298E+05 -2.0321E+03   1.0501E+05  0.000E+00  0.000E+00  0.000E+00  4.17276E+01  1.481E-01  2.000E+01  2.000E+04 -1.016E-01
   1   12   16     1    16    1.0501E+05 -2.5542E+03   1.0756E+05  0.000E+00  0.000E+00  0.000E+00  4.12523E+01  1.500E-01  2.000E+01  2.000E+04 -1.277E-01
   1   12   17     1    17    1.0756E+05 -1.5779E+03   1.0914E+05  0.000E+00  0.000E+00  0.000E+00  4.07768E+01  1.518E-01  2.000E+01  2.000E+04 -7.889E-02
   1   12   18     1    18    1.0914E+05 -1.3502E+03   1.1049E+05  0.000E+00  0.000E+00  0.000E+00  4.03007E+01  1.530E-01  2.000E+01  2.000E+04 -6.751E-02
   1   12   19     1    19    1.1049E+05 -9.6365E+02   1.1145E+05  0.000E+00  0.000E+00  0.000E+00  3.98244E+01  1.540E-01  2.000E+01  2.000E+04 -4.818E-02
   1   13   20     1    20    1.1145E+05 -3.6176E+02   1.1182E+05  0.000E+00  0.000E+00  0.000E+00  3.93477E+01  1.545E-01  2.000E+01  2.000E+04 -1.809E-02
   1   14   21     1    21    1.1182E+05 -8.0345E+02   1.1262E+05  0.000E+00  0.000E+00  0.000E+00  3.88709E+01  1.550E-01  2.000E+01  2.000E+04 -4.017E-02
   1   14   22     1    22    1.1262E+05  5.2063E+03   1.0741E+05  0.000E+00  0.000E+00  0.000E+00  3.83918E+01  1.532E-01  2.000E+01  2.000E+04  2.603E-01
   1    9   30     2     1    5.0000E+04  3.1251E+02   4.9687E+04  0.000E+00  0.000E+00  0.000E+00  4.02406E+01  1.156E-01  2.000E+01  2.000E+04  1.563E-02
   1    9   29     2     2    4.9687E+04 -4.0029E+01   4.9728E+04  0.000E+00  0.000E+00  0.000E+00  3.99905E+01  1.155E-01  2.000E+01  2.000E+04 -2.001E-03
   1    9   28     2     3    4.9728E+04 -4.0338E+02   5.0131E+04  0.000E+00  0.000E+00  0.000E+00  3.97408E+01  1.158E-01  2.000E+01  2.000E+04 -2.017E-02
   1    9   27     2     4    5.0131E+04 -1.5724E+03   5.1703E+04  0.000E+00  0.000E+00  0.000E+00  3.94921E+01  1.171E-01  2.000E+01  2.000E+04 -7.862E-02
   1   10   26     2     5    5.1703E+04 -2.5404E+02   5.1957E+04  0.000E+00  0.000E+00  0.000E+00  3.92434E+01  1.184E-01  2.000E+01  2.000E+04 -1.270E-02
   1   11   25     2     6    5.1957E+04  4.3221E+02   5.1525E+04  0.000E+00  0.000E+00  0.000E+00  3.89933E+01  1.183E-01  2.000E+01  2.000E+04  2.161E-02
   1   12   24     2     7    5.1525E+04  1.0618E+03   5.0463E+04  0.000E+00  0.000E+00  0.000E+00  3.87422E+01  1.172E-01  2.000E+01  2.000E+04  5.309E-02
   1   13   23     2     8    5.0463E+04  2.3151E+02   5.0232E+04  0.000E+00  0.000E+00  0.000E+00  3.84913E+01  1.163E-01  2.000E+01  2.000E+04  1.158E-02
   1   14   22     2     9    5.0232E+04  2.1636E+03   4.8068E+04  0.000E+00  0.000E+00  0.000E+00  3.82397E+01  1.147E-01  2.000E+01  2.000E+04  1.082E-01
   1   14   22     3     1    1.5548E+05 -8.3403E+03   1.6382E+05  0.000E+00  0.000E+00  0.000E+00  3.77145E+01  1.589E-01  2.000E+01  2.000E+04 -4.170E-01
   1   15   23     3     2    1.6382E+05 -4.5943E+02   1.6428E+05  0.000E+00  0.000E+00  0.000E+00  3.68282E+01  1.615E-01  2.000E+01  2.000E+04 -2.297E-02
   1   15   24     3     3    1.6428E+05 -2.0272E+02   1.6448E+05  0.000E+00  0.000E+00  0.000E+00  3.59395E+01  1.617E-01  2.000E+01  2.000E+04 -1.014E-02
   1   15   25     3     4    1.6448E+05 -1.6400E+02   1.6465E+05  0.000E+00  0.000E+00  0.000E+00  3.50507E+01  1.618E-01  2.000E+01  2.000E+04 -8.200E-03
   1   15   26     3     5    1.6465E+05  2.2387E+01   1.6462E+05  0.000E+00  0.000E+00  0.000E+00  3.41619E+01  1.619E-01  2.000E+01  2.000E+04  1.119E-03
   1   16   27     3     6    1.6462E+05  3.6723E+02   1.6426E+05  0.000E+00  0.000E+00  0.000E+00  3.32729E+01  1.618E-01  2.000E+01  2.000E+04  1.836E-02
   1   17   28     3     7    1.6426E+05  7.5297E+03   1.5673E+05  0.000E+00  0.000E+00  0.000E+00  3.23817E+01  1.594E-01  2.000E+01  2.000E+04  3.765E-01
   1   18   29     3     8    1.5673E+05  2.3003E+04   1.3372E+05  0.000E+00  0.000E+00  0.000E+00  3.14835E+01  1.502E-01  2.000E+01  2.000E+04  1.150E+00
   1   18   30     3     9    1.3372E+05  8.8412E+03   1.2488E+05  0.000E+00  0.000E+00  0.000E+00  3.05845E+01  1.400E-01  2.000E+01  2.000E+04  4.421E-01



1
              HEAD IN LAYER   1 AT END OF TIME STEP   1 IN STRESS PERIOD    9
  ---------------------------------------------------------------------------

          1      2      3      4      5      6      7      8      9     10
         11     12     13     14     15     16     17     18     19     20
         21     22     23     24     25     26     27     28     29     30
 .........................................................................
   1  ****** ****** ****** ****** ****** ****** ****** ****** ****** ******
      ****** ****** ****** ****** ****** ****** ****** ****** ****** ******
      ****** ****** ****** ****** ****** ****** ****** ****** ****** ******
   2  ****** ****** ****** ****** ****** ****** ****** ****** ****** ******
      ****** ****** ****** ****** ****** ****** ****** ****** ****** ******
      ****** ****** ****** ****** ****** ****** ****** ****** ****** ******
   3  ****** ****** ****** ****** ****** ****** ****** ****** ****** ******
      ****** ****** ****** ****** ****** ****** ****** ****** ****** ******
      ****** ****** ****** ****** ****** ****** ****** ****** ****** ******
   4  ****** ****** ****** ****** ****** ****** ****** ****** ****** ******
      ****** ****** ****** ****** ****** ****** ****** ****** ****** ******
      ****** ****** ****** ****** ****** ****** ****** ****** ****** ******
   5  ****** ****** ****** ****** ****** ****** ****** ****** ****** ******
      ****** ****** ****** ****** ****** ****** ****** ****** ****** ******
      ****** ****** ****** ****** ****** ****** ****** ****** ****** ******
   6  ****** ****** ****** ****** ****** ****** ****** ****** ****** ******
      ****** ****** ****** ****** ****** ****** ****** ****** ****** ******
      ****** ****** ****** ****** ****** ****** ****** ****** ****** ******
   7  ****** ****** ****** ****** ****** ****** ****** ****** ****** ******
      ****** ****** ****** ****** ****** ****** ****** ****** ****** ******
      ****** ****** ****** ****** ****** ****** ****** ****** ****** ******
   8  ****** ****** ****** ****** ****** ****** ****** ****** ****** ******
      ****** ****** ****** ****** ****** ****** ****** ****** ****** ******
      ****** ****** ****** ****** ****** ****** ****** ****** ****** ******
   9  ****** ****** ****** ****** ****** ****** ****** ****** ****** ******
      ****** ****** ****** ****** ****** ****** ****** ****** ****** ******
      ****** ****** ****** ****** ****** ****** ****** ****** ****** ******
  10  ****** ****** ****** ****** ****** ****** ****** ****** ****** ******
      ****** ****** ****** ****** ****** ****** ****** ****** ****** ******
      ****** ****** ****** ****** ****** ****** ****** ****** ****** ******
  11  ****** ****** ****** ****** ****** ****** ****** ****** ****** ******
      ****** ****** ****** ****** ****** ****** ****** ****** ****** ******
      ****** ****** ****** ****** ****** ****** ****** ****** ****** ******
  12  ****** ****** ****** ****** ****** ****** ****** ****** ****** ******
      ****** ****** ****** ****** ****** ****** ****** ****** ****** ******
      ****** ****** ****** ****** ****** ****** ****** ****** ****** ******
  13  ****** ****** ****** ****** ****** ****** ****** ****** ****** ******
      ****** ****** ****** ****** ****** ****** ****** ****** ****** ******
      ****** ****** ****** ****** ****** ****** ****** ****** ****** ******
  14  ****** ****** ****** ****** ****** ****** ****** ****** ****** ******
      ****** ****** ****** ****** ****** ****** ****** ****** ****** ******
      ****** ****** ****** ****** ****** ****** ****** ****** ****** ******
  15  ****** ****** ****** ****** ****** ****** ****** ****** ****** ******
      ****** ****** ****** ****** ****** ****** ****** ****** ****** ******
      ****** ****** ****** ****** ****** ****** ****** ****** ****** ******
  16  ****** ****** ****** ****** ****** ****** ****** ****** ****** ******
      ****** ****** ****** ****** ****** ****** ****** ****** ****** ******
      ****** ****** ****** ****** ****** ****** ****** ****** ****** ******
  17  ****** ****** ****** ****** ****** ****** ****** ****** ****** ******
      ****** ****** ****** ****** ****** ****** ****** ****** ****** ******
      ****** ****** ****** ****** ****** ****** ****** ****** ****** ******
  18  ****** ****** ****** ****** ****** ****** ****** ****** ****** ******
      ****** ****** ****** ****** ****** ****** ****** ****** ****** ******
      ****** ****** ****** ****** ****** ****** ****** ****** ****** ******
  19  ****** ****** ****** ****** ****** ****** ****** ****** ****** ******
      ****** ****** ****** ****** ****** ****** ****** ****** ****** ******
      ****** ****** ****** ****** ****** ****** ****** ****** ****** ******
  20  ****** ****** ****** ****** ****** ****** ****** ****** ****** ******
      ****** ****** ****** ****** ****** ****** ****** ****** ****** ******
      ****** ****** ****** ****** ****** ****** ****** ****** ****** ******
  21  ****** ****** ****** ****** ****** ****** ****** ****** ****** ******
      ****** ****** ****** ****** ****** ****** ****** ****** ****** ******
      ****** ****** ****** ****** ****** ****** ****** ****** ****** ******
  22  ****** ****** ****** ****** ****** ****** ****** ****** ****** ******
      ****** ****** ****** ****** ****** ****** ****** ****** ****** ******
      ****** ****** ****** ****** ****** ****** ****** ****** ****** ******
  23  ****** ****** ****** ****** ****** ****** ****** ****** ****** ******
      ****** ****** ****** ****** ****** ****** ****** ****** ****** ******
      ****** ****** ****** ****** ****** ****** ****** ****** ****** ******
  24  ****** ****** ****** ****** ****** ****** ****** ****** ****** ******
      ****** ****** ****** ****** ****** ****** ****** ****** ****** ******
      ****** ****** ****** ****** ****** ****** ****** ****** ****** ******
  25  ****** ****** ****** ****** ****** ****** ****** ****** ****** ******
      ****** ****** ****** ****** ****** ****** ****** ****** ****** ******
      ****** ****** ****** ****** ****** ****** ****** ****** ****** ******

 HEAD WILL BE SAVED ON UNIT   51 AT END OF TIME STEP    1, STRESS PERIOD    9
1
  VOLUMETRIC BUDGET FOR ENTIRE MODEL AT END OF TIME STEP    1, STRESS PERIOD   9
  ------------------------------------------------------------------------------

     CUMULATIVE VOLUMES      L**3       RATES FOR THIS TIME STEP      L**3/T
     ------------------                 ------------------------

           IN:                                      IN:
           ---                                      ---
             STORAGE =    32855881.9607               STORAGE =        7119.7933
       CONSTANT HEAD =    21282980.2187         CONSTANT HEAD =       32584.5363
               WELLS =           0.0000                 WELLS =           0.0000
            RECHARGE =    18878400.0000              RECHARGE =       13800.0000
      STREAM LEAKAGE =    47290154.7232        STREAM LEAKAGE =       62776.9977

            TOTAL IN =   120307416.9026              TOTAL IN =      116281.3273

          OUT:                                     OUT:
          ----                                     ----
             STORAGE =      983662.9399               STORAGE =           0.0000
       CONSTANT HEAD =           0.0000         CONSTANT HEAD =           0.0000
               WELLS =    64626236.1188                 WELLS =       78620.7252
            RECHARGE =           0.0000              RECHARGE =           0.0000
      STREAM LEAKAGE =    54697519.9798        STREAM LEAKAGE =       37660.6048

           TOTAL OUT =   120307419.0385             TOTAL OUT =      116281.3300

            IN - OUT =          -2.1359              IN - OUT =      -2.6916E-03

 PERCENT DISCREPANCY =          -0.00     PERCENT DISCREPANCY =          -0.00






         TIME SUMMARY AT END OF TIME STEP    1 IN STRESS PERIOD    9
                    SECONDS     MINUTES      HOURS       DAYS        YEARS
                    -----------------------------------------------------------
   TIME STEP LENGTH 7.94880E+06 1.32480E+05  2208.0      92.000     0.25188    
 STRESS PERIOD TIME 7.94880E+06 1.32480E+05  2208.0      92.000     0.25188    
         TOTAL TIME 7.10208E+07 1.18368E+06  19728.      822.00      2.2505    
1
1
                            STRESS PERIOD NO.   10, LENGTH =   91.00000    
                            -----------------------------------------------

                              NUMBER OF TIME STEPS =     1

                               MULTIPLIER FOR DELT =     1.500

                            INITIAL TIME STEP SIZE =   91.00000    

 WELL NO.  LAYER   ROW   COL   STRESS RATE         
 --------------------------------------------------
      1      1     14      6       0.000    
      2      1      3      9       0.000    
      3      1     20     10       0.000    
      4      1     14     20       0.000    
      5      1     15      4     -0.1412E+05
      6      1     11     22     -0.1126E+05
      7      1     18     29     -0.4576E+05
      8      1     14     29      -7478.    

      8 WELLS

                 RECHARGE =  2.000000E-03

 REUSING STREAM SEGMENT DATA FROM LAST STRESS PERIOD
 
 SOLVING FOR HEAD 


     8 CALLS TO PCG ROUTINE FOR TIME STEP   1 IN STRESS PERIOD   10
    31 TOTAL ITERATIONS

 OUTPUT CONTROL FOR STRESS PERIOD   10   TIME STEP    1
    SAVE BUDGET
    SAVE HEAD FOR ALL LAYERS
    PRINT HEAD FOR ALL LAYERS
 UBDSV2 SAVING "STREAMFLOW OUT  " ON UNIT  50 AT TIME STEP  1, STRESS PERIOD  10



 STREAM LISTING     PERIOD     10   STEP        1

 LAYER ROW COL. STREAM  RCH.  FLOW INTO     FLOW TO   FLOW OUT OF   OVRLND.     DIRECT     STREAM       STREAM     STREAM     STREAM   STREAMBED  STREAMBED
                SEG.NO.  NO.  STRM. RCH.    AQUIFER    STRM. RCH.    RUNOFF     PRECIP       ET          HEAD       DEPTH      WIDTH   CONDCTNC.   GRADIENT

   1   13    1     1     1    1.0000E+05 -2.1253E+03   1.0213E+05  0.000E+00  0.000E+00  0.000E+00  4.84069E+01  1.456E-01  2.000E+01  2.000E+04 -1.063E-01
   1   13    2     1     2    1.0213E+05 -3.1172E+03   1.0524E+05  0.000E+00  0.000E+00  0.000E+00  4.79319E+01  1.478E-01  2.000E+01  2.000E+04 -1.559E-01
   1   14    3     1     3    1.0524E+05 -5.7473E+02   1.0582E+05  0.000E+00  0.000E+00  0.000E+00  4.74562E+01  1.494E-01  2.000E+01  2.000E+04 -2.874E-02
   1   15    4     1     4    1.0582E+05  1.3406E+04   9.2412E+04  0.000E+00  0.000E+00  0.000E+00  4.69734E+01  1.439E-01  2.000E+01  2.000E+04  6.703E-01
   1   16    5     1     5    9.2412E+04 -2.0437E+03   9.4455E+04  0.000E+00  0.000E+00  0.000E+00  4.64911E+01  1.389E-01  2.000E+01  2.000E+04 -1.022E-01
   1   16    6     1     6    9.4455E+04 -1.3009E+03   9.5756E+04  0.000E+00  0.000E+00  0.000E+00  4.60154E+01  1.404E-01  2.000E+01  2.000E+04 -6.505E-02
   1   16    7     1     7    9.5756E+04 -1.2781E+03   9.7034E+04  0.000E+00  0.000E+00  0.000E+00  4.55392E+01  1.415E-01  2.000E+01  2.000E+04 -6.391E-02
   1   16    8     1     8    9.7034E+04 -1.2758E+03   9.8310E+04  0.000E+00  0.000E+00  0.000E+00  4.50631E+01  1.426E-01  2.000E+01  2.000E+04 -6.379E-02
   1   16    9     1     9    9.8310E+04 -1.2727E+03   9.9583E+04  0.000E+00  0.000E+00  0.000E+00  4.45869E+01  1.437E-01  2.000E+01  2.000E+04 -6.363E-02
   1   16   10     1    10    9.9583E+04 -1.2675E+03   1.0085E+05  0.000E+00  0.000E+00  0.000E+00  4.41107E+01  1.448E-01  2.000E+01  2.000E+04 -6.337E-02
   1   16   11     1    11    1.0085E+05 -1.2810E+03   1.0213E+05  0.000E+00  0.000E+00  0.000E+00  4.36346E+01  1.459E-01  2.000E+01  2.000E+04 -6.405E-02
   1   16   12     1    12    1.0213E+05 -2.1771E+03   1.0431E+05  0.000E+00  0.000E+00  0.000E+00  4.31588E+01  1.474E-01  2.000E+01  2.000E+04 -1.089E-01
   1   15   13     1    13    1.0431E+05 -2.0951E+03   1.0640E+05  0.000E+00  0.000E+00  0.000E+00  4.26833E+01  1.493E-01  2.000E+01  2.000E+04 -1.048E-01
   1   14   14     1    14    1.0640E+05 -2.3551E+03   1.0876E+05  0.000E+00  0.000E+00  0.000E+00  4.22080E+01  1.511E-01  2.000E+01  2.000E+04 -1.178E-01
   1   13   15     1    15    1.0876E+05 -2.6177E+03   1.1138E+05  0.000E+00  0.000E+00  0.000E+00  4.17328E+01  1.532E-01  2.000E+01  2.000E+04 -1.309E-01
   1   12   16     1    16    1.1138E+05 -3.1190E+03   1.1450E+05  0.000E+00  0.000E+00  0.000E+00  4.12579E+01  1.556E-01  2.000E+01  2.000E+04 -1.560E-01
   1   12   17     1    17    1.1450E+05 -2.0049E+03   1.1650E+05  0.000E+00  0.000E+00  0.000E+00  4.07827E+01  1.577E-01  2.000E+01  2.000E+04 -1.002E-01
   1   12   18     1    18    1.1650E+05 -1.7728E+03   1.1827E+05  0.000E+00  0.000E+00  0.000E+00  4.03070E+01  1.593E-01  2.000E+01  2.000E+04 -8.864E-02
   1   12   19     1    19    1.1827E+05 -1.4837E+03   1.1976E+05  0.000E+00  0.000E+00  0.000E+00  3.98310E+01  1.606E-01  2.000E+01  2.000E+04 -7.418E-02
   1   13   20     1    20    1.1976E+05 -8.8366E+02   1.2064E+05  0.000E+00  0.000E+00  0.000E+00  3.93547E+01  1.615E-01  2.000E+01  2.000E+04 -4.418E-02
   1   14   21     1    21    1.2064E+05 -1.3288E+03   1.2197E+05  0.000E+00  0.000E+00  0.000E+00  3.88783E+01  1.624E-01  2.000E+01  2.000E+04 -6.644E-02
   1   14   22     1    22    1.2197E+05  5.0792E+03   1.1689E+05  0.000E+00  0.000E+00  0.000E+00  3.83995E+01  1.609E-01  2.000E+01  2.000E+04  2.540E-01
   1    9   30     2     1    5.0000E+04 -1.0427E+02   5.0104E+04  0.000E+00  0.000E+00  0.000E+00  4.02409E+01  1.159E-01  2.000E+01  2.000E+04 -5.214E-03
   1    9   29     2     2    5.0104E+04 -4.5433E+02   5.0559E+04  0.000E+00  0.000E+00  0.000E+00  3.99913E+01  1.163E-01  2.000E+01  2.000E+04 -2.272E-02
   1    9   28     2     3    5.0559E+04 -8.1650E+02   5.1375E+04  0.000E+00  0.000E+00  0.000E+00  3.97422E+01  1.172E-01  2.000E+01  2.000E+04 -4.083E-02
   1    9   27     2     4    5.1375E+04 -2.1272E+03   5.3502E+04  0.000E+00  0.000E+00  0.000E+00  3.94942E+01  1.192E-01  2.000E+01  2.000E+04 -1.064E-01
   1   10   26     2     5    5.3502E+04 -8.0953E+02   5.4312E+04  0.000E+00  0.000E+00  0.000E+00  3.92462E+01  1.212E-01  2.000E+01  2.000E+04 -4.048E-02
   1   11   25     2     6    5.4312E+04 -9.8349E+01   5.4410E+04  0.000E+00  0.000E+00  0.000E+00  3.89968E+01  1.218E-01  2.000E+01  2.000E+04 -4.917E-03
   1   12   24     2     7    5.4410E+04  5.8236E+02   5.3828E+04  0.000E+00  0.000E+00  0.000E+00  3.87465E+01  1.215E-01  2.000E+01  2.000E+04  2.912E-02
   1   13   23     2     8    5.3828E+04  8.2691E+01   5.3745E+04  0.000E+00  0.000E+00  0.000E+00  3.84961E+01  1.211E-01  2.000E+01  2.000E+04  4.135E-03
   1   14   22     2     9    5.3745E+04  1.9813E+03   5.1764E+04  0.000E+00  0.000E+00  0.000E+00  3.82447E+01  1.197E-01  2.000E+01  2.000E+04  9.906E-02
   1   14   22     3     1    1.6865E+05 -8.4665E+03   1.7712E+05  0.000E+00  0.000E+00  0.000E+00  3.77223E+01  1.667E-01  2.000E+01  2.000E+04 -4.233E-01
   1   15   23     3     2    1.7712E+05 -6.2199E+02   1.7774E+05  0.000E+00  0.000E+00  0.000E+00  3.68360E+01  1.693E-01  2.000E+01  2.000E+04 -3.110E-02
   1   15   24     3     3    1.7774E+05 -3.3993E+02   1.7808E+05  0.000E+00  0.000E+00  0.000E+00  3.59474E+01  1.696E-01  2.000E+01  2.000E+04 -1.700E-02
   1   15   25     3     4    1.7808E+05 -3.0474E+02   1.7839E+05  0.000E+00  0.000E+00  0.000E+00  3.50587E+01  1.698E-01  2.000E+01  2.000E+04 -1.524E-02
   1   15   26     3     5    1.7839E+05 -1.4105E+02   1.7853E+05  0.000E+00  0.000E+00  0.000E+00  3.41699E+01  1.699E-01  2.000E+01  2.000E+04 -7.052E-03
   1   16   27     3     6    1.7853E+05  1.7543E+02   1.7835E+05  0.000E+00  0.000E+00  0.000E+00  3.32810E+01  1.699E-01  2.000E+01  2.000E+04  8.771E-03
   1   17   28     3     7    1.7835E+05  6.8013E+03   1.7155E+05  0.000E+00  0.000E+00  0.000E+00  3.23901E+01  1.679E-01  2.000E+01  2.000E+04  3.401E-01
   1   18   29     3     8    1.7155E+05  2.3182E+04   1.4837E+05  0.000E+00  0.000E+00  0.000E+00  3.14924E+01  1.591E-01  2.000E+01  2.000E+04  1.159E+00
   1   18   30     3     9    1.4837E+05  8.0748E+03   1.4029E+05  0.000E+00  0.000E+00  0.000E+00  3.05940E+01  1.496E-01  2.000E+01  2.000E+04  4.037E-01



1
              HEAD IN LAYER   1 AT END OF TIME STEP   1 IN STRESS PERIOD   10
  ---------------------------------------------------------------------------

          1      2      3      4      5      6      7      8      9     10
         11     12     13     14     15     16     17     18     19     20
         21     22     23     24     25     26     27     28     29     30
 .........................................................................
   1  ****** ****** ****** ****** ****** ****** ****** ****** ****** ******
      ****** ****** ****** ****** ****** ****** ****** ****** ****** ******
      ****** ****** ****** ****** ****** ****** ****** ****** ****** ******
   2  ****** ****** ****** ****** ****** ****** ****** ****** ****** ******
      ****** ****** ****** ****** ****** ****** ****** ****** ****** ******
      ****** ****** ****** ****** ****** ****** ****** ****** ****** ******
   3  ****** ****** ****** ****** ****** ****** ****** ****** ****** ******
      ****** ****** ****** ****** ****** ****** ****** ****** ****** ******
      ****** ****** ****** ****** ****** ****** ****** ****** ****** ******
   4  ****** ****** ****** ****** ****** ****** ****** ****** ****** ******
      ****** ****** ****** ****** ****** ****** ****** ****** ****** ******
      ****** ****** ****** ****** ****** ****** ****** ****** ****** ******
   5  ****** ****** ****** ****** ****** ****** ****** ****** ****** ******
      ****** ****** ****** ****** ****** ****** ****** ****** ****** ******
      ****** ****** ****** ****** ****** ****** ****** ****** ****** ******
   6  ****** ****** ****** ****** ****** ****** ****** ****** ****** ******
      ****** ****** ****** ****** ****** ****** ****** ****** ****** ******
      ****** ****** ****** ****** ****** ****** ****** ****** ****** ******
   7  ****** ****** ****** ****** ****** ****** ****** ****** ****** ******
      ****** ****** ****** ****** ****** ****** ****** ****** ****** ******
      ****** ****** ****** ****** ****** ****** ****** ****** ****** ******
   8  ****** ****** ****** ****** ****** ****** ****** ****** ****** ******
      ****** ****** ****** ****** ****** ****** ****** ****** ****** ******
      ****** ****** ****** ****** ****** ****** ****** ****** ****** ******
   9  ****** ****** ****** ****** ****** ****** ****** ****** ****** ******
      ****** ****** ****** ****** ****** ****** ****** ****** ****** ******
      ****** ****** ****** ****** ****** ****** ****** ****** ****** ******
  10  ****** ****** ****** ****** ****** ****** ****** ****** ****** ******
      ****** ****** ****** ****** ****** ****** ****** ****** ****** ******
      ****** ****** ****** ****** ****** ****** ****** ****** ****** ******
  11  ****** ****** ****** ****** ****** ****** ****** ****** ****** ******
      ****** ****** ****** ****** ****** ****** ****** ****** ****** ******
      ****** ****** ****** ****** ****** ****** ****** ****** ****** ******
  12  ****** ****** ****** ****** ****** ****** ****** ****** ****** ******
      ****** ****** ****** ****** ****** ****** ****** ****** ****** ******
      ****** ****** ****** ****** ****** ****** ****** ****** ****** ******
  13  ****** ****** ****** ****** ****** ****** ****** ****** ****** ******
      ****** ****** ****** ****** ****** ****** ****** ****** ****** ******
      ****** ****** ****** ****** ****** ****** ****** ****** ****** ******
  14  ****** ****** ****** ****** ****** ****** ****** ****** ****** ******
      ****** ****** ****** ****** ****** ****** ****** ****** ****** ******
      ****** ****** ****** ****** ****** ****** ****** ****** ****** ******
  15  ****** ****** ****** ****** ****** ****** ****** ****** ****** ******
      ****** ****** ****** ****** ****** ****** ****** ****** ****** ******
      ****** ****** ****** ****** ****** ****** ****** ****** ****** ******
  16  ****** ****** ****** ****** ****** ****** ****** ****** ****** ******
      ****** ****** ****** ****** ****** ****** ****** ****** ****** ******
      ****** ****** ****** ****** ****** ****** ****** ****** ****** ******
  17  ****** ****** ****** ****** ****** ****** ****** ****** ****** ******
      ****** ****** ****** ****** ****** ****** ****** ****** ****** ******
      ****** ****** ****** ****** ****** ****** ****** ****** ****** ******
  18  ****** ****** ****** ****** ****** ****** ****** ****** ****** ******
      ****** ****** ****** ****** ****** ****** ****** ****** ****** ******
      ****** ****** ****** ****** ****** ****** ****** ****** ****** ******
  19  ****** ****** ****** ****** ****** ****** ****** ****** ****** ******
      ****** ****** ****** ****** ****** ****** ****** ****** ****** ******
      ****** ****** ****** ****** ****** ****** ****** ****** ****** ******
  20  ****** ****** ****** ****** ****** ****** ****** ****** ****** ******
      ****** ****** ****** ****** ****** ****** ****** ****** ****** ******
      ****** ****** ****** ****** ****** ****** ****** ****** ****** ******
  21  ****** ****** ****** ****** ****** ****** ****** ****** ****** ******
      ****** ****** ****** ****** ****** ****** ****** ****** ****** ******
      ****** ****** ****** ****** ****** ****** ****** ****** ****** ******
  22  ****** ****** ****** ****** ****** ****** ****** ****** ****** ******
      ****** ****** ****** ****** ****** ****** ****** ****** ****** ******
      ****** ****** ****** ****** ****** ****** ****** ****** ****** ******
  23  ****** ****** ****** ****** ****** ****** ****** ****** ****** ******
      ****** ****** ****** ****** ****** ****** ****** ****** ****** ******
      ****** ****** ****** ****** ****** ****** ****** ****** ****** ******
  24  ****** ****** ****** ****** ****** ****** ****** ****** ****** ******
      ****** ****** ****** ****** ****** ****** ****** ****** ****** ******
      ****** ****** ****** ****** ****** ****** ****** ****** ****** ******
  25  ****** ****** ****** ****** ****** ****** ****** ****** ****** ******
      ****** ****** ****** ****** ****** ****** ****** ****** ****** ******
      ****** ****** ****** ****** ****** ****** ****** ****** ****** ******

 HEAD WILL BE SAVED ON UNIT   51 AT END OF TIME STEP    1, STRESS PERIOD   10
1
  VOLUMETRIC BUDGET FOR ENTIRE MODEL AT END OF TIME STEP    1, STRESS PERIOD  10
  ------------------------------------------------------------------------------

     CUMULATIVE VOLUMES      L**3       RATES FOR THIS TIME STEP      L**3/T
     ------------------                 ------------------------

           IN:                                      IN:
           ---                                      ---
             STORAGE =    32855881.9607               STORAGE =           0.0000
       CONSTANT HEAD =    23977967.1005         CONSTANT HEAD =       29615.2405
               WELLS =           0.0000                 WELLS =           0.0000
            RECHARGE =    23901600.0000              RECHARGE =       55200.0000
      STREAM LEAKAGE =    52692360.0480        STREAM LEAKAGE =       59364.8937

            TOTAL IN =   133427809.1092              TOTAL IN =      144180.1341

          OUT:                                     OUT:
          ----                                     ----
             STORAGE =     2430584.9667               STORAGE =       15900.2421
       CONSTANT HEAD =           0.0000         CONSTANT HEAD =           0.0000
               WELLS =    71780722.1125                 WELLS =       78620.7252
            RECHARGE =           0.0000              RECHARGE =           0.0000
      STREAM LEAKAGE =    59216503.9834        STREAM LEAKAGE =       49659.1649

           TOTAL OUT =   133427811.0626             TOTAL OUT =      144180.1321

            IN - OUT =          -1.9534              IN - OUT =       2.0063E-03

 PERCENT DISCREPANCY =          -0.00     PERCENT DISCREPANCY =           0.00






         TIME SUMMARY AT END OF TIME STEP    1 IN STRESS PERIOD   10
                    SECONDS     MINUTES      HOURS       DAYS        YEARS
                    -----------------------------------------------------------
   TIME STEP LENGTH 7.86240E+06 1.31040E+05  2184.0      91.000     0.24914    
 STRESS PERIOD TIME 7.86240E+06 1.31040E+05  2184.0      91.000     0.24914    
         TOTAL TIME 7.88832E+07 1.31472E+06  21912.      913.00      2.4997    
1
1
                            STRESS PERIOD NO.   11, LENGTH =   91.00000    
                            -----------------------------------------------

                              NUMBER OF TIME STEPS =     1

                               MULTIPLIER FOR DELT =     1.500

                            INITIAL TIME STEP SIZE =   91.00000    

 WELL NO.  LAYER   ROW   COL   STRESS RATE         
 --------------------------------------------------
      1      1     14      6       0.000    
      2      1      3      9       0.000    
      3      1     20     10       0.000    
      4      1     14     20       0.000    
      5      1     15      4     -0.1412E+05
      6      1     11     22     -0.1126E+05
      7      1     18     29     -0.4576E+05
      8      1     14     29      -7478.    

      8 WELLS

                 RECHARGE =   0.00000    

 REUSING STREAM SEGMENT DATA FROM LAST STRESS PERIOD
 
 SOLVING FOR HEAD 


     8 CALLS TO PCG ROUTINE FOR TIME STEP   1 IN STRESS PERIOD   11
    31 TOTAL ITERATIONS

 OUTPUT CONTROL FOR STRESS PERIOD   11   TIME STEP    1
    SAVE BUDGET
    SAVE HEAD FOR ALL LAYERS
    PRINT HEAD FOR ALL LAYERS
 UBDSV2 SAVING "STREAMFLOW OUT  " ON UNIT  50 AT TIME STEP  1, STRESS PERIOD  11



 STREAM LISTING     PERIOD     11   STEP        1

 LAYER ROW COL. STREAM  RCH.  FLOW INTO     FLOW TO   FLOW OUT OF   OVRLND.     DIRECT     STREAM       STREAM     STREAM     STREAM   STREAMBED  STREAMBED
                SEG.NO.  NO.  STRM. RCH.    AQUIFER    STRM. RCH.    RUNOFF     PRECIP       ET          HEAD       DEPTH      WIDTH   CONDCTNC.   GRADIENT

   1   13    1     1     1    1.0000E+05 -1.5597E+03   1.0156E+05  0.000E+00  0.000E+00  0.000E+00  4.84067E+01  1.453E-01  2.000E+01  2.000E+04 -7.799E-02
   1   13    2     1     2    1.0156E+05 -2.4876E+03   1.0405E+05  0.000E+00  0.000E+00  0.000E+00  4.79312E+01  1.471E-01  2.000E+01  2.000E+04 -1.244E-01
   1   14    3     1     3    1.0405E+05 -3.4422E+02   1.0439E+05  0.000E+00  0.000E+00  0.000E+00  4.74551E+01  1.483E-01  2.000E+01  2.000E+04 -1.721E-02
   1   15    4     1     4    1.0439E+05  1.3647E+04   9.0744E+04  0.000E+00  0.000E+00  0.000E+00  4.69721E+01  1.425E-01  2.000E+01  2.000E+04  6.824E-01
   1   16    5     1     5    9.0744E+04 -1.3562E+03   9.2101E+04  0.000E+00  0.000E+00  0.000E+00  4.64893E+01  1.371E-01  2.000E+01  2.000E+04 -6.781E-02
   1   16    6     1     6    9.2101E+04 -8.8698E+02   9.2988E+04  0.000E+00  0.000E+00  0.000E+00  4.60131E+01  1.381E-01  2.000E+01  2.000E+04 -4.435E-02
   1   16    7     1     7    9.2988E+04 -8.8182E+02   9.3869E+04  0.000E+00  0.000E+00  0.000E+00  4.55366E+01  1.389E-01  2.000E+01  2.000E+04 -4.409E-02
   1   16    8     1     8    9.3869E+04 -8.8500E+02   9.4754E+04  0.000E+00  0.000E+00  0.000E+00  4.50601E+01  1.397E-01  2.000E+01  2.000E+04 -4.425E-02
   1   16    9     1     9    9.4754E+04 -8.8403E+02   9.5638E+04  0.000E+00  0.000E+00  0.000E+00  4.45836E+01  1.404E-01  2.000E+01  2.000E+04 -4.420E-02
   1   16   10     1    10    9.5638E+04 -8.7984E+02   9.6518E+04  0.000E+00  0.000E+00  0.000E+00  4.41071E+01  1.412E-01  2.000E+01  2.000E+04 -4.399E-02
   1   16   11     1    11    9.6518E+04 -8.9143E+02   9.7410E+04  0.000E+00  0.000E+00  0.000E+00  4.36306E+01  1.420E-01  2.000E+01  2.000E+04 -4.457E-02
   1   16   12     1    12    9.7410E+04 -1.5317E+03   9.8941E+04  0.000E+00  0.000E+00  0.000E+00  4.31544E+01  1.431E-01  2.000E+01  2.000E+04 -7.659E-02
   1   15   13     1    13    9.8941E+04 -1.4074E+03   1.0035E+05  0.000E+00  0.000E+00  0.000E+00  4.26784E+01  1.443E-01  2.000E+01  2.000E+04 -7.037E-02
   1   14   14     1    14    1.0035E+05 -1.6500E+03   1.0200E+05  0.000E+00  0.000E+00  0.000E+00  4.22025E+01  1.457E-01  2.000E+01  2.000E+04 -8.250E-02
   1   13   15     1    15    1.0200E+05 -1.9185E+03   1.0392E+05  0.000E+00  0.000E+00  0.000E+00  4.17267E+01  1.472E-01  2.000E+01  2.000E+04 -9.592E-02
   1   12   16     1    16    1.0392E+05 -2.4438E+03   1.0636E+05  0.000E+00  0.000E+00  0.000E+00  4.12513E+01  1.491E-01  2.000E+01  2.000E+04 -1.222E-01
   1   12   17     1    17    1.0636E+05 -1.4992E+03   1.0786E+05  0.000E+00  0.000E+00  0.000E+00  4.07757E+01  1.507E-01  2.000E+01  2.000E+04 -7.496E-02
   1   12   18     1    18    1.0786E+05 -1.2746E+03   1.0913E+05  0.000E+00  0.000E+00  0.000E+00  4.02996E+01  1.519E-01  2.000E+01  2.000E+04 -6.373E-02
   1   12   19     1    19    1.0913E+05 -8.7206E+02   1.1001E+05  0.000E+00  0.000E+00  0.000E+00  3.98233E+01  1.528E-01  2.000E+01  2.000E+04 -4.360E-02
   1   13   20     1    20    1.1001E+05 -2.7170E+02   1.1028E+05  0.000E+00  0.000E+00  0.000E+00  3.93465E+01  1.533E-01  2.000E+01  2.000E+04 -1.358E-02
   1   14   21     1    21    1.1028E+05 -7.3172E+02   1.1101E+05  0.000E+00  0.000E+00  0.000E+00  3.88696E+01  1.537E-01  2.000E+01  2.000E+04 -3.659E-02
   1   14   22     1    22    1.1101E+05  5.2260E+03   1.0578E+05  0.000E+00  0.000E+00  0.000E+00  3.83905E+01  1.518E-01  2.000E+01  2.000E+04  2.613E-01
   1    9   30     2     1    5.0000E+04  3.8546E+02   4.9615E+04  0.000E+00  0.000E+00  0.000E+00  4.02406E+01  1.156E-01  2.000E+01  2.000E+04  1.927E-02
   1    9   29     2     2    4.9615E+04  3.2145E+01   4.9582E+04  0.000E+00  0.000E+00  0.000E+00  3.99903E+01  1.153E-01  2.000E+01  2.000E+04  1.607E-03
   1    9   28     2     3    4.9582E+04 -3.3265E+02   4.9915E+04  0.000E+00  0.000E+00  0.000E+00  3.97405E+01  1.155E-01  2.000E+01  2.000E+04 -1.663E-02
   1    9   27     2     4    4.9915E+04 -1.4873E+03   5.1402E+04  0.000E+00  0.000E+00  0.000E+00  3.94918E+01  1.168E-01  2.000E+01  2.000E+04 -7.436E-02
   1   10   26     2     5    5.1402E+04 -1.5442E+02   5.1557E+04  0.000E+00  0.000E+00  0.000E+00  3.92429E+01  1.179E-01  2.000E+01  2.000E+04 -7.721E-03
   1   11   25     2     6    5.1557E+04  5.3265E+02   5.1024E+04  0.000E+00  0.000E+00  0.000E+00  3.89927E+01  1.177E-01  2.000E+01  2.000E+04  2.663E-02
   1   12   24     2     7    5.1024E+04  1.1556E+03   4.9869E+04  0.000E+00  0.000E+00  0.000E+00  3.87415E+01  1.165E-01  2.000E+01  2.000E+04  5.778E-02
   1   13   23     2     8    4.9869E+04  2.6846E+02   4.9600E+04  0.000E+00  0.000E+00  0.000E+00  3.84905E+01  1.155E-01  2.000E+01  2.000E+04  1.342E-02
   1   14   22     2     9    4.9600E+04  2.1923E+03   4.7408E+04  0.000E+00  0.000E+00  0.000E+00  3.82388E+01  1.138E-01  2.000E+01  2.000E+04  1.096E-01
   1   14   22     3     1    1.5319E+05 -8.3210E+03   1.6151E+05  0.000E+00  0.000E+00  0.000E+00  3.77131E+01  1.576E-01  2.000E+01  2.000E+04 -4.160E-01
   1   15   23     3     2    1.6151E+05 -4.2985E+02   1.6194E+05  0.000E+00  0.000E+00  0.000E+00  3.68268E+01  1.602E-01  2.000E+01  2.000E+04 -2.149E-02
   1   15   24     3     3    1.6194E+05 -1.7472E+02   1.6212E+05  0.000E+00  0.000E+00  0.000E+00  3.59381E+01  1.603E-01  2.000E+01  2.000E+04 -8.736E-03
   1   15   25     3     4    1.6212E+05 -1.3561E+02   1.6225E+05  0.000E+00  0.000E+00  0.000E+00  3.50493E+01  1.604E-01  2.000E+01  2.000E+04 -6.780E-03
   1   15   26     3     5    1.6225E+05  5.5723E+01   1.6220E+05  0.000E+00  0.000E+00  0.000E+00  3.41605E+01  1.605E-01  2.000E+01  2.000E+04  2.786E-03
   1   16   27     3     6    1.6220E+05  4.0439E+02   1.6179E+05  0.000E+00  0.000E+00  0.000E+00  3.32714E+01  1.603E-01  2.000E+01  2.000E+04  2.022E-02
   1   17   28     3     7    1.6179E+05  7.6363E+03   1.5416E+05  0.000E+00  0.000E+00  0.000E+00  3.23801E+01  1.579E-01  2.000E+01  2.000E+04  3.818E-01
   1   18   29     3     8    1.5416E+05  2.2971E+04   1.3119E+05  0.000E+00  0.000E+00  0.000E+00  3.14819E+01  1.486E-01  2.000E+01  2.000E+04  1.149E+00
   1   18   30     3     9    1.3119E+05  8.9384E+03   1.2225E+05  0.000E+00  0.000E+00  0.000E+00  3.05828E+01  1.384E-01  2.000E+01  2.000E+04  4.469E-01



1
              HEAD IN LAYER   1 AT END OF TIME STEP   1 IN STRESS PERIOD   11
  ---------------------------------------------------------------------------

          1      2      3      4      5      6      7      8      9     10
         11     12     13     14     15     16     17     18     19     20
         21     22     23     24     25     26     27     28     29     30
 .........................................................................
   1  ****** ****** ****** ****** ****** ****** ****** ****** ****** ******
      ****** ****** ****** ****** ****** ****** ****** ****** ****** ******
      ****** ****** ****** ****** ****** ****** ****** ****** ****** ******
   2  ****** ****** ****** ****** ****** ****** ****** ****** ****** ******
      ****** ****** ****** ****** ****** ****** ****** ****** ****** ******
      ****** ****** ****** ****** ****** ****** ****** ****** ****** ******
   3  ****** ****** ****** ****** ****** ****** ****** ****** ****** ******
      ****** ****** ****** ****** ****** ****** ****** ****** ****** ******
      ****** ****** ****** ****** ****** ****** ****** ****** ****** ******
   4  ****** ****** ****** ****** ****** ****** ****** ****** ****** ******
      ****** ****** ****** ****** ****** ****** ****** ****** ****** ******
      ****** ****** ****** ****** ****** ****** ****** ****** ****** ******
   5  ****** ****** ****** ****** ****** ****** ****** ****** ****** ******
      ****** ****** ****** ****** ****** ****** ****** ****** ****** ******
      ****** ****** ****** ****** ****** ****** ****** ****** ****** ******
   6  ****** ****** ****** ****** ****** ****** ****** ****** ****** ******
      ****** ****** ****** ****** ****** ****** ****** ****** ****** ******
      ****** ****** ****** ****** ****** ****** ****** ****** ****** ******
   7  ****** ****** ****** ****** ****** ****** ****** ****** ****** ******
      ****** ****** ****** ****** ****** ****** ****** ****** ****** ******
      ****** ****** ****** ****** ****** ****** ****** ****** ****** ******
   8  ****** ****** ****** ****** ****** ****** ****** ****** ****** ******
      ****** ****** ****** ****** ****** ****** ****** ****** ****** ******
      ****** ****** ****** ****** ****** ****** ****** ****** ****** ******
   9  ****** ****** ****** ****** ****** ****** ****** ****** ****** ******
      ****** ****** ****** ****** ****** ****** ****** ****** ****** ******
      ****** ****** ****** ****** ****** ****** ****** ****** ****** ******
  10  ****** ****** ****** ****** ****** ****** ****** ****** ****** ******
      ****** ****** ****** ****** ****** ****** ****** ****** ****** ******
      ****** ****** ****** ****** ****** ****** ****** ****** ****** ******
  11  ****** ****** ****** ****** ****** ****** ****** ****** ****** ******
      ****** ****** ****** ****** ****** ****** ****** ****** ****** ******
      ****** ****** ****** ****** ****** ****** ****** ****** ****** ******
  12  ****** ****** ****** ****** ****** ****** ****** ****** ****** ******
      ****** ****** ****** ****** ****** ****** ****** ****** ****** ******
      ****** ****** ****** ****** ****** ****** ****** ****** ****** ******
  13  ****** ****** ****** ****** ****** ****** ****** ****** ****** ******
      ****** ****** ****** ****** ****** ****** ****** ****** ****** ******
      ****** ****** ****** ****** ****** ****** ****** ****** ****** ******
  14  ****** ****** ****** ****** ****** ****** ****** ****** ****** ******
      ****** ****** ****** ****** ****** ****** ****** ****** ****** ******
      ****** ****** ****** ****** ****** ****** ****** ****** ****** ******
  15  ****** ****** ****** ****** ****** ****** ****** ****** ****** ******
      ****** ****** ****** ****** ****** ****** ****** ****** ****** ******
      ****** ****** ****** ****** ****** ****** ****** ****** ****** ******
  16  ****** ****** ****** ****** ****** ****** ****** ****** ****** ******
      ****** ****** ****** ****** ****** ****** ****** ****** ****** ******
      ****** ****** ****** ****** ****** ****** ****** ****** ****** ******
  17  ****** ****** ****** ****** ****** ****** ****** ****** ****** ******
      ****** ****** ****** ****** ****** ****** ****** ****** ****** ******
      ****** ****** ****** ****** ****** ****** ****** ****** ****** ******
  18  ****** ****** ****** ****** ****** ****** ****** ****** ****** ******
      ****** ****** ****** ****** ****** ****** ****** ****** ****** ******
      ****** ****** ****** ****** ****** ****** ****** ****** ****** ******
  19  ****** ****** ****** ****** ****** ****** ****** ****** ****** ******
      ****** ****** ****** ****** ****** ****** ****** ****** ****** ******
      ****** ****** ****** ****** ****** ****** ****** ****** ****** ******
  20  ****** ****** ****** ****** ****** ****** ****** ****** ****** ******
      ****** ****** ****** ****** ****** ****** ****** ****** ****** ******
      ****** ****** ****** ****** ****** ****** ****** ****** ****** ******
  21  ****** ****** ****** ****** ****** ****** ****** ****** ****** ******
      ****** ****** ****** ****** ****** ****** ****** ****** ****** ******
      ****** ****** ****** ****** ****** ****** ****** ****** ****** ******
  22  ****** ****** ****** ****** ****** ****** ****** ****** ****** ******
      ****** ****** ****** ****** ****** ****** ****** ****** ****** ******
      ****** ****** ****** ****** ****** ****** ****** ****** ****** ******
  23  ****** ****** ****** ****** ****** ****** ****** ****** ****** ******
      ****** ****** ****** ****** ****** ****** ****** ****** ****** ******
      ****** ****** ****** ****** ****** ****** ****** ****** ****** ******
  24  ****** ****** ****** ****** ****** ****** ****** ****** ****** ******
      ****** ****** ****** ****** ****** ****** ****** ****** ****** ******
      ****** ****** ****** ****** ****** ****** ****** ****** ****** ******
  25  ****** ****** ****** ****** ****** ****** ****** ****** ****** ******
      ****** ****** ****** ****** ****** ****** ****** ****** ****** ******
      ****** ****** ****** ****** ****** ****** ****** ****** ****** ******

 HEAD WILL BE SAVED ON UNIT   51 AT END OF TIME STEP    1, STRESS PERIOD   11
1
  VOLUMETRIC BUDGET FOR ENTIRE MODEL AT END OF TIME STEP    1, STRESS PERIOD  11
  ------------------------------------------------------------------------------

     CUMULATIVE VOLUMES      L**3       RATES FOR THIS TIME STEP      L**3/T
     ------------------                 ------------------------

           IN:                                      IN:
           ---                                      ---
             STORAGE =    34491266.2031               STORAGE =       17971.2554
       CONSTANT HEAD =    26971556.9867         CONSTANT HEAD =       32896.5922
               WELLS =           0.0000                 WELLS =           0.0000
            RECHARGE =    23901600.0000              RECHARGE =           0.0000
      STREAM LEAKAGE =    58465938.2084        STREAM LEAKAGE =       63445.9139

            TOTAL IN =   143830361.3981              TOTAL IN =      114313.7614

          OUT:                                     OUT:
          ----                                     ----
             STORAGE =     2430584.9667               STORAGE =           0.0000
       CONSTANT HEAD =           0.0000         CONSTANT HEAD =           0.0000
               WELLS =    78935208.1061                 WELLS =       78620.7252
            RECHARGE =           0.0000              RECHARGE =           0.0000
      STREAM LEAKAGE =    62464570.5325        STREAM LEAKAGE =       35693.0390

           TOTAL OUT =   143830363.6054             TOTAL OUT =      114313.7642

            IN - OUT =          -2.2073              IN - OUT =      -2.7903E-03

 PERCENT DISCREPANCY =          -0.00     PERCENT DISCREPANCY =          -0.00






         TIME SUMMARY AT END OF TIME STEP    1 IN STRESS PERIOD   11
                    SECONDS     MINUTES      HOURS       DAYS        YEARS
                    -----------------------------------------------------------
   TIME STEP LENGTH 7.86240E+06 1.31040E+05  2184.0      91.000     0.24914    
 STRESS PERIOD TIME 7.86240E+06 1.31040E+05  2184.0      91.000     0.24914    
         TOTAL TIME 8.67456E+07 1.44576E+06  24096.      1004.0      2.7488    
1
1
                            STRESS PERIOD NO.   12, LENGTH =   91.00000    
                            -----------------------------------------------

                              NUMBER OF TIME STEPS =     1

                               MULTIPLIER FOR DELT =     1.500

                            INITIAL TIME STEP SIZE =   91.00000    

 WELL NO.  LAYER   ROW   COL   STRESS RATE         
 --------------------------------------------------
      1      1     14      6       0.000    
      2      1      3      9       0.000    
      3      1     20     10       0.000    
      4      1     14     20       0.000    
      5      1     15      4     -0.1412E+05
      6      1     11     22     -0.1126E+05
      7      1     18     29     -0.4576E+05
      8      1     14     29      -7478.    

      8 WELLS

                 RECHARGE =  1.000000E-03

 REUSING STREAM SEGMENT DATA FROM LAST STRESS PERIOD
 
 SOLVING FOR HEAD 


     7 CALLS TO PCG ROUTINE FOR TIME STEP   1 IN STRESS PERIOD   12
    29 TOTAL ITERATIONS

 OUTPUT CONTROL FOR STRESS PERIOD   12   TIME STEP    1
    SAVE BUDGET
    SAVE HEAD FOR ALL LAYERS
    PRINT HEAD FOR ALL LAYERS
 UBDSV2 SAVING "STREAMFLOW OUT  " ON UNIT  50 AT TIME STEP  1, STRESS PERIOD  12



 STREAM LISTING     PERIOD     12   STEP        1

 LAYER ROW COL. STREAM  RCH.  FLOW INTO     FLOW TO   FLOW OUT OF   OVRLND.     DIRECT     STREAM       STREAM     STREAM     STREAM   STREAMBED  STREAMBED
                SEG.NO.  NO.  STRM. RCH.    AQUIFER    STRM. RCH.    RUNOFF     PRECIP       ET          HEAD       DEPTH      WIDTH   CONDCTNC.   GRADIENT

   1   13    1     1     1    1.0000E+05 -1.7055E+03   1.0171E+05  0.000E+00  0.000E+00  0.000E+00  4.84068E+01  1.454E-01  2.000E+01  2.000E+04 -8.528E-02
   1   13    2     1     2    1.0171E+05 -2.6445E+03   1.0435E+05  0.000E+00  0.000E+00  0.000E+00  4.79314E+01  1.473E-01  2.000E+01  2.000E+04 -1.322E-01
   1   14    3     1     3    1.0435E+05 -4.2306E+02   1.0477E+05  0.000E+00  0.000E+00  0.000E+00  4.74554E+01  1.486E-01  2.000E+01  2.000E+04 -2.115E-02
   1   15    4     1     4    1.0477E+05  1.3565E+04   9.1208E+04  0.000E+00  0.000E+00  0.000E+00  4.69724E+01  1.429E-01  2.000E+01  2.000E+04  6.782E-01
   1   16    5     1     5    9.1208E+04 -1.5662E+03   9.2775E+04  0.000E+00  0.000E+00  0.000E+00  4.64899E+01  1.376E-01  2.000E+01  2.000E+04 -7.831E-02
   1   16    6     1     6    9.2775E+04 -1.0176E+03   9.3792E+04  0.000E+00  0.000E+00  0.000E+00  4.60137E+01  1.387E-01  2.000E+01  2.000E+04 -5.088E-02
   1   16    7     1     7    9.3792E+04 -1.0074E+03   9.4800E+04  0.000E+00  0.000E+00  0.000E+00  4.55374E+01  1.396E-01  2.000E+01  2.000E+04 -5.037E-02
   1   16    8     1     8    9.4800E+04 -1.0095E+03   9.5809E+04  0.000E+00  0.000E+00  0.000E+00  4.50610E+01  1.405E-01  2.000E+01  2.000E+04 -5.048E-02
   1   16    9     1     9    9.5809E+04 -1.0090E+03   9.6818E+04  0.000E+00  0.000E+00  0.000E+00  4.45846E+01  1.414E-01  2.000E+01  2.000E+04 -5.045E-02
   1   16   10     1    10    9.6818E+04 -1.0060E+03   9.7824E+04  0.000E+00  0.000E+00  0.000E+00  4.41082E+01  1.423E-01  2.000E+01  2.000E+04 -5.030E-02
   1   16   11     1    11    9.7824E+04 -1.0198E+03   9.8844E+04  0.000E+00  0.000E+00  0.000E+00  4.36318E+01  1.432E-01  2.000E+01  2.000E+04 -5.099E-02
   1   16   12     1    12    9.8844E+04 -1.7335E+03   1.0058E+05  0.000E+00  0.000E+00  0.000E+00  4.31558E+01  1.444E-01  2.000E+01  2.000E+04 -8.667E-02
   1   15   13     1    13    1.0058E+05 -1.6248E+03   1.0220E+05  0.000E+00  0.000E+00  0.000E+00  4.26799E+01  1.459E-01  2.000E+01  2.000E+04 -8.124E-02
   1   14   14     1    14    1.0220E+05 -1.8682E+03   1.0407E+05  0.000E+00  0.000E+00  0.000E+00  4.22042E+01  1.474E-01  2.000E+01  2.000E+04 -9.341E-02
   1   13   15     1    15    1.0407E+05 -2.1296E+03   1.0620E+05  0.000E+00  0.000E+00  0.000E+00  4.17286E+01  1.491E-01  2.000E+01  2.000E+04 -1.065E-01
   1   12   16     1    16    1.0620E+05 -2.6290E+03   1.0883E+05  0.000E+00  0.000E+00  0.000E+00  4.12534E+01  1.511E-01  2.000E+01  2.000E+04 -1.314E-01
   1   12   17     1    17    1.0883E+05 -1.6534E+03   1.1048E+05  0.000E+00  0.000E+00  0.000E+00  4.07779E+01  1.529E-01  2.000E+01  2.000E+04 -8.267E-02
   1   12   18     1    18    1.1048E+05 -1.4309E+03   1.1191E+05  0.000E+00  0.000E+00  0.000E+00  4.03019E+01  1.542E-01  2.000E+01  2.000E+04 -7.154E-02
   1   12   19     1    19    1.1191E+05 -1.0653E+03   1.1298E+05  0.000E+00  0.000E+00  0.000E+00  3.98257E+01  1.552E-01  2.000E+01  2.000E+04 -5.326E-02
   1   13   20     1    20    1.1298E+05 -4.8223E+02   1.1346E+05  0.000E+00  0.000E+00  0.000E+00  3.93490E+01  1.558E-01  2.000E+01  2.000E+04 -2.411E-02
   1   14   21     1    21    1.1346E+05 -9.2551E+02   1.1439E+05  0.000E+00  0.000E+00  0.000E+00  3.88723E+01  1.564E-01  2.000E+01  2.000E+04 -4.628E-02
   1   14   22     1    22    1.1439E+05  5.1730E+03   1.0921E+05  0.000E+00  0.000E+00  0.000E+00  3.83933E+01  1.547E-01  2.000E+01  2.000E+04  2.587E-01
   1    9   30     2     1    5.0000E+04  2.0891E+02   4.9791E+04  0.000E+00  0.000E+00  0.000E+00  4.02407E+01  1.157E-01  2.000E+01  2.000E+04  1.045E-02
   1    9   29     2     2    4.9791E+04 -1.4237E+02   4.9933E+04  0.000E+00  0.000E+00  0.000E+00  3.99907E+01  1.157E-01  2.000E+01  2.000E+04 -7.119E-03
   1    9   28     2     3    4.9933E+04 -5.0369E+02   5.0437E+04  0.000E+00  0.000E+00  0.000E+00  3.97411E+01  1.161E-01  2.000E+01  2.000E+04 -2.518E-02
   1    9   27     2     4    5.0437E+04 -1.6969E+03   5.2134E+04  0.000E+00  0.000E+00  0.000E+00  3.94926E+01  1.176E-01  2.000E+01  2.000E+04 -8.484E-02
   1   10   26     2     5    5.2134E+04 -3.8458E+02   5.2519E+04  0.000E+00  0.000E+00  0.000E+00  3.92441E+01  1.191E-01  2.000E+01  2.000E+04 -1.923E-02
   1   11   25     2     6    5.2519E+04  3.0642E+02   5.2212E+04  0.000E+00  0.000E+00  0.000E+00  3.89941E+01  1.191E-01  2.000E+01  2.000E+04  1.532E-02
   1   12   24     2     7    5.2212E+04  9.4906E+02   5.1263E+04  0.000E+00  0.000E+00  0.000E+00  3.87433E+01  1.183E-01  2.000E+01  2.000E+04  4.745E-02
   1   13   23     2     8    5.1263E+04  1.9078E+02   5.1072E+04  0.000E+00  0.000E+00  0.000E+00  3.84925E+01  1.175E-01  2.000E+01  2.000E+04  9.539E-03
   1   14   22     2     9    5.1072E+04  2.1246E+03   4.8948E+04  0.000E+00  0.000E+00  0.000E+00  3.82409E+01  1.159E-01  2.000E+01  2.000E+04  1.062E-01
   1   14   22     3     1    1.5816E+05 -8.3712E+03   1.6653E+05  0.000E+00  0.000E+00  0.000E+00  3.77161E+01  1.605E-01  2.000E+01  2.000E+04 -4.186E-01
   1   15   23     3     2    1.6653E+05 -5.0176E+02   1.6703E+05  0.000E+00  0.000E+00  0.000E+00  3.68298E+01  1.632E-01  2.000E+01  2.000E+04 -2.509E-02
   1   15   24     3     3    1.6703E+05 -2.3970E+02   1.6727E+05  0.000E+00  0.000E+00  0.000E+00  3.59411E+01  1.634E-01  2.000E+01  2.000E+04 -1.199E-02
   1   15   25     3     4    1.6727E+05 -2.0184E+02   1.6748E+05  0.000E+00  0.000E+00  0.000E+00  3.50524E+01  1.635E-01  2.000E+01  2.000E+04 -1.009E-02
   1   15   26     3     5    1.6748E+05 -2.1682E+01   1.6750E+05  0.000E+00  0.000E+00  0.000E+00  3.41636E+01  1.636E-01  2.000E+01  2.000E+04 -1.084E-03
   1   16   27     3     6    1.6750E+05  3.1684E+02   1.6718E+05  0.000E+00  0.000E+00  0.000E+00  3.32746E+01  1.635E-01  2.000E+01  2.000E+04  1.584E-02
   1   17   28     3     7    1.6718E+05  7.3573E+03   1.5982E+05  0.000E+00  0.000E+00  0.000E+00  3.23834E+01  1.612E-01  2.000E+01  2.000E+04  3.679E-01
   1   18   29     3     8    1.5982E+05  2.3041E+04   1.3678E+05  0.000E+00  0.000E+00  0.000E+00  3.14854E+01  1.521E-01  2.000E+01  2.000E+04  1.152E+00
   1   18   30     3     9    1.3678E+05  8.6673E+03   1.2811E+05  0.000E+00  0.000E+00  0.000E+00  3.05865E+01  1.421E-01  2.000E+01  2.000E+04  4.334E-01



1
              HEAD IN LAYER   1 AT END OF TIME STEP   1 IN STRESS PERIOD   12
  ---------------------------------------------------------------------------

          1      2      3      4      5      6      7      8      9     10
         11     12     13     14     15     16     17     18     19     20
         21     22     23     24     25     26     27     28     29     30
 .........................................................................
   1  ****** ****** ****** ****** ****** ****** ****** ****** ****** ******
      ****** ****** ****** ****** ****** ****** ****** ****** ****** ******
      ****** ****** ****** ****** ****** ****** ****** ****** ****** ******
   2  ****** ****** ****** ****** ****** ****** ****** ****** ****** ******
      ****** ****** ****** ****** ****** ****** ****** ****** ****** ******
      ****** ****** ****** ****** ****** ****** ****** ****** ****** ******
   3  ****** ****** ****** ****** ****** ****** ****** ****** ****** ******
      ****** ****** ****** ****** ****** ****** ****** ****** ****** ******
      ****** ****** ****** ****** ****** ****** ****** ****** ****** ******
   4  ****** ****** ****** ****** ****** ****** ****** ****** ****** ******
      ****** ****** ****** ****** ****** ****** ****** ****** ****** ******
      ****** ****** ****** ****** ****** ****** ****** ****** ****** ******
   5  ****** ****** ****** ****** ****** ****** ****** ****** ****** ******
      ****** ****** ****** ****** ****** ****** ****** ****** ****** ******
      ****** ****** ****** ****** ****** ****** ****** ****** ****** ******
   6  ****** ****** ****** ****** ****** ****** ****** ****** ****** ******
      ****** ****** ****** ****** ****** ****** ****** ****** ****** ******
      ****** ****** ****** ****** ****** ****** ****** ****** ****** ******
   7  ****** ****** ****** ****** ****** ****** ****** ****** ****** ******
      ****** ****** ****** ****** ****** ****** ****** ****** ****** ******
      ****** ****** ****** ****** ****** ****** ****** ****** ****** ******
   8  ****** ****** ****** ****** ****** ****** ****** ****** ****** ******
      ****** ****** ****** ****** ****** ****** ****** ****** ****** ******
      ****** ****** ****** ****** ****** ****** ****** ****** ****** ******
   9  ****** ****** ****** ****** ****** ****** ****** ****** ****** ******
      ****** ****** ****** ****** ****** ****** ****** ****** ****** ******
      ****** ****** ****** ****** ****** ****** ****** ****** ****** ******
  10  ****** ****** ****** ****** ****** ****** ****** ****** ****** ******
      ****** ****** ****** ****** ****** ****** ****** ****** ****** ******
      ****** ****** ****** ****** ****** ****** ****** ****** ****** ******
  11  ****** ****** ****** ****** ****** ****** ****** ****** ****** ******
      ****** ****** ****** ****** ****** ****** ****** ****** ****** ******
      ****** ****** ****** ****** ****** ****** ****** ****** ****** ******
  12  ****** ****** ****** ****** ****** ****** ****** ****** ****** ******
      ****** ****** ****** ****** ****** ****** ****** ****** ****** ******
      ****** ****** ****** ****** ****** ****** ****** ****** ****** ******
  13  ****** ****** ****** ****** ****** ****** ****** ****** ****** ******
      ****** ****** ****** ****** ****** ****** ****** ****** ****** ******
      ****** ****** ****** ****** ****** ****** ****** ****** ****** ******
  14  ****** ****** ****** ****** ****** ****** ****** ****** ****** ******
      ****** ****** ****** ****** ****** ****** ****** ****** ****** ******
      ****** ****** ****** ****** ****** ****** ****** ****** ****** ******
  15  ****** ****** ****** ****** ****** ****** ****** ****** ****** ******
      ****** ****** ****** ****** ****** ****** ****** ****** ****** ******
      ****** ****** ****** ****** ****** ****** ****** ****** ****** ******
  16  ****** ****** ****** ****** ****** ****** ****** ****** ****** ******
      ****** ****** ****** ****** ****** ****** ****** ****** ****** ******
      ****** ****** ****** ****** ****** ****** ****** ****** ****** ******
  17  ****** ****** ****** ****** ****** ****** ****** ****** ****** ******
      ****** ****** ****** ****** ****** ****** ****** ****** ****** ******
      ****** ****** ****** ****** ****** ****** ****** ****** ****** ******
  18  ****** ****** ****** ****** ****** ****** ****** ****** ****** ******
      ****** ****** ****** ****** ****** ****** ****** ****** ****** ******
      ****** ****** ****** ****** ****** ****** ****** ****** ****** ******
  19  ****** ****** ****** ****** ****** ****** ****** ****** ****** ******
      ****** ****** ****** ****** ****** ****** ****** ****** ****** ******
      ****** ****** ****** ****** ****** ****** ****** ****** ****** ******
  20  ****** ****** ****** ****** ****** ****** ****** ****** ****** ******
      ****** ****** ****** ****** ****** ****** ****** ****** ****** ******
      ****** ****** ****** ****** ****** ****** ****** ****** ****** ******
  21  ****** ****** ****** ****** ****** ****** ****** ****** ****** ******
      ****** ****** ****** ****** ****** ****** ****** ****** ****** ******
      ****** ****** ****** ****** ****** ****** ****** ****** ****** ******
  22  ****** ****** ****** ****** ****** ****** ****** ****** ****** ******
      ****** ****** ****** ****** ****** ****** ****** ****** ****** ******
      ****** ****** ****** ****** ****** ****** ****** ****** ****** ******
  23  ****** ****** ****** ****** ****** ****** ****** ****** ****** ******
      ****** ****** ****** ****** ****** ****** ****** ****** ****** ******
      ****** ****** ****** ****** ****** ****** ****** ****** ****** ******
  24  ****** ****** ****** ****** ****** ****** ****** ****** ****** ******
      ****** ****** ****** ****** ****** ****** ****** ****** ****** ******
      ****** ****** ****** ****** ****** ****** ****** ****** ****** ******
  25  ****** ****** ****** ****** ****** ****** ****** ****** ****** ******
      ****** ****** ****** ****** ****** ****** ****** ****** ****** ******
      ****** ****** ****** ****** ****** ****** ****** ****** ****** ******

 HEAD WILL BE SAVED ON UNIT   51 AT END OF TIME STEP    1, STRESS PERIOD   12
1
  VOLUMETRIC BUDGET FOR ENTIRE MODEL AT END OF TIME STEP    1, STRESS PERIOD  12
  ------------------------------------------------------------------------------

     CUMULATIVE VOLUMES      L**3       RATES FOR THIS TIME STEP      L**3/T
     ------------------                 ------------------------

           IN:                                      IN:
           ---                                      ---
             STORAGE =    34491820.4303               STORAGE =           6.0904
       CONSTANT HEAD =    29901442.8145         CONSTANT HEAD =       32196.5476
               WELLS =           0.0000                 WELLS =           0.0000
            RECHARGE =    26413200.0000              RECHARGE =       27600.0000
      STREAM LEAKAGE =    64098833.9560        STREAM LEAKAGE =       61899.9533

            TOTAL IN =   154905297.2009              TOTAL IN =      121702.5912

          OUT:                                     OUT:
          ----                                     ----
             STORAGE =     2709686.0748               STORAGE =        3067.0451
       CONSTANT HEAD =           0.0000         CONSTANT HEAD =           0.0000
               WELLS =    86089694.0998                 WELLS =       78620.7252
            RECHARGE =           0.0000              RECHARGE =           0.0000
      STREAM LEAKAGE =    66105919.0040        STREAM LEAKAGE =       40014.8184

           TOTAL OUT =   154905299.1786             TOTAL OUT =      121702.5887

            IN - OUT =          -1.9777              IN - OUT =       2.5226E-03

 PERCENT DISCREPANCY =          -0.00     PERCENT DISCREPANCY =           0.00






         TIME SUMMARY AT END OF TIME STEP    1 IN STRESS PERIOD   12
                    SECONDS     MINUTES      HOURS       DAYS        YEARS
                    -----------------------------------------------------------
   TIME STEP LENGTH 7.86240E+06 1.31040E+05  2184.0      91.000     0.24914    
 STRESS PERIOD TIME 7.86240E+06 1.31040E+05  2184.0      91.000     0.24914    
         TOTAL TIME 9.46080E+07 1.57680E+06  26280.      1095.0      2.9979    
1

 Run end date and time (yyyy/mm/dd hh:mm:ss): 2019/02/10 11:51:18
 Elapsed run time:  0.098 Seconds

