                                  MODFLOW-2005     
      U.S. GEOLOGICAL SURVEY MODULAR FINITE-DIFFERENCE GROUND-WATER FLOW MODEL
                            VERSION 1.11.00 8/8/2013

 LIST FILE: supply2.lst
                         UNIT   10

 OPENING ..\data\supply.dis
 FILE TYPE:DIS   UNIT   11   STATUS:OLD    
 FORMAT:FORMATTED              ACCESS:SEQUENTIAL          

 OPENING ..\data\supply.ba6
 FILE TYPE:BAS6   UNIT   12   STATUS:OLD    
 FORMAT:FORMATTED              ACCESS:SEQUENTIAL          

 OPENING ..\data\supply_het.bc6
 FILE TYPE:BCF6   UNIT   13   STATUS:OLD    
 FORMAT:FORMATTED              ACCESS:SEQUENTIAL          

 OPENING ..\data\supply.rch
 FILE TYPE:RCH   UNIT   15   STATUS:OLD    
 FORMAT:FORMATTED              ACCESS:SEQUENTIAL          

 OPENING ..\data\supply2.sfr
 FILE TYPE:SFR   UNIT   16   STATUS:OLD    
 FORMAT:FORMATTED              ACCESS:SEQUENTIAL          

 OPENING ..\data\supply.oc
 FILE TYPE:OC   UNIT   17   STATUS:OLD    
 FORMAT:FORMATTED              ACCESS:SEQUENTIAL          

 OPENING ..\data\supply.pcg
 FILE TYPE:PCG   UNIT   18   STATUS:OLD    
 FORMAT:FORMATTED              ACCESS:SEQUENTIAL          

 OPENING supply2.wel
 FILE TYPE:WEL   UNIT   19   STATUS:OLD    
 FORMAT:FORMATTED              ACCESS:SEQUENTIAL          

 OPENING supply2sf.cbc
 FILE TYPE:DATA(BINARY)   UNIT   50   STATUS:UNKNOWN
 FORMAT:BINARY                 ACCESS:SEQUENTIAL          

 OPENING supply2hd.bhd
 FILE TYPE:DATA(BINARY)   UNIT   51   STATUS:UNKNOWN
 FORMAT:BINARY                 ACCESS:SEQUENTIAL          

 BAS -- BASIC PACKAGE, VERSION 7, 5/2/2005 INPUT READ FROM UNIT   12
 
 MODFLOW was compiled using uniform precision
 Precision of REAL and DOUBLE PRECISION variables:          15

 DISCRETIZATION INPUT DATA READ FROM UNIT   11
    1 LAYERS        25 ROWS        30 COLUMNS
   12 STRESS PERIOD(S) IN SIMULATION
 MODEL TIME UNIT IS DAYS
 MODEL LENGTH UNIT IS UNDEFINED
  Confining bed flag for each layer:
   0

                     DELR =   200.000    

                     DELC =   200.000    

 TOP ELEVATION OF LAYER 1 =  100.0000    

   MODEL LAYER BOTTOM EL. =   0.00000     FOR LAYER   1


 STRESS PERIOD     LENGTH       TIME STEPS     MULTIPLIER FOR DELT    SS FLAG
 ----------------------------------------------------------------------------
        1         92.00000          1                    1.500         TR
        2         91.00000          1                    1.500         TR
        3         91.00000          1                    1.500         TR
        4         91.00000          1                    1.500         TR
        5         92.00000          1                    1.500         TR
        6         91.00000          1                    1.500         TR
        7         91.00000          1                    1.500         TR
        8         91.00000          1                    1.500         TR
        9         92.00000          1                    1.500         TR
       10         91.00000          1                    1.500         TR
       11         91.00000          1                    1.500         TR
       12         91.00000          1                    1.500         TR

 TRANSIENT SIMULATION



 
 #MODOFC transient water supply sample problem                                   
 #                                                                               
 THE FREE FORMAT OPTION HAS BEEN SELECTED



                     BOUNDARY ARRAY FOR LAYER   1
 READING ON UNIT   12 WITH FORMAT: (20I4)              

 AQUIFER HEAD WILL BE SET TO   0.0000     AT ALL NO-FLOW NODES (IBOUND=0).



                       INITIAL HEAD FOR LAYER   1
 READING ON UNIT   12 WITH FORMAT: (10F13.0)           

 OUTPUT CONTROL IS SPECIFIED ONLY AT TIME STEPS FOR WHICH OUTPUT IS DESIRED
 COMPACT CELL-BY-CELL BUDGET FILES WILL BE WRITTEN
 HEAD PRINT FORMAT CODE IS  18    DRAWDOWN PRINT FORMAT CODE IS   0
 HEADS WILL BE SAVED ON UNIT   51    DRAWDOWNS WILL BE SAVED ON UNIT    0

 BCF -- BLOCK-CENTERED FLOW PACKAGE, VERSION 7, 5/2/2005
         INPUT READ FROM UNIT 13
 TRANSIENT SIMULATION
 HEAD AT CELLS THAT CONVERT TO DRY=   0.0000    
 WETTING CAPABILITY IS NOT ACTIVE
      LAYER  LAYER-TYPE CODE     INTERBLOCK T
      --------------------------------------------
         1            0          0 -- HARMONIC    

 COLUMN TO ROW ANISOTROPY =  1.000000    

     PRIMARY STORAGE COEF =  5.000000E-02 FOR LAYER   1



               TRANSMIS. ALONG ROWS FOR LAYER   1
 READING ON UNIT   13 WITH FORMAT: (FREE)              

 WEL -- WELL PACKAGE, VERSION 7, 5/2/2005 INPUT READ FROM UNIT   19
 # Well package input file written by MMProc
 No named parameters
 MAXIMUM OF      8 ACTIVE WELLS AT ONE TIME


     0 Well parameters

 RCH -- RECHARGE PACKAGE, VERSION 7, 5/2/2005 INPUT READ FROM UNIT   15
 No named parameters
 OPTION 1 -- RECHARGE TO TOP LAYER


     0 Recharge parameters

 SFR7 -- STREAMFLOW ROUTING PACKAGE, VERSION 1.0.7, 2013-01-15
         INPUT READ FROM UNIT  16
 #  Supply2 test problem for GWM-VI
 #  The eighth entry in the first data line is ISTCB2 -
 #    Setting this to a negative number indicates that
 #    streamflows out of the reach will be saved to a
 #    binary file.  The absolute value of ISTCB2 is the
 #    unit to which unformatted flows will be written.
 #
 No named parameters
 Segment information will not be 
 read by reach
 No named parameters
 No specifed inflow files


 NUMBER OF STREAM REACHES IS   40

 NUMBER OF STREAM SEGMENTS IS    3

 NUMBER OF STREAM PARAMETERS IS    0

 NUMBER OF STREAM SEGMENTS DEFINED USING PARAMETERS IS              0

 MAXIMUM ERROR FOR STREAM LEAKAGE RATES IS  1.00E-04

 CONSTANT FOR MANNINGS EQUATION IS  1.2839E+05





   STREAM NETWORK DESCRIPTION: 

   LAYER    ROW    COL   SEGMENT   REACH     LENGTH
                          NUMBER   NUMBER    IN CELL        
   --------------------------------------------------
      1     13      1       1        1    2.0000E+02
      1     13      2       1        2    2.0000E+02
      1     14      3       1        3    2.0000E+02
      1     15      4       1        4    2.0000E+02
      1     16      5       1        5    2.0000E+02
      1     16      6       1        6    2.0000E+02
      1     16      7       1        7    2.0000E+02
      1     16      8       1        8    2.0000E+02
      1     16      9       1        9    2.0000E+02
      1     16     10       1       10    2.0000E+02
      1     16     11       1       11    2.0000E+02
      1     16     12       1       12    2.0000E+02
      1     15     13       1       13    2.0000E+02
      1     14     14       1       14    2.0000E+02
      1     13     15       1       15    2.0000E+02
      1     12     16       1       16    2.0000E+02
      1     12     17       1       17    2.0000E+02
      1     12     18       1       18    2.0000E+02
      1     12     19       1       19    2.0000E+02
      1     13     20       1       20    2.0000E+02
      1     14     21       1       21    2.0000E+02
      1     14     22       1       22    2.0000E+02
      1      9     30       2        1    2.0000E+02
      1      9     29       2        2    2.0000E+02
      1      9     28       2        3    2.0000E+02
      1      9     27       2        4    2.0000E+02
      1     10     26       2        5    2.0000E+02
      1     11     25       2        6    2.0000E+02
      1     12     24       2        7    2.0000E+02
      1     13     23       2        8    2.0000E+02
      1     14     22       2        9    2.0000E+02
      1     14     22       3        1    2.0000E+02
      1     15     23       3        2    2.0000E+02
      1     15     24       3        3    2.0000E+02
      1     15     25       3        4    2.0000E+02
      1     15     26       3        5    2.0000E+02
      1     16     27       3        6    2.0000E+02
      1     17     28       3        7    2.0000E+02
      1     18     29       3        8    2.0000E+02
      1     18     30       3        9    2.0000E+02




 PCG -- CONJUGATE-GRADIENT SOLUTION PACKAGE, VERSION 7, 5/2/2005
 MAXIMUM OF    500 CALLS OF SOLUTION ROUTINE
 MAXIMUM OF      5 INTERNAL ITERATIONS PER CALL TO SOLUTION ROUTINE
 MATRIX PRECONDITIONING TYPE :    1



                                    SOLUTION BY THE CONJUGATE-GRADIENT METHOD
                                   -------------------------------------------
                    MAXIMUM NUMBER OF CALLS TO PCG ROUTINE =      500
                        MAXIMUM ITERATIONS PER CALL TO PCG =        5
                               MATRIX PRECONDITIONING TYPE =        1
        RELAXATION FACTOR (ONLY USED WITH PRECOND. TYPE 1) =    0.10000E+01
 PARAMETER OF POLYNOMIAL PRECOND. = 2 (2) OR IS CALCULATED :        0
                         HEAD CHANGE CRITERION FOR CLOSURE =    0.10000E-05
                     RESIDUAL CHANGE CRITERION FOR CLOSURE =    0.10000E+01
            PCG HEAD AND RESIDUAL CHANGE PRINTOUT INTERVAL =        1
     PRINTING FROM SOLVER IS LIMITED(1) OR SUPPRESSED (>1) =        1
                            STEADY-STATE DAMPING PARAMETER =    0.10000E+01
                               TRANSIENT DAMPING PARAMETER =    0.10000E+01
1
                            STRESS PERIOD NO.    1, LENGTH =   92.00000    
                            -----------------------------------------------

                              NUMBER OF TIME STEPS =     1

                               MULTIPLIER FOR DELT =     1.500

                            INITIAL TIME STEP SIZE =   92.00000    

 WELL NO.  LAYER   ROW   COL   STRESS RATE         
 --------------------------------------------------
      1      1     14      6       0.000    
      2      1      3      9       0.000    
      3      1     20     10       0.000    
      4      1     14     20       0.000    
      5      1     12     11      -2057.    
      6      1     16     17     -0.1037E+05
      7      1     11     22     -0.1125E+05
      8      1     14     25      -1834.    

      8 WELLS

                 RECHARGE =  5.000000E-04



 CLASSIFICATION & COUNT OF STREAM SEGMENTS BASED ON SOURCE OF INFLOW:

                HEADWATER     DIVERSION     RECEIVES TRIBUTARY FLOW
                ---------     ---------     -----------------------
                     2              0               1



                    INPUT DATA FOR EACH STREAM SEGMENT
 ---------------------------------------------------------------------------------------------

 SEGMENT    SEG.     INFLOW   OVERLAND   STREAM    STREAM   ICALC  OUTFLOW  DIVERSION PRIORITY
    NO.    LENGTH     RATE     RUNOFF      ET       PPT.    METH.  TO SEG.  FROM SEG.    NO.

      1  4.400E+03 1.000E+05 0.000E+00 0.000E+00 0.000E+00    1        3        0        0
      2  1.800E+03 5.000E+04 0.000E+00 0.000E+00 0.000E+00    1        3        0        0
      3  1.800E+03 0.000E+00 0.000E+00 0.000E+00 0.000E+00    1        0        0        0


         STREAMBED PROPERTIES AND STREAM DIMENSIONS

 SEGMENT     BED HYD. COND.      BED THICKNESS     ELEV.-TOP OF BED     WIDTH OF STREAM     DEPTH OF STREAM    STREAM ROUGHNESS
    No.     UPPER     LOWER     UPPER     LOWER     UPPER     LOWER     UPPER     LOWER     UPPER     LOWER   CHANNEL      BANK

     1  5.000E+00 5.000E+00 1.000E+00 1.000E+00 4.850E+01 3.800E+01 2.000E+01 2.000E+01                     5.000E-02
     2  5.000E+00 5.000E+00 1.000E+00 1.000E+00 4.025E+01 3.800E+01 2.000E+01 2.000E+01                     5.000E-02
     3  5.000E+00 5.000E+00 1.000E+00 1.000E+00 3.800E+01 3.000E+01 2.000E+01 2.000E+01                     5.000E-02



 
 SOLVING FOR HEAD 


     9 CALLS TO PCG ROUTINE FOR TIME STEP   1 IN STRESS PERIOD    1
    36 TOTAL ITERATIONS

 OUTPUT CONTROL FOR STRESS PERIOD    1   TIME STEP    1
    SAVE BUDGET
    SAVE HEAD FOR ALL LAYERS
    PRINT HEAD FOR ALL LAYERS
 UBDSV2 SAVING "STREAMFLOW OUT  " ON UNIT  50 AT TIME STEP  1, STRESS PERIOD   1



 STREAM LISTING     PERIOD      1   STEP        1

 LAYER ROW COL. STREAM  RCH.  FLOW INTO     FLOW TO   FLOW OUT OF   OVRLND.     DIRECT     STREAM       STREAM     STREAM     STREAM   STREAMBED  STREAMBED
                SEG.NO.  NO.  STRM. RCH.    AQUIFER    STRM. RCH.    RUNOFF     PRECIP       ET          HEAD       DEPTH      WIDTH   CONDCTNC.   GRADIENT

   1   13    1     1     1    1.0000E+05 -6.1204E+03   1.0612E+05  0.000E+00  0.000E+00  0.000E+00  4.84087E+01  1.473E-01  2.000E+01  2.000E+04 -3.060E-01
   1   13    2     1     2    1.0612E+05 -7.5896E+03   1.1371E+05  0.000E+00  0.000E+00  0.000E+00  4.79372E+01  1.531E-01  2.000E+01  2.000E+04 -3.795E-01
   1   14    3     1     3    1.1371E+05 -2.1978E+03   1.1591E+05  0.000E+00  0.000E+00  0.000E+00  4.74640E+01  1.571E-01  2.000E+01  2.000E+04 -1.099E-01
   1   15    4     1     4    1.1591E+05 -2.2684E+03   1.1818E+05  0.000E+00  0.000E+00  0.000E+00  4.69885E+01  1.590E-01  2.000E+01  2.000E+04 -1.134E-01
   1   16    5     1     5    1.1818E+05 -7.1715E+03   1.2535E+05  0.000E+00  0.000E+00  0.000E+00  4.65151E+01  1.628E-01  2.000E+01  2.000E+04 -3.586E-01
   1   16    6     1     6    1.2535E+05 -4.2903E+03   1.2964E+05  0.000E+00  0.000E+00  0.000E+00  4.60423E+01  1.673E-01  2.000E+01  2.000E+04 -2.145E-01
   1   16    7     1     7    1.2964E+05 -4.1188E+03   1.3376E+05  0.000E+00  0.000E+00  0.000E+00  4.55684E+01  1.706E-01  2.000E+01  2.000E+04 -2.059E-01
   1   16    8     1     8    1.3376E+05 -4.0670E+03   1.3782E+05  0.000E+00  0.000E+00  0.000E+00  4.50943E+01  1.738E-01  2.000E+01  2.000E+04 -2.033E-01
   1   16    9     1     9    1.3782E+05 -4.0386E+03   1.4186E+05  0.000E+00  0.000E+00  0.000E+00  4.46201E+01  1.769E-01  2.000E+01  2.000E+04 -2.019E-01
   1   16   10     1    10    1.4186E+05 -4.0082E+03   1.4587E+05  0.000E+00  0.000E+00  0.000E+00  4.41458E+01  1.799E-01  2.000E+01  2.000E+04 -2.004E-01
   1   16   11     1    11    1.4587E+05 -3.9947E+03   1.4987E+05  0.000E+00  0.000E+00  0.000E+00  4.36716E+01  1.829E-01  2.000E+01  2.000E+04 -1.997E-01
   1   16   12     1    12    1.4987E+05 -6.5096E+03   1.5637E+05  0.000E+00  0.000E+00  0.000E+00  4.31981E+01  1.868E-01  2.000E+01  2.000E+04 -3.255E-01
   1   15   13     1    13    1.5637E+05 -6.5243E+03   1.6290E+05  0.000E+00  0.000E+00  0.000E+00  4.27256E+01  1.915E-01  2.000E+01  2.000E+04 -3.262E-01
   1   14   14     1    14    1.6290E+05 -6.8198E+03   1.6972E+05  0.000E+00  0.000E+00  0.000E+00  4.22531E+01  1.963E-01  2.000E+01  2.000E+04 -3.410E-01
   1   13   15     1    15    1.6972E+05 -7.2597E+03   1.7698E+05  0.000E+00  0.000E+00  0.000E+00  4.17808E+01  2.012E-01  2.000E+01  2.000E+04 -3.630E-01
   1   12   16     1    16    1.7698E+05 -8.3396E+03   1.8532E+05  0.000E+00  0.000E+00  0.000E+00  4.13089E+01  2.066E-01  2.000E+01  2.000E+04 -4.170E-01
   1   12   17     1    17    1.8532E+05 -5.7031E+03   1.9102E+05  0.000E+00  0.000E+00  0.000E+00  4.08364E+01  2.114E-01  2.000E+01  2.000E+04 -2.852E-01
   1   12   18     1    18    1.9102E+05 -5.4860E+03   1.9651E+05  0.000E+00  0.000E+00  0.000E+00  4.03629E+01  2.151E-01  2.000E+01  2.000E+04 -2.743E-01
   1   12   19     1    19    1.9651E+05 -6.4571E+03   2.0296E+05  0.000E+00  0.000E+00  0.000E+00  3.98895E+01  2.191E-01  2.000E+01  2.000E+04 -3.229E-01
   1   13   20     1    20    2.0296E+05 -5.1964E+03   2.0816E+05  0.000E+00  0.000E+00  0.000E+00  3.94161E+01  2.229E-01  2.000E+01  2.000E+04 -2.598E-01
   1   14   21     1    21    2.0816E+05 -5.2594E+03   2.1342E+05  0.000E+00  0.000E+00  0.000E+00  3.89422E+01  2.263E-01  2.000E+01  2.000E+04 -2.630E-01
   1   14   22     1    22    2.1342E+05  4.0121E+03   2.0941E+05  0.000E+00  0.000E+00  0.000E+00  3.84653E+01  2.267E-01  2.000E+01  2.000E+04  2.006E-01
   1    9   30     2     1    5.0000E+04 -4.8164E+03   5.4816E+04  0.000E+00  0.000E+00  0.000E+00  4.02442E+01  1.192E-01  2.000E+01  2.000E+04 -2.408E-01
   1    9   29     2     2    5.4816E+04 -5.1038E+03   5.9920E+04  0.000E+00  0.000E+00  0.000E+00  4.00008E+01  1.258E-01  2.000E+01  2.000E+04 -2.552E-01
   1    9   28     2     3    5.9920E+04 -5.3667E+03   6.5287E+04  0.000E+00  0.000E+00  0.000E+00  3.97576E+01  1.326E-01  2.000E+01  2.000E+04 -2.683E-01
   1    9   27     2     4    6.5287E+04 -8.0597E+03   7.3347E+04  0.000E+00  0.000E+00  0.000E+00  3.95160E+01  1.410E-01  2.000E+01  2.000E+04 -4.030E-01
   1   10   26     2     5    7.3347E+04 -6.8674E+03   8.0214E+04  0.000E+00  0.000E+00  0.000E+00  3.92749E+01  1.499E-01  2.000E+01  2.000E+04 -3.434E-01
   1   11   25     2     6    8.0214E+04 -5.6753E+03   8.5889E+04  0.000E+00  0.000E+00  0.000E+00  3.90321E+01  1.571E-01  2.000E+01  2.000E+04 -2.838E-01
   1   12   24     2     7    8.5889E+04 -4.1810E+03   9.0070E+04  0.000E+00  0.000E+00  0.000E+00  3.87876E+01  1.626E-01  2.000E+01  2.000E+04 -2.090E-01
   1   13   23     2     8    9.0070E+04 -1.1942E+03   9.1264E+04  0.000E+00  0.000E+00  0.000E+00  3.85406E+01  1.656E-01  2.000E+01  2.000E+04 -5.971E-02
   1   14   22     2     9    9.1264E+04  5.2506E+02   9.0739E+04  0.000E+00  0.000E+00  0.000E+00  3.82910E+01  1.660E-01  2.000E+01  2.000E+04  2.625E-02
   1   14   22     3     1    3.0015E+05 -9.4968E+03   3.0964E+05  0.000E+00  0.000E+00  0.000E+00  3.77899E+01  2.343E-01  2.000E+01  2.000E+04 -4.748E-01
   1   15   23     3     2    3.0964E+05 -1.8949E+03   3.1154E+05  0.000E+00  0.000E+00  0.000E+00  3.69036E+01  2.369E-01  2.000E+01  2.000E+04 -9.474E-02
   1   15   24     3     3    3.1154E+05 -1.3910E+03   3.1293E+05  0.000E+00  0.000E+00  0.000E+00  3.60155E+01  2.377E-01  2.000E+01  2.000E+04 -6.955E-02
   1   15   25     3     4    3.1293E+05 -1.0803E+03   3.1401E+05  0.000E+00  0.000E+00  0.000E+00  3.51271E+01  2.382E-01  2.000E+01  2.000E+04 -5.402E-02
   1   15   26     3     5    3.1401E+05 -1.7417E+03   3.1575E+05  0.000E+00  0.000E+00  0.000E+00  3.42389E+01  2.389E-01  2.000E+01  2.000E+04 -8.708E-02
   1   16   27     3     6    3.1575E+05 -2.1513E+03   3.1790E+05  0.000E+00  0.000E+00  0.000E+00  3.33509E+01  2.398E-01  2.000E+01  2.000E+04 -1.076E-01
   1   17   28     3     7    3.1790E+05 -6.5468E+03   3.2445E+05  0.000E+00  0.000E+00  0.000E+00  3.24640E+01  2.417E-01  2.000E+01  2.000E+04 -3.273E-01
   1   18   29     3     8    3.2445E+05 -7.9613E+03   3.3241E+05  0.000E+00  0.000E+00  0.000E+00  3.15783E+01  2.450E-01  2.000E+01  2.000E+04 -3.981E-01
   1   18   30     3     9    3.3241E+05 -7.1522E+03   3.3956E+05  0.000E+00  0.000E+00  0.000E+00  3.06928E+01  2.484E-01  2.000E+01  2.000E+04 -3.576E-01



1
              HEAD IN LAYER   1 AT END OF TIME STEP   1 IN STRESS PERIOD    1
  ---------------------------------------------------------------------------

          1      2      3      4      5      6      7      8      9     10
         11     12     13     14     15     16     17     18     19     20
         21     22     23     24     25     26     27     28     29     30
 .........................................................................
   1  ****** ****** ****** ****** ****** ****** ****** ****** ****** ******
      ****** ****** ****** ****** ****** ****** ****** ****** ****** ******
      ****** ****** ****** ****** ****** ****** ****** ****** ****** ******
   2  ****** ****** ****** ****** ****** ****** ****** ****** ****** ******
      ****** ****** ****** ****** ****** ****** ****** ****** ****** ******
      ****** ****** ****** ****** ****** ****** ****** ****** ****** ******
   3  ****** ****** ****** ****** ****** ****** ****** ****** ****** ******
      ****** ****** ****** ****** ****** ****** ****** ****** ****** ******
      ****** ****** ****** ****** ****** ****** ****** ****** ****** ******
   4  ****** ****** ****** ****** ****** ****** ****** ****** ****** ******
      ****** ****** ****** ****** ****** ****** ****** ****** ****** ******
      ****** ****** ****** ****** ****** ****** ****** ****** ****** ******
   5  ****** ****** ****** ****** ****** ****** ****** ****** ****** ******
      ****** ****** ****** ****** ****** ****** ****** ****** ****** ******
      ****** ****** ****** ****** ****** ****** ****** ****** ****** ******
   6  ****** ****** ****** ****** ****** ****** ****** ****** ****** ******
      ****** ****** ****** ****** ****** ****** ****** ****** ****** ******
      ****** ****** ****** ****** ****** ****** ****** ****** ****** ******
   7  ****** ****** ****** ****** ****** ****** ****** ****** ****** ******
      ****** ****** ****** ****** ****** ****** ****** ****** ****** ******
      ****** ****** ****** ****** ****** ****** ****** ****** ****** ******
   8  ****** ****** ****** ****** ****** ****** ****** ****** ****** ******
      ****** ****** ****** ****** ****** ****** ****** ****** ****** ******
      ****** ****** ****** ****** ****** ****** ****** ****** ****** ******
   9  ****** ****** ****** ****** ****** ****** ****** ****** ****** ******
      ****** ****** ****** ****** ****** ****** ****** ****** ****** ******
      ****** ****** ****** ****** ****** ****** ****** ****** ****** ******
  10  ****** ****** ****** ****** ****** ****** ****** ****** ****** ******
      ****** ****** ****** ****** ****** ****** ****** ****** ****** ******
      ****** ****** ****** ****** ****** ****** ****** ****** ****** ******
  11  ****** ****** ****** ****** ****** ****** ****** ****** ****** ******
      ****** ****** ****** ****** ****** ****** ****** ****** ****** ******
      ****** ****** ****** ****** ****** ****** ****** ****** ****** ******
  12  ****** ****** ****** ****** ****** ****** ****** ****** ****** ******
      ****** ****** ****** ****** ****** ****** ****** ****** ****** ******
      ****** ****** ****** ****** ****** ****** ****** ****** ****** ******
  13  ****** ****** ****** ****** ****** ****** ****** ****** ****** ******
      ****** ****** ****** ****** ****** ****** ****** ****** ****** ******
      ****** ****** ****** ****** ****** ****** ****** ****** ****** ******
  14  ****** ****** ****** ****** ****** ****** ****** ****** ****** ******
      ****** ****** ****** ****** ****** ****** ****** ****** ****** ******
      ****** ****** ****** ****** ****** ****** ****** ****** ****** ******
  15  ****** ****** ****** ****** ****** ****** ****** ****** ****** ******
      ****** ****** ****** ****** ****** ****** ****** ****** ****** ******
      ****** ****** ****** ****** ****** ****** ****** ****** ****** ******
  16  ****** ****** ****** ****** ****** ****** ****** ****** ****** ******
      ****** ****** ****** ****** ****** ****** ****** ****** ****** ******
      ****** ****** ****** ****** ****** ****** ****** ****** ****** ******
  17  ****** ****** ****** ****** ****** ****** ****** ****** ****** ******
      ****** ****** ****** ****** ****** ****** ****** ****** ****** ******
      ****** ****** ****** ****** ****** ****** ****** ****** ****** ******
  18  ****** ****** ****** ****** ****** ****** ****** ****** ****** ******
      ****** ****** ****** ****** ****** ****** ****** ****** ****** ******
      ****** ****** ****** ****** ****** ****** ****** ****** ****** ******
  19  ****** ****** ****** ****** ****** ****** ****** ****** ****** ******
      ****** ****** ****** ****** ****** ****** ****** ****** ****** ******
      ****** ****** ****** ****** ****** ****** ****** ****** ****** ******
  20  ****** ****** ****** ****** ****** ****** ****** ****** ****** ******
      ****** ****** ****** ****** ****** ****** ****** ****** ****** ******
      ****** ****** ****** ****** ****** ****** ****** ****** ****** ******
  21  ****** ****** ****** ****** ****** ****** ****** ****** ****** ******
      ****** ****** ****** ****** ****** ****** ****** ****** ****** ******
      ****** ****** ****** ****** ****** ****** ****** ****** ****** ******
  22  ****** ****** ****** ****** ****** ****** ****** ****** ****** ******
      ****** ****** ****** ****** ****** ****** ****** ****** ****** ******
      ****** ****** ****** ****** ****** ****** ****** ****** ****** ******
  23  ****** ****** ****** ****** ****** ****** ****** ****** ****** ******
      ****** ****** ****** ****** ****** ****** ****** ****** ****** ******
      ****** ****** ****** ****** ****** ****** ****** ****** ****** ******
  24  ****** ****** ****** ****** ****** ****** ****** ****** ****** ******
      ****** ****** ****** ****** ****** ****** ****** ****** ****** ******
      ****** ****** ****** ****** ****** ****** ****** ****** ****** ******
  25  ****** ****** ****** ****** ****** ****** ****** ****** ****** ******
      ****** ****** ****** ****** ****** ****** ****** ****** ****** ******
      ****** ****** ****** ****** ****** ****** ****** ****** ****** ******

 HEAD WILL BE SAVED ON UNIT   51 AT END OF TIME STEP    1, STRESS PERIOD    1
1
  VOLUMETRIC BUDGET FOR ENTIRE MODEL AT END OF TIME STEP    1, STRESS PERIOD   1
  ------------------------------------------------------------------------------

     CUMULATIVE VOLUMES      L**3       RATES FOR THIS TIME STEP      L**3/T
     ------------------                 ------------------------

           IN:                                      IN:
           ---                                      ---
             STORAGE =    17404914.6324               STORAGE =      189183.8547
       CONSTANT HEAD =     1112274.9918         CONSTANT HEAD =       12089.9456
               WELLS =           0.0000                 WELLS =           0.0000
            RECHARGE =     1269600.0000              RECHARGE =       13800.0000
      STREAM LEAKAGE =      417418.6873        STREAM LEAKAGE =        4537.1596

            TOTAL IN =    20204208.3116              TOTAL IN =      219610.9599

          OUT:                                     OUT:
          ----                                     ----
             STORAGE =           0.0000               STORAGE =           0.0000
       CONSTANT HEAD =           0.0000         CONSTANT HEAD =           0.0000
               WELLS =     2346906.6373                 WELLS =       25509.8548
            RECHARGE =           0.0000              RECHARGE =           0.0000
      STREAM LEAKAGE =    17857301.9597        STREAM LEAKAGE =      194101.1083

           TOTAL OUT =    20204208.5971             TOTAL OUT =      219610.9630

            IN - OUT =          -0.2855              IN - OUT =      -3.1033E-03

 PERCENT DISCREPANCY =          -0.00     PERCENT DISCREPANCY =          -0.00






         TIME SUMMARY AT END OF TIME STEP    1 IN STRESS PERIOD    1
                    SECONDS     MINUTES      HOURS       DAYS        YEARS
                    -----------------------------------------------------------
   TIME STEP LENGTH 7.94880E+06 1.32480E+05  2208.0      92.000     0.25188    
 STRESS PERIOD TIME 7.94880E+06 1.32480E+05  2208.0      92.000     0.25188    
         TOTAL TIME 7.94880E+06 1.32480E+05  2208.0      92.000     0.25188    
1
1
                            STRESS PERIOD NO.    2, LENGTH =   91.00000    
                            -----------------------------------------------

                              NUMBER OF TIME STEPS =     1

                               MULTIPLIER FOR DELT =     1.500

                            INITIAL TIME STEP SIZE =   91.00000    

 WELL NO.  LAYER   ROW   COL   STRESS RATE         
 --------------------------------------------------
      1      1     14      6       0.000    
      2      1      3      9       0.000    
      3      1     20     10       0.000    
      4      1     14     20       0.000    
      5      1     12     11      -2057.    
      6      1     16     17     -0.1037E+05
      7      1     11     22     -0.1125E+05
      8      1     14     25      -1834.    

      8 WELLS

                 RECHARGE =  2.000000E-03

 REUSING STREAM SEGMENT DATA FROM LAST STRESS PERIOD
 
 SOLVING FOR HEAD 


     7 CALLS TO PCG ROUTINE FOR TIME STEP   1 IN STRESS PERIOD    2
    27 TOTAL ITERATIONS

 OUTPUT CONTROL FOR STRESS PERIOD    2   TIME STEP    1
    SAVE BUDGET
    SAVE HEAD FOR ALL LAYERS
    PRINT HEAD FOR ALL LAYERS
 UBDSV2 SAVING "STREAMFLOW OUT  " ON UNIT  50 AT TIME STEP  1, STRESS PERIOD   2



 STREAM LISTING     PERIOD      2   STEP        1

 LAYER ROW COL. STREAM  RCH.  FLOW INTO     FLOW TO   FLOW OUT OF   OVRLND.     DIRECT     STREAM       STREAM     STREAM     STREAM   STREAMBED  STREAMBED
                SEG.NO.  NO.  STRM. RCH.    AQUIFER    STRM. RCH.    RUNOFF     PRECIP       ET          HEAD       DEPTH      WIDTH   CONDCTNC.   GRADIENT

   1   13    1     1     1    1.0000E+05 -4.0038E+03   1.0400E+05  0.000E+00  0.000E+00  0.000E+00  4.84077E+01  1.464E-01  2.000E+01  2.000E+04 -2.002E-01
   1   13    2     1     2    1.0400E+05 -5.2648E+03   1.0927E+05  0.000E+00  0.000E+00  0.000E+00  4.79344E+01  1.503E-01  2.000E+01  2.000E+04 -2.632E-01
   1   14    3     1     3    1.0927E+05 -1.1132E+03   1.1038E+05  0.000E+00  0.000E+00  0.000E+00  4.74598E+01  1.530E-01  2.000E+01  2.000E+04 -5.566E-02
   1   15    4     1     4    1.1038E+05 -1.1393E+03   1.1152E+05  0.000E+00  0.000E+00  0.000E+00  4.69835E+01  1.540E-01  2.000E+01  2.000E+04 -5.696E-02
   1   16    5     1     5    1.1152E+05 -4.2250E+03   1.1575E+05  0.000E+00  0.000E+00  0.000E+00  4.65085E+01  1.562E-01  2.000E+01  2.000E+04 -2.112E-01
   1   16    6     1     6    1.1575E+05 -2.4808E+03   1.1823E+05  0.000E+00  0.000E+00  0.000E+00  4.60339E+01  1.589E-01  2.000E+01  2.000E+04 -1.240E-01
   1   16    7     1     7    1.1823E+05 -2.3750E+03   1.2060E+05  0.000E+00  0.000E+00  0.000E+00  4.55586E+01  1.609E-01  2.000E+01  2.000E+04 -1.188E-01
   1   16    8     1     8    1.2060E+05 -2.3272E+03   1.2293E+05  0.000E+00  0.000E+00  0.000E+00  4.50832E+01  1.628E-01  2.000E+01  2.000E+04 -1.164E-01
   1   16    9     1     9    1.2293E+05 -2.2784E+03   1.2521E+05  0.000E+00  0.000E+00  0.000E+00  4.46078E+01  1.646E-01  2.000E+01  2.000E+04 -1.139E-01
   1   16   10     1    10    1.2521E+05 -2.2139E+03   1.2742E+05  0.000E+00  0.000E+00  0.000E+00  4.41323E+01  1.664E-01  2.000E+01  2.000E+04 -1.107E-01
   1   16   11     1    11    1.2742E+05 -2.1551E+03   1.2958E+05  0.000E+00  0.000E+00  0.000E+00  4.36568E+01  1.681E-01  2.000E+01  2.000E+04 -1.078E-01
   1   16   12     1    12    1.2958E+05 -3.4525E+03   1.3303E+05  0.000E+00  0.000E+00  0.000E+00  4.31817E+01  1.703E-01  2.000E+01  2.000E+04 -1.726E-01
   1   15   13     1    13    1.3303E+05 -3.0785E+03   1.3611E+05  0.000E+00  0.000E+00  0.000E+00  4.27069E+01  1.729E-01  2.000E+01  2.000E+04 -1.539E-01
   1   14   14     1    14    1.3611E+05 -3.2436E+03   1.3935E+05  0.000E+00  0.000E+00  0.000E+00  4.22321E+01  1.753E-01  2.000E+01  2.000E+04 -1.622E-01
   1   13   15     1    15    1.3935E+05 -3.7298E+03   1.4308E+05  0.000E+00  0.000E+00  0.000E+00  4.17575E+01  1.779E-01  2.000E+01  2.000E+04 -1.865E-01
   1   12   16     1    16    1.4308E+05 -5.0987E+03   1.4818E+05  0.000E+00  0.000E+00  0.000E+00  4.12835E+01  1.812E-01  2.000E+01  2.000E+04 -2.549E-01
   1   12   17     1    17    1.4818E+05 -3.1010E+03   1.5128E+05  0.000E+00  0.000E+00  0.000E+00  4.08093E+01  1.843E-01  2.000E+01  2.000E+04 -1.550E-01
   1   12   18     1    18    1.5128E+05 -2.8661E+03   1.5415E+05  0.000E+00  0.000E+00  0.000E+00  4.03342E+01  1.865E-01  2.000E+01  2.000E+04 -1.433E-01
   1   12   19     1    19    1.5415E+05 -3.1528E+03   1.5730E+05  0.000E+00  0.000E+00  0.000E+00  3.98591E+01  1.887E-01  2.000E+01  2.000E+04 -1.576E-01
   1   13   20     1    20    1.5730E+05 -1.8344E+03   1.5913E+05  0.000E+00  0.000E+00  0.000E+00  3.93837E+01  1.905E-01  2.000E+01  2.000E+04 -9.172E-02
   1   14   21     1    21    1.5913E+05 -2.2954E+03   1.6143E+05  0.000E+00  0.000E+00  0.000E+00  3.89079E+01  1.920E-01  2.000E+01  2.000E+04 -1.148E-01
   1   14   22     1    22    1.6143E+05  4.8256E+03   1.5660E+05  0.000E+00  0.000E+00  0.000E+00  3.84297E+01  1.911E-01  2.000E+01  2.000E+04  2.413E-01
   1    9   30     2     1    5.0000E+04 -2.0823E+03   5.2082E+04  0.000E+00  0.000E+00  0.000E+00  4.02423E+01  1.173E-01  2.000E+01  2.000E+04 -1.041E-01
   1    9   29     2     2    5.2082E+04 -2.3812E+03   5.4463E+04  0.000E+00  0.000E+00  0.000E+00  3.99954E+01  1.204E-01  2.000E+01  2.000E+04 -1.191E-01
   1    9   28     2     3    5.4463E+04 -2.6560E+03   5.7119E+04  0.000E+00  0.000E+00  0.000E+00  3.97487E+01  1.237E-01  2.000E+01  2.000E+04 -1.328E-01
   1    9   27     2     4    5.7119E+04 -4.5405E+03   6.1660E+04  0.000E+00  0.000E+00  0.000E+00  3.95035E+01  1.285E-01  2.000E+01  2.000E+04 -2.270E-01
   1   10   26     2     5    6.1660E+04 -3.1757E+03   6.4836E+04  0.000E+00  0.000E+00  0.000E+00  3.92584E+01  1.334E-01  2.000E+01  2.000E+04 -1.588E-01
   1   11   25     2     6    6.4836E+04 -2.0695E+03   6.6905E+04  0.000E+00  0.000E+00  0.000E+00  3.90117E+01  1.367E-01  2.000E+01  2.000E+04 -1.035E-01
   1   12   24     2     7    6.6905E+04 -8.4342E+02   6.7749E+04  0.000E+00  0.000E+00  0.000E+00  3.87635E+01  1.385E-01  2.000E+01  2.000E+04 -4.217E-02
   1   13   23     2     8    6.7749E+04 -8.9826E+01   6.7838E+04  0.000E+00  0.000E+00  0.000E+00  3.85141E+01  1.391E-01  2.000E+01  2.000E+04 -4.491E-03
   1   14   22     2     9    6.7838E+04  1.4959E+03   6.6343E+04  0.000E+00  0.000E+00  0.000E+00  3.82632E+01  1.382E-01  2.000E+01  2.000E+04  7.479E-02
   1   14   22     3     1    2.2295E+05 -8.7282E+03   2.3167E+05  0.000E+00  0.000E+00  0.000E+00  3.77520E+01  1.965E-01  2.000E+01  2.000E+04 -4.364E-01
   1   15   23     3     2    2.3167E+05 -9.1643E+02   2.3259E+05  0.000E+00  0.000E+00  0.000E+00  3.68656E+01  1.989E-01  2.000E+01  2.000E+04 -4.582E-02
   1   15   24     3     3    2.3259E+05 -4.8285E+02   2.3307E+05  0.000E+00  0.000E+00  0.000E+00  3.59771E+01  1.993E-01  2.000E+01  2.000E+04 -2.414E-02
   1   15   25     3     4    2.3307E+05 -9.4994E+01   2.3317E+05  0.000E+00  0.000E+00  0.000E+00  3.50883E+01  1.995E-01  2.000E+01  2.000E+04 -4.750E-03
   1   15   26     3     5    2.3317E+05 -5.8874E+02   2.3376E+05  0.000E+00  0.000E+00  0.000E+00  3.41996E+01  1.996E-01  2.000E+01  2.000E+04 -2.944E-02
   1   16   27     3     6    2.3376E+05 -8.7535E+02   2.3463E+05  0.000E+00  0.000E+00  0.000E+00  3.33111E+01  2.000E-01  2.000E+01  2.000E+04 -4.377E-02
   1   17   28     3     7    2.3463E+05 -3.1954E+03   2.3783E+05  0.000E+00  0.000E+00  0.000E+00  3.24233E+01  2.010E-01  2.000E+01  2.000E+04 -1.598E-01
   1   18   29     3     8    2.3783E+05 -4.9827E+03   2.4281E+05  0.000E+00  0.000E+00  0.000E+00  3.15365E+01  2.031E-01  2.000E+01  2.000E+04 -2.491E-01
   1   18   30     3     9    2.4281E+05 -4.6362E+03   2.4745E+05  0.000E+00  0.000E+00  0.000E+00  3.06500E+01  2.056E-01  2.000E+01  2.000E+04 -2.318E-01



1
              HEAD IN LAYER   1 AT END OF TIME STEP   1 IN STRESS PERIOD    2
  ---------------------------------------------------------------------------

          1      2      3      4      5      6      7      8      9     10
         11     12     13     14     15     16     17     18     19     20
         21     22     23     24     25     26     27     28     29     30
 .........................................................................
   1  ****** ****** ****** ****** ****** ****** ****** ****** ****** ******
      ****** ****** ****** ****** ****** ****** ****** ****** ****** ******
      ****** ****** ****** ****** ****** ****** ****** ****** ****** ******
   2  ****** ****** ****** ****** ****** ****** ****** ****** ****** ******
      ****** ****** ****** ****** ****** ****** ****** ****** ****** ******
      ****** ****** ****** ****** ****** ****** ****** ****** ****** ******
   3  ****** ****** ****** ****** ****** ****** ****** ****** ****** ******
      ****** ****** ****** ****** ****** ****** ****** ****** ****** ******
      ****** ****** ****** ****** ****** ****** ****** ****** ****** ******
   4  ****** ****** ****** ****** ****** ****** ****** ****** ****** ******
      ****** ****** ****** ****** ****** ****** ****** ****** ****** ******
      ****** ****** ****** ****** ****** ****** ****** ****** ****** ******
   5  ****** ****** ****** ****** ****** ****** ****** ****** ****** ******
      ****** ****** ****** ****** ****** ****** ****** ****** ****** ******
      ****** ****** ****** ****** ****** ****** ****** ****** ****** ******
   6  ****** ****** ****** ****** ****** ****** ****** ****** ****** ******
      ****** ****** ****** ****** ****** ****** ****** ****** ****** ******
      ****** ****** ****** ****** ****** ****** ****** ****** ****** ******
   7  ****** ****** ****** ****** ****** ****** ****** ****** ****** ******
      ****** ****** ****** ****** ****** ****** ****** ****** ****** ******
      ****** ****** ****** ****** ****** ****** ****** ****** ****** ******
   8  ****** ****** ****** ****** ****** ****** ****** ****** ****** ******
      ****** ****** ****** ****** ****** ****** ****** ****** ****** ******
      ****** ****** ****** ****** ****** ****** ****** ****** ****** ******
   9  ****** ****** ****** ****** ****** ****** ****** ****** ****** ******
      ****** ****** ****** ****** ****** ****** ****** ****** ****** ******
      ****** ****** ****** ****** ****** ****** ****** ****** ****** ******
  10  ****** ****** ****** ****** ****** ****** ****** ****** ****** ******
      ****** ****** ****** ****** ****** ****** ****** ****** ****** ******
      ****** ****** ****** ****** ****** ****** ****** ****** ****** ******
  11  ****** ****** ****** ****** ****** ****** ****** ****** ****** ******
      ****** ****** ****** ****** ****** ****** ****** ****** ****** ******
      ****** ****** ****** ****** ****** ****** ****** ****** ****** ******
  12  ****** ****** ****** ****** ****** ****** ****** ****** ****** ******
      ****** ****** ****** ****** ****** ****** ****** ****** ****** ******
      ****** ****** ****** ****** ****** ****** ****** ****** ****** ******
  13  ****** ****** ****** ****** ****** ****** ****** ****** ****** ******
      ****** ****** ****** ****** ****** ****** ****** ****** ****** ******
      ****** ****** ****** ****** ****** ****** ****** ****** ****** ******
  14  ****** ****** ****** ****** ****** ****** ****** ****** ****** ******
      ****** ****** ****** ****** ****** ****** ****** ****** ****** ******
      ****** ****** ****** ****** ****** ****** ****** ****** ****** ******
  15  ****** ****** ****** ****** ****** ****** ****** ****** ****** ******
      ****** ****** ****** ****** ****** ****** ****** ****** ****** ******
      ****** ****** ****** ****** ****** ****** ****** ****** ****** ******
  16  ****** ****** ****** ****** ****** ****** ****** ****** ****** ******
      ****** ****** ****** ****** ****** ****** ****** ****** ****** ******
      ****** ****** ****** ****** ****** ****** ****** ****** ****** ******
  17  ****** ****** ****** ****** ****** ****** ****** ****** ****** ******
      ****** ****** ****** ****** ****** ****** ****** ****** ****** ******
      ****** ****** ****** ****** ****** ****** ****** ****** ****** ******
  18  ****** ****** ****** ****** ****** ****** ****** ****** ****** ******
      ****** ****** ****** ****** ****** ****** ****** ****** ****** ******
      ****** ****** ****** ****** ****** ****** ****** ****** ****** ******
  19  ****** ****** ****** ****** ****** ****** ****** ****** ****** ******
      ****** ****** ****** ****** ****** ****** ****** ****** ****** ******
      ****** ****** ****** ****** ****** ****** ****** ****** ****** ******
  20  ****** ****** ****** ****** ****** ****** ****** ****** ****** ******
      ****** ****** ****** ****** ****** ****** ****** ****** ****** ******
      ****** ****** ****** ****** ****** ****** ****** ****** ****** ******
  21  ****** ****** ****** ****** ****** ****** ****** ****** ****** ******
      ****** ****** ****** ****** ****** ****** ****** ****** ****** ******
      ****** ****** ****** ****** ****** ****** ****** ****** ****** ******
  22  ****** ****** ****** ****** ****** ****** ****** ****** ****** ******
      ****** ****** ****** ****** ****** ****** ****** ****** ****** ******
      ****** ****** ****** ****** ****** ****** ****** ****** ****** ******
  23  ****** ****** ****** ****** ****** ****** ****** ****** ****** ******
      ****** ****** ****** ****** ****** ****** ****** ****** ****** ******
      ****** ****** ****** ****** ****** ****** ****** ****** ****** ******
  24  ****** ****** ****** ****** ****** ****** ****** ****** ****** ******
      ****** ****** ****** ****** ****** ****** ****** ****** ****** ******
      ****** ****** ****** ****** ****** ****** ****** ****** ****** ******
  25  ****** ****** ****** ****** ****** ****** ****** ****** ****** ******
      ****** ****** ****** ****** ****** ****** ****** ****** ****** ******
      ****** ****** ****** ****** ****** ****** ****** ****** ****** ******

 HEAD WILL BE SAVED ON UNIT   51 AT END OF TIME STEP    1, STRESS PERIOD    2
1
  VOLUMETRIC BUDGET FOR ENTIRE MODEL AT END OF TIME STEP    1, STRESS PERIOD   2
  ------------------------------------------------------------------------------

     CUMULATIVE VOLUMES      L**3       RATES FOR THIS TIME STEP      L**3/T
     ------------------                 ------------------------

           IN:                                      IN:
           ---                                      ---
             STORAGE =    22094516.2286               STORAGE =       51534.0835
       CONSTANT HEAD =     2588552.0449         CONSTANT HEAD =       16222.8248
               WELLS =           0.0000                 WELLS =           0.0000
            RECHARGE =     6292800.0000              RECHARGE =       55200.0000
      STREAM LEAKAGE =      992669.3622        STREAM LEAKAGE =        6321.4360

            TOTAL IN =    31968537.6357              TOTAL IN =      129278.3442

          OUT:                                     OUT:
          ----                                     ----
             STORAGE =           0.0000               STORAGE =           0.0000
       CONSTANT HEAD =           0.0000         CONSTANT HEAD =           0.0000
               WELLS =     4668303.4199                 WELLS =       25509.8548
            RECHARGE =           0.0000              RECHARGE =           0.0000
      STREAM LEAKAGE =    27300235.4166        STREAM LEAKAGE =      103768.4995

           TOTAL OUT =    31968538.8365             TOTAL OUT =      129278.3543

            IN - OUT =          -1.2008              IN - OUT =      -1.0058E-02

 PERCENT DISCREPANCY =          -0.00     PERCENT DISCREPANCY =          -0.00






         TIME SUMMARY AT END OF TIME STEP    1 IN STRESS PERIOD    2
                    SECONDS     MINUTES      HOURS       DAYS        YEARS
                    -----------------------------------------------------------
   TIME STEP LENGTH 7.86240E+06 1.31040E+05  2184.0      91.000     0.24914    
 STRESS PERIOD TIME 7.86240E+06 1.31040E+05  2184.0      91.000     0.24914    
         TOTAL TIME 1.58112E+07 2.63520E+05  4392.0      183.00     0.50103    
1
1
                            STRESS PERIOD NO.    3, LENGTH =   91.00000    
                            -----------------------------------------------

                              NUMBER OF TIME STEPS =     1

                               MULTIPLIER FOR DELT =     1.500

                            INITIAL TIME STEP SIZE =   91.00000    

 WELL NO.  LAYER   ROW   COL   STRESS RATE         
 --------------------------------------------------
      1      1     14      6       0.000    
      2      1      3      9       0.000    
      3      1     20     10       0.000    
      4      1     14     20       0.000    
      5      1     12     11      -2057.    
      6      1     16     17     -0.1037E+05
      7      1     11     22     -0.1125E+05
      8      1     14     25      -1834.    

      8 WELLS

                 RECHARGE =   0.00000    

 REUSING STREAM SEGMENT DATA FROM LAST STRESS PERIOD
 
 SOLVING FOR HEAD 


     7 CALLS TO PCG ROUTINE FOR TIME STEP   1 IN STRESS PERIOD    3
    27 TOTAL ITERATIONS

 OUTPUT CONTROL FOR STRESS PERIOD    3   TIME STEP    1
    SAVE BUDGET
    SAVE HEAD FOR ALL LAYERS
    PRINT HEAD FOR ALL LAYERS
 UBDSV2 SAVING "STREAMFLOW OUT  " ON UNIT  50 AT TIME STEP  1, STRESS PERIOD   3



 STREAM LISTING     PERIOD      3   STEP        1

 LAYER ROW COL. STREAM  RCH.  FLOW INTO     FLOW TO   FLOW OUT OF   OVRLND.     DIRECT     STREAM       STREAM     STREAM     STREAM   STREAMBED  STREAMBED
                SEG.NO.  NO.  STRM. RCH.    AQUIFER    STRM. RCH.    RUNOFF     PRECIP       ET          HEAD       DEPTH      WIDTH   CONDCTNC.   GRADIENT

   1   13    1     1     1    1.0000E+05 -2.7565E+03   1.0276E+05  0.000E+00  0.000E+00  0.000E+00  4.84072E+01  1.458E-01  2.000E+01  2.000E+04 -1.378E-01
   1   13    2     1     2    1.0276E+05 -3.8634E+03   1.0662E+05  0.000E+00  0.000E+00  0.000E+00  4.79328E+01  1.487E-01  2.000E+01  2.000E+04 -1.932E-01
   1   14    3     1     3    1.0662E+05 -6.5099E+02   1.0727E+05  0.000E+00  0.000E+00  0.000E+00  4.74574E+01  1.506E-01  2.000E+01  2.000E+04 -3.255E-02
   1   15    4     1     4    1.0727E+05 -6.3203E+02   1.0790E+05  0.000E+00  0.000E+00  0.000E+00  4.69807E+01  1.511E-01  2.000E+01  2.000E+04 -3.160E-02
   1   16    5     1     5    1.0790E+05 -2.4201E+03   1.1032E+05  0.000E+00  0.000E+00  0.000E+00  4.65047E+01  1.524E-01  2.000E+01  2.000E+04 -1.210E-01
   1   16    6     1     6    1.1032E+05 -1.4691E+03   1.1179E+05  0.000E+00  0.000E+00  0.000E+00  4.60290E+01  1.540E-01  2.000E+01  2.000E+04 -7.345E-02
   1   16    7     1     7    1.1179E+05 -1.4187E+03   1.1321E+05  0.000E+00  0.000E+00  0.000E+00  4.55530E+01  1.552E-01  2.000E+01  2.000E+04 -7.093E-02
   1   16    8     1     8    1.1321E+05 -1.3852E+03   1.1460E+05  0.000E+00  0.000E+00  0.000E+00  4.50769E+01  1.564E-01  2.000E+01  2.000E+04 -6.926E-02
   1   16    9     1     9    1.1460E+05 -1.3366E+03   1.1593E+05  0.000E+00  0.000E+00  0.000E+00  4.46007E+01  1.575E-01  2.000E+01  2.000E+04 -6.683E-02
   1   16   10     1    10    1.1593E+05 -1.2685E+03   1.1720E+05  0.000E+00  0.000E+00  0.000E+00  4.41245E+01  1.586E-01  2.000E+01  2.000E+04 -6.343E-02
   1   16   11     1    11    1.1720E+05 -1.2003E+03   1.1840E+05  0.000E+00  0.000E+00  0.000E+00  4.36482E+01  1.596E-01  2.000E+01  2.000E+04 -6.002E-02
   1   16   12     1    12    1.1840E+05 -1.7807E+03   1.2018E+05  0.000E+00  0.000E+00  0.000E+00  4.31722E+01  1.608E-01  2.000E+01  2.000E+04 -8.903E-02
   1   15   13     1    13    1.2018E+05 -1.3654E+03   1.2155E+05  0.000E+00  0.000E+00  0.000E+00  4.26962E+01  1.621E-01  2.000E+01  2.000E+04 -6.827E-02
   1   14   14     1    14    1.2155E+05 -1.4884E+03   1.2304E+05  0.000E+00  0.000E+00  0.000E+00  4.22200E+01  1.632E-01  2.000E+01  2.000E+04 -7.442E-02
   1   13   15     1    15    1.2304E+05 -1.9844E+03   1.2502E+05  0.000E+00  0.000E+00  0.000E+00  4.17441E+01  1.646E-01  2.000E+01  2.000E+04 -9.922E-02
   1   12   16     1    16    1.2502E+05 -3.3165E+03   1.2834E+05  0.000E+00  0.000E+00  0.000E+00  4.12690E+01  1.667E-01  2.000E+01  2.000E+04 -1.658E-01
   1   12   17     1    17    1.2834E+05 -1.8056E+03   1.3014E+05  0.000E+00  0.000E+00  0.000E+00  4.07937E+01  1.687E-01  2.000E+01  2.000E+04 -9.028E-02
   1   12   18     1    18    1.3014E+05 -1.5876E+03   1.3173E+05  0.000E+00  0.000E+00  0.000E+00  4.03178E+01  1.700E-01  2.000E+01  2.000E+04 -7.938E-02
   1   12   19     1    19    1.3173E+05 -1.5474E+03   1.3328E+05  0.000E+00  0.000E+00  0.000E+00  3.98417E+01  1.713E-01  2.000E+01  2.000E+04 -7.737E-02
   1   13   20     1    20    1.3328E+05 -3.4169E+02   1.3362E+05  0.000E+00  0.000E+00  0.000E+00  3.93652E+01  1.720E-01  2.000E+01  2.000E+04 -1.708E-02
   1   14   21     1    21    1.3362E+05 -7.6550E+02   1.3438E+05  0.000E+00  0.000E+00  0.000E+00  3.88883E+01  1.724E-01  2.000E+01  2.000E+04 -3.827E-02
   1   14   22     1    22    1.3438E+05  5.1909E+03   1.2919E+05  0.000E+00  0.000E+00  0.000E+00  3.84093E+01  1.707E-01  2.000E+01  2.000E+04  2.595E-01
   1    9   30     2     1    5.0000E+04 -8.7863E+02   5.0879E+04  0.000E+00  0.000E+00  0.000E+00  4.02415E+01  1.165E-01  2.000E+01  2.000E+04 -4.393E-02
   1    9   29     2     2    5.0879E+04 -1.1788E+03   5.2057E+04  0.000E+00  0.000E+00  0.000E+00  3.99929E+01  1.179E-01  2.000E+01  2.000E+04 -5.894E-02
   1    9   28     2     3    5.2057E+04 -1.4395E+03   5.3497E+04  0.000E+00  0.000E+00  0.000E+00  3.97447E+01  1.197E-01  2.000E+01  2.000E+04 -7.198E-02
   1    9   27     2     4    5.3497E+04 -2.7868E+03   5.6284E+04  0.000E+00  0.000E+00  0.000E+00  3.94975E+01  1.225E-01  2.000E+01  2.000E+04 -1.393E-01
   1   10   26     2     5    5.6284E+04 -1.5335E+03   5.7817E+04  0.000E+00  0.000E+00  0.000E+00  3.92504E+01  1.254E-01  2.000E+01  2.000E+04 -7.668E-02
   1   11   25     2     6    5.7817E+04 -5.3037E+02   5.8348E+04  0.000E+00  0.000E+00  0.000E+00  3.90018E+01  1.268E-01  2.000E+01  2.000E+04 -2.652E-02
   1   12   24     2     7    5.8348E+04  5.4335E+02   5.7804E+04  0.000E+00  0.000E+00  0.000E+00  3.87518E+01  1.268E-01  2.000E+01  2.000E+04  2.717E-02
   1   13   23     2     8    5.7804E+04  2.5556E+02   5.7549E+04  0.000E+00  0.000E+00  0.000E+00  3.85012E+01  1.262E-01  2.000E+01  2.000E+04  1.278E-02
   1   14   22     2     9    5.7549E+04  1.9990E+03   5.5550E+04  0.000E+00  0.000E+00  0.000E+00  3.82497E+01  1.247E-01  2.000E+01  2.000E+04  9.995E-02
   1   14   22     3     1    1.8474E+05 -8.3684E+03   1.9311E+05  0.000E+00  0.000E+00  0.000E+00  3.77314E+01  1.758E-01  2.000E+01  2.000E+04 -4.184E-01
   1   15   23     3     2    1.9311E+05 -5.1198E+02   1.9362E+05  0.000E+00  0.000E+00  0.000E+00  3.68450E+01  1.783E-01  2.000E+01  2.000E+04 -2.560E-02
   1   15   24     3     3    1.9362E+05 -1.4933E+02   1.9377E+05  0.000E+00  0.000E+00  0.000E+00  3.59563E+01  1.785E-01  2.000E+01  2.000E+04 -7.467E-03
   1   15   25     3     4    1.9377E+05  2.5850E+02   1.9351E+05  0.000E+00  0.000E+00  0.000E+00  3.50673E+01  1.784E-01  2.000E+01  2.000E+04  1.292E-02
   1   15   26     3     5    1.9351E+05 -1.7405E+02   1.9369E+05  0.000E+00  0.000E+00  0.000E+00  3.41784E+01  1.784E-01  2.000E+01  2.000E+04 -8.702E-03
   1   16   27     3     6    1.9369E+05 -4.0585E+02   1.9409E+05  0.000E+00  0.000E+00  0.000E+00  3.32897E+01  1.786E-01  2.000E+01  2.000E+04 -2.029E-02
   1   17   28     3     7    1.9409E+05 -1.7705E+03   1.9587E+05  0.000E+00  0.000E+00  0.000E+00  3.24014E+01  1.792E-01  2.000E+01  2.000E+04 -8.852E-02
   1   18   29     3     8    1.9587E+05 -3.4463E+03   1.9931E+05  0.000E+00  0.000E+00  0.000E+00  3.15139E+01  1.806E-01  2.000E+01  2.000E+04 -1.723E-01
   1   18   30     3     9    1.9931E+05 -3.4873E+03   2.0280E+05  0.000E+00  0.000E+00  0.000E+00  3.06270E+01  1.825E-01  2.000E+01  2.000E+04 -1.744E-01



1
              HEAD IN LAYER   1 AT END OF TIME STEP   1 IN STRESS PERIOD    3
  ---------------------------------------------------------------------------

          1      2      3      4      5      6      7      8      9     10
         11     12     13     14     15     16     17     18     19     20
         21     22     23     24     25     26     27     28     29     30
 .........................................................................
   1  ****** ****** ****** ****** ****** ****** ****** ****** ****** ******
      ****** ****** ****** ****** ****** ****** ****** ****** ****** ******
      ****** ****** ****** ****** ****** ****** ****** ****** ****** ******
   2  ****** ****** ****** ****** ****** ****** ****** ****** ****** ******
      ****** ****** ****** ****** ****** ****** ****** ****** ****** ******
      ****** ****** ****** ****** ****** ****** ****** ****** ****** ******
   3  ****** ****** ****** ****** ****** ****** ****** ****** ****** ******
      ****** ****** ****** ****** ****** ****** ****** ****** ****** ******
      ****** ****** ****** ****** ****** ****** ****** ****** ****** ******
   4  ****** ****** ****** ****** ****** ****** ****** ****** ****** ******
      ****** ****** ****** ****** ****** ****** ****** ****** ****** ******
      ****** ****** ****** ****** ****** ****** ****** ****** ****** ******
   5  ****** ****** ****** ****** ****** ****** ****** ****** ****** ******
      ****** ****** ****** ****** ****** ****** ****** ****** ****** ******
      ****** ****** ****** ****** ****** ****** ****** ****** ****** ******
   6  ****** ****** ****** ****** ****** ****** ****** ****** ****** ******
      ****** ****** ****** ****** ****** ****** ****** ****** ****** ******
      ****** ****** ****** ****** ****** ****** ****** ****** ****** ******
   7  ****** ****** ****** ****** ****** ****** ****** ****** ****** ******
      ****** ****** ****** ****** ****** ****** ****** ****** ****** ******
      ****** ****** ****** ****** ****** ****** ****** ****** ****** ******
   8  ****** ****** ****** ****** ****** ****** ****** ****** ****** ******
      ****** ****** ****** ****** ****** ****** ****** ****** ****** ******
      ****** ****** ****** ****** ****** ****** ****** ****** ****** ******
   9  ****** ****** ****** ****** ****** ****** ****** ****** ****** ******
      ****** ****** ****** ****** ****** ****** ****** ****** ****** ******
      ****** ****** ****** ****** ****** ****** ****** ****** ****** ******
  10  ****** ****** ****** ****** ****** ****** ****** ****** ****** ******
      ****** ****** ****** ****** ****** ****** ****** ****** ****** ******
      ****** ****** ****** ****** ****** ****** ****** ****** ****** ******
  11  ****** ****** ****** ****** ****** ****** ****** ****** ****** ******
      ****** ****** ****** ****** ****** ****** ****** ****** ****** ******
      ****** ****** ****** ****** ****** ****** ****** ****** ****** ******
  12  ****** ****** ****** ****** ****** ****** ****** ****** ****** ******
      ****** ****** ****** ****** ****** ****** ****** ****** ****** ******
      ****** ****** ****** ****** ****** ****** ****** ****** ****** ******
  13  ****** ****** ****** ****** ****** ****** ****** ****** ****** ******
      ****** ****** ****** ****** ****** ****** ****** ****** ****** ******
      ****** ****** ****** ****** ****** ****** ****** ****** ****** ******
  14  ****** ****** ****** ****** ****** ****** ****** ****** ****** ******
      ****** ****** ****** ****** ****** ****** ****** ****** ****** ******
      ****** ****** ****** ****** ****** ****** ****** ****** ****** ******
  15  ****** ****** ****** ****** ****** ****** ****** ****** ****** ******
      ****** ****** ****** ****** ****** ****** ****** ****** ****** ******
      ****** ****** ****** ****** ****** ****** ****** ****** ****** ******
  16  ****** ****** ****** ****** ****** ****** ****** ****** ****** ******
      ****** ****** ****** ****** ****** ****** ****** ****** ****** ******
      ****** ****** ****** ****** ****** ****** ****** ****** ****** ******
  17  ****** ****** ****** ****** ****** ****** ****** ****** ****** ******
      ****** ****** ****** ****** ****** ****** ****** ****** ****** ******
      ****** ****** ****** ****** ****** ****** ****** ****** ****** ******
  18  ****** ****** ****** ****** ****** ****** ****** ****** ****** ******
      ****** ****** ****** ****** ****** ****** ****** ****** ****** ******
      ****** ****** ****** ****** ****** ****** ****** ****** ****** ******
  19  ****** ****** ****** ****** ****** ****** ****** ****** ****** ******
      ****** ****** ****** ****** ****** ****** ****** ****** ****** ******
      ****** ****** ****** ****** ****** ****** ****** ****** ****** ******
  20  ****** ****** ****** ****** ****** ****** ****** ****** ****** ******
      ****** ****** ****** ****** ****** ****** ****** ****** ****** ******
      ****** ****** ****** ****** ****** ****** ****** ****** ****** ******
  21  ****** ****** ****** ****** ****** ****** ****** ****** ****** ******
      ****** ****** ****** ****** ****** ****** ****** ****** ****** ******
      ****** ****** ****** ****** ****** ****** ****** ****** ****** ******
  22  ****** ****** ****** ****** ****** ****** ****** ****** ****** ******
      ****** ****** ****** ****** ****** ****** ****** ****** ****** ******
      ****** ****** ****** ****** ****** ****** ****** ****** ****** ******
  23  ****** ****** ****** ****** ****** ****** ****** ****** ****** ******
      ****** ****** ****** ****** ****** ****** ****** ****** ****** ******
      ****** ****** ****** ****** ****** ****** ****** ****** ****** ******
  24  ****** ****** ****** ****** ****** ****** ****** ****** ****** ******
      ****** ****** ****** ****** ****** ****** ****** ****** ****** ******
      ****** ****** ****** ****** ****** ****** ****** ****** ****** ******
  25  ****** ****** ****** ****** ****** ****** ****** ****** ****** ******
      ****** ****** ****** ****** ****** ****** ****** ****** ****** ******
      ****** ****** ****** ****** ****** ****** ****** ****** ****** ******

 HEAD WILL BE SAVED ON UNIT   51 AT END OF TIME STEP    1, STRESS PERIOD    3
1
  VOLUMETRIC BUDGET FOR ENTIRE MODEL AT END OF TIME STEP    1, STRESS PERIOD   3
  ------------------------------------------------------------------------------

     CUMULATIVE VOLUMES      L**3       RATES FOR THIS TIME STEP      L**3/T
     ------------------                 ------------------------

           IN:                                      IN:
           ---                                      ---
             STORAGE =    26987357.6142               STORAGE =       53767.4878
       CONSTANT HEAD =     4821784.3223         CONSTANT HEAD =       24541.0140
               WELLS =           0.0000                 WELLS =           0.0000
            RECHARGE =     6292800.0000              RECHARGE =           0.0000
      STREAM LEAKAGE =     1743170.9676        STREAM LEAKAGE =        8247.2704

            TOTAL IN =    39845112.9041              TOTAL IN =       86555.7722

          OUT:                                     OUT:
          ----                                     ----
             STORAGE =           0.0000               STORAGE =           0.0000
       CONSTANT HEAD =           0.0000         CONSTANT HEAD =           0.0000
               WELLS =     6989700.2025                 WELLS =       25509.8548
            RECHARGE =           0.0000              RECHARGE =           0.0000
      STREAM LEAKAGE =    32855414.5660        STREAM LEAKAGE =       61045.9247

           TOTAL OUT =    39845114.7685             TOTAL OUT =       86555.7795

            IN - OUT =          -1.8644              IN - OUT =      -7.2920E-03

 PERCENT DISCREPANCY =          -0.00     PERCENT DISCREPANCY =          -0.00






         TIME SUMMARY AT END OF TIME STEP    1 IN STRESS PERIOD    3
                    SECONDS     MINUTES      HOURS       DAYS        YEARS
                    -----------------------------------------------------------
   TIME STEP LENGTH 7.86240E+06 1.31040E+05  2184.0      91.000     0.24914    
 STRESS PERIOD TIME 7.86240E+06 1.31040E+05  2184.0      91.000     0.24914    
         TOTAL TIME 2.36736E+07 3.94560E+05  6576.0      274.00     0.75017    
1
1
                            STRESS PERIOD NO.    4, LENGTH =   91.00000    
                            -----------------------------------------------

                              NUMBER OF TIME STEPS =     1

                               MULTIPLIER FOR DELT =     1.500

                            INITIAL TIME STEP SIZE =   91.00000    

 WELL NO.  LAYER   ROW   COL   STRESS RATE         
 --------------------------------------------------
      1      1     14      6       0.000    
      2      1      3      9       0.000    
      3      1     20     10       0.000    
      4      1     14     20       0.000    
      5      1     12     11      -2057.    
      6      1     16     17     -0.1037E+05
      7      1     11     22     -0.1125E+05
      8      1     14     25      -1834.    

      8 WELLS

                 RECHARGE =  1.000000E-03

 REUSING STREAM SEGMENT DATA FROM LAST STRESS PERIOD
 
 SOLVING FOR HEAD 


     6 CALLS TO PCG ROUTINE FOR TIME STEP   1 IN STRESS PERIOD    4
    23 TOTAL ITERATIONS

 OUTPUT CONTROL FOR STRESS PERIOD    4   TIME STEP    1
    SAVE BUDGET
    SAVE HEAD FOR ALL LAYERS
    PRINT HEAD FOR ALL LAYERS
 UBDSV2 SAVING "STREAMFLOW OUT  " ON UNIT  50 AT TIME STEP  1, STRESS PERIOD   4



 STREAM LISTING     PERIOD      4   STEP        1

 LAYER ROW COL. STREAM  RCH.  FLOW INTO     FLOW TO   FLOW OUT OF   OVRLND.     DIRECT     STREAM       STREAM     STREAM     STREAM   STREAMBED  STREAMBED
                SEG.NO.  NO.  STRM. RCH.    AQUIFER    STRM. RCH.    RUNOFF     PRECIP       ET          HEAD       DEPTH      WIDTH   CONDCTNC.   GRADIENT

   1   13    1     1     1    1.0000E+05 -2.5256E+03   1.0253E+05  0.000E+00  0.000E+00  0.000E+00  4.84071E+01  1.457E-01  2.000E+01  2.000E+04 -1.263E-01
   1   13    2     1     2    1.0253E+05 -3.5940E+03   1.0612E+05  0.000E+00  0.000E+00  0.000E+00  4.79325E+01  1.484E-01  2.000E+01  2.000E+04 -1.797E-01
   1   14    3     1     3    1.0612E+05 -6.2175E+02   1.0674E+05  0.000E+00  0.000E+00  0.000E+00  4.74570E+01  1.502E-01  2.000E+01  2.000E+04 -3.109E-02
   1   15    4     1     4    1.0674E+05 -5.9241E+02   1.0733E+05  0.000E+00  0.000E+00  0.000E+00  4.69802E+01  1.507E-01  2.000E+01  2.000E+04 -2.962E-02
   1   16    5     1     5    1.0733E+05 -2.1138E+03   1.0945E+05  0.000E+00  0.000E+00  0.000E+00  4.65041E+01  1.518E-01  2.000E+01  2.000E+04 -1.057E-01
   1   16    6     1     6    1.0945E+05 -1.3167E+03   1.1076E+05  0.000E+00  0.000E+00  0.000E+00  4.60283E+01  1.533E-01  2.000E+01  2.000E+04 -6.584E-02
   1   16    7     1     7    1.1076E+05 -1.2765E+03   1.1204E+05  0.000E+00  0.000E+00  0.000E+00  4.55521E+01  1.543E-01  2.000E+01  2.000E+04 -6.382E-02
   1   16    8     1     8    1.1204E+05 -1.2459E+03   1.1329E+05  0.000E+00  0.000E+00  0.000E+00  4.50758E+01  1.554E-01  2.000E+01  2.000E+04 -6.230E-02
   1   16    9     1     9    1.1329E+05 -1.1990E+03   1.1449E+05  0.000E+00  0.000E+00  0.000E+00  4.45996E+01  1.564E-01  2.000E+01  2.000E+04 -5.995E-02
   1   16   10     1    10    1.1449E+05 -1.1338E+03   1.1562E+05  0.000E+00  0.000E+00  0.000E+00  4.41233E+01  1.573E-01  2.000E+01  2.000E+04 -5.669E-02
   1   16   11     1    11    1.1562E+05 -1.0656E+03   1.1669E+05  0.000E+00  0.000E+00  0.000E+00  4.36469E+01  1.582E-01  2.000E+01  2.000E+04 -5.328E-02
   1   16   12     1    12    1.1669E+05 -1.4992E+03   1.1818E+05  0.000E+00  0.000E+00  0.000E+00  4.31707E+01  1.593E-01  2.000E+01  2.000E+04 -7.496E-02
   1   15   13     1    13    1.1818E+05 -1.1051E+03   1.1929E+05  0.000E+00  0.000E+00  0.000E+00  4.26944E+01  1.604E-01  2.000E+01  2.000E+04 -5.526E-02
   1   14   14     1    14    1.1929E+05 -1.2102E+03   1.2050E+05  0.000E+00  0.000E+00  0.000E+00  4.22181E+01  1.613E-01  2.000E+01  2.000E+04 -6.051E-02
   1   13   15     1    15    1.2050E+05 -1.6876E+03   1.2219E+05  0.000E+00  0.000E+00  0.000E+00  4.17420E+01  1.625E-01  2.000E+01  2.000E+04 -8.438E-02
   1   12   16     1    16    1.2219E+05 -2.9334E+03   1.2512E+05  0.000E+00  0.000E+00  0.000E+00  4.12666E+01  1.643E-01  2.000E+01  2.000E+04 -1.467E-01
   1   12   17     1    17    1.2512E+05 -1.5756E+03   1.2670E+05  0.000E+00  0.000E+00  0.000E+00  4.07911E+01  1.661E-01  2.000E+01  2.000E+04 -7.878E-02
   1   12   18     1    18    1.2670E+05 -1.3737E+03   1.2807E+05  0.000E+00  0.000E+00  0.000E+00  4.03150E+01  1.673E-01  2.000E+01  2.000E+04 -6.868E-02
   1   12   19     1    19    1.2807E+05 -1.2830E+03   1.2935E+05  0.000E+00  0.000E+00  0.000E+00  3.98388E+01  1.683E-01  2.000E+01  2.000E+04 -6.415E-02
   1   13   20     1    20    1.2935E+05 -1.6619E+02   1.2952E+05  0.000E+00  0.000E+00  0.000E+00  3.93621E+01  1.689E-01  2.000E+01  2.000E+04 -8.310E-03
   1   14   21     1    21    1.2952E+05 -5.2334E+02   1.3004E+05  0.000E+00  0.000E+00  0.000E+00  3.88851E+01  1.691E-01  2.000E+01  2.000E+04 -2.617E-02
   1   14   22     1    22    1.3004E+05  5.2274E+03   1.2481E+05  0.000E+00  0.000E+00  0.000E+00  3.84059E+01  1.673E-01  2.000E+01  2.000E+04  2.614E-01
   1    9   30     2     1    5.0000E+04 -7.9094E+02   5.0791E+04  0.000E+00  0.000E+00  0.000E+00  4.02414E+01  1.164E-01  2.000E+01  2.000E+04 -3.955E-02
   1    9   29     2     2    5.0791E+04 -1.0841E+03   5.1875E+04  0.000E+00  0.000E+00  0.000E+00  3.99927E+01  1.177E-01  2.000E+01  2.000E+04 -5.420E-02
   1    9   28     2     3    5.1875E+04 -1.3246E+03   5.3200E+04  0.000E+00  0.000E+00  0.000E+00  3.97444E+01  1.194E-01  2.000E+01  2.000E+04 -6.623E-02
   1    9   27     2     4    5.3200E+04 -2.5220E+03   5.5722E+04  0.000E+00  0.000E+00  0.000E+00  3.94970E+01  1.220E-01  2.000E+01  2.000E+04 -1.261E-01
   1   10   26     2     5    5.5722E+04 -1.3783E+03   5.7100E+04  0.000E+00  0.000E+00  0.000E+00  3.92496E+01  1.246E-01  2.000E+01  2.000E+04 -6.892E-02
   1   11   25     2     6    5.7100E+04 -4.1375E+02   5.7514E+04  0.000E+00  0.000E+00  0.000E+00  3.90007E+01  1.257E-01  2.000E+01  2.000E+04 -2.069E-02
   1   12   24     2     7    5.7514E+04  6.4411E+02   5.6870E+04  0.000E+00  0.000E+00  0.000E+00  3.87506E+01  1.256E-01  2.000E+01  2.000E+04  3.221E-02
   1   13   23     2     8    5.6870E+04  2.3136E+02   5.6638E+04  0.000E+00  0.000E+00  0.000E+00  3.85000E+01  1.250E-01  2.000E+01  2.000E+04  1.157E-02
   1   14   22     2     9    5.6638E+04  2.0784E+03   5.4560E+04  0.000E+00  0.000E+00  0.000E+00  3.82485E+01  1.235E-01  2.000E+01  2.000E+04  1.039E-01
   1   14   22     3     1    1.7937E+05 -8.3242E+03   1.8770E+05  0.000E+00  0.000E+00  0.000E+00  3.77284E+01  1.728E-01  2.000E+01  2.000E+04 -4.162E-01
   1   15   23     3     2    1.8770E+05 -4.8490E+02   1.8818E+05  0.000E+00  0.000E+00  0.000E+00  3.68419E+01  1.753E-01  2.000E+01  2.000E+04 -2.424E-02
   1   15   24     3     3    1.8818E+05 -1.4585E+02   1.8833E+05  0.000E+00  0.000E+00  0.000E+00  3.59532E+01  1.754E-01  2.000E+01  2.000E+04 -7.292E-03
   1   15   25     3     4    1.8833E+05  2.6243E+02   1.8807E+05  0.000E+00  0.000E+00  0.000E+00  3.50643E+01  1.754E-01  2.000E+01  2.000E+04  1.312E-02
   1   15   26     3     5    1.8807E+05 -1.8044E+02   1.8825E+05  0.000E+00  0.000E+00  0.000E+00  3.41754E+01  1.754E-01  2.000E+01  2.000E+04 -9.022E-03
   1   16   27     3     6    1.8825E+05 -4.0480E+02   1.8865E+05  0.000E+00  0.000E+00  0.000E+00  3.32867E+01  1.756E-01  2.000E+01  2.000E+04 -2.024E-02
   1   17   28     3     7    1.8865E+05 -1.7025E+03   1.9036E+05  0.000E+00  0.000E+00  0.000E+00  3.23984E+01  1.761E-01  2.000E+01  2.000E+04 -8.512E-02
   1   18   29     3     8    1.9036E+05 -3.2220E+03   1.9358E+05  0.000E+00  0.000E+00  0.000E+00  3.15108E+01  1.775E-01  2.000E+01  2.000E+04 -1.611E-01
   1   18   30     3     9    1.9358E+05 -3.3751E+03   1.9695E+05  0.000E+00  0.000E+00  0.000E+00  3.06238E+01  1.793E-01  2.000E+01  2.000E+04 -1.688E-01



1
              HEAD IN LAYER   1 AT END OF TIME STEP   1 IN STRESS PERIOD    4
  ---------------------------------------------------------------------------

          1      2      3      4      5      6      7      8      9     10
         11     12     13     14     15     16     17     18     19     20
         21     22     23     24     25     26     27     28     29     30
 .........................................................................
   1  ****** ****** ****** ****** ****** ****** ****** ****** ****** ******
      ****** ****** ****** ****** ****** ****** ****** ****** ****** ******
      ****** ****** ****** ****** ****** ****** ****** ****** ****** ******
   2  ****** ****** ****** ****** ****** ****** ****** ****** ****** ******
      ****** ****** ****** ****** ****** ****** ****** ****** ****** ******
      ****** ****** ****** ****** ****** ****** ****** ****** ****** ******
   3  ****** ****** ****** ****** ****** ****** ****** ****** ****** ******
      ****** ****** ****** ****** ****** ****** ****** ****** ****** ******
      ****** ****** ****** ****** ****** ****** ****** ****** ****** ******
   4  ****** ****** ****** ****** ****** ****** ****** ****** ****** ******
      ****** ****** ****** ****** ****** ****** ****** ****** ****** ******
      ****** ****** ****** ****** ****** ****** ****** ****** ****** ******
   5  ****** ****** ****** ****** ****** ****** ****** ****** ****** ******
      ****** ****** ****** ****** ****** ****** ****** ****** ****** ******
      ****** ****** ****** ****** ****** ****** ****** ****** ****** ******
   6  ****** ****** ****** ****** ****** ****** ****** ****** ****** ******
      ****** ****** ****** ****** ****** ****** ****** ****** ****** ******
      ****** ****** ****** ****** ****** ****** ****** ****** ****** ******
   7  ****** ****** ****** ****** ****** ****** ****** ****** ****** ******
      ****** ****** ****** ****** ****** ****** ****** ****** ****** ******
      ****** ****** ****** ****** ****** ****** ****** ****** ****** ******
   8  ****** ****** ****** ****** ****** ****** ****** ****** ****** ******
      ****** ****** ****** ****** ****** ****** ****** ****** ****** ******
      ****** ****** ****** ****** ****** ****** ****** ****** ****** ******
   9  ****** ****** ****** ****** ****** ****** ****** ****** ****** ******
      ****** ****** ****** ****** ****** ****** ****** ****** ****** ******
      ****** ****** ****** ****** ****** ****** ****** ****** ****** ******
  10  ****** ****** ****** ****** ****** ****** ****** ****** ****** ******
      ****** ****** ****** ****** ****** ****** ****** ****** ****** ******
      ****** ****** ****** ****** ****** ****** ****** ****** ****** ******
  11  ****** ****** ****** ****** ****** ****** ****** ****** ****** ******
      ****** ****** ****** ****** ****** ****** ****** ****** ****** ******
      ****** ****** ****** ****** ****** ****** ****** ****** ****** ******
  12  ****** ****** ****** ****** ****** ****** ****** ****** ****** ******
      ****** ****** ****** ****** ****** ****** ****** ****** ****** ******
      ****** ****** ****** ****** ****** ****** ****** ****** ****** ******
  13  ****** ****** ****** ****** ****** ****** ****** ****** ****** ******
      ****** ****** ****** ****** ****** ****** ****** ****** ****** ******
      ****** ****** ****** ****** ****** ****** ****** ****** ****** ******
  14  ****** ****** ****** ****** ****** ****** ****** ****** ****** ******
      ****** ****** ****** ****** ****** ****** ****** ****** ****** ******
      ****** ****** ****** ****** ****** ****** ****** ****** ****** ******
  15  ****** ****** ****** ****** ****** ****** ****** ****** ****** ******
      ****** ****** ****** ****** ****** ****** ****** ****** ****** ******
      ****** ****** ****** ****** ****** ****** ****** ****** ****** ******
  16  ****** ****** ****** ****** ****** ****** ****** ****** ****** ******
      ****** ****** ****** ****** ****** ****** ****** ****** ****** ******
      ****** ****** ****** ****** ****** ****** ****** ****** ****** ******
  17  ****** ****** ****** ****** ****** ****** ****** ****** ****** ******
      ****** ****** ****** ****** ****** ****** ****** ****** ****** ******
      ****** ****** ****** ****** ****** ****** ****** ****** ****** ******
  18  ****** ****** ****** ****** ****** ****** ****** ****** ****** ******
      ****** ****** ****** ****** ****** ****** ****** ****** ****** ******
      ****** ****** ****** ****** ****** ****** ****** ****** ****** ******
  19  ****** ****** ****** ****** ****** ****** ****** ****** ****** ******
      ****** ****** ****** ****** ****** ****** ****** ****** ****** ******
      ****** ****** ****** ****** ****** ****** ****** ****** ****** ******
  20  ****** ****** ****** ****** ****** ****** ****** ****** ****** ******
      ****** ****** ****** ****** ****** ****** ****** ****** ****** ******
      ****** ****** ****** ****** ****** ****** ****** ****** ****** ******
  21  ****** ****** ****** ****** ****** ****** ****** ****** ****** ******
      ****** ****** ****** ****** ****** ****** ****** ****** ****** ******
      ****** ****** ****** ****** ****** ****** ****** ****** ****** ******
  22  ****** ****** ****** ****** ****** ****** ****** ****** ****** ******
      ****** ****** ****** ****** ****** ****** ****** ****** ****** ******
      ****** ****** ****** ****** ****** ****** ****** ****** ****** ******
  23  ****** ****** ****** ****** ****** ****** ****** ****** ****** ******
      ****** ****** ****** ****** ****** ****** ****** ****** ****** ******
      ****** ****** ****** ****** ****** ****** ****** ****** ****** ******
  24  ****** ****** ****** ****** ****** ****** ****** ****** ****** ******
      ****** ****** ****** ****** ****** ****** ****** ****** ****** ******
      ****** ****** ****** ****** ****** ****** ****** ****** ****** ******
  25  ****** ****** ****** ****** ****** ****** ****** ****** ****** ******
      ****** ****** ****** ****** ****** ****** ****** ****** ****** ******
      ****** ****** ****** ****** ****** ****** ****** ****** ****** ******

 HEAD WILL BE SAVED ON UNIT   51 AT END OF TIME STEP    1, STRESS PERIOD    4
1
  VOLUMETRIC BUDGET FOR ENTIRE MODEL AT END OF TIME STEP    1, STRESS PERIOD   4
  ------------------------------------------------------------------------------

     CUMULATIVE VOLUMES      L**3       RATES FOR THIS TIME STEP      L**3/T
     ------------------                 ------------------------

           IN:                                      IN:
           ---                                      ---
             STORAGE =    28612307.9498               STORAGE =       17856.5971
       CONSTANT HEAD =     7280275.9158         CONSTANT HEAD =       27016.3911
               WELLS =           0.0000                 WELLS =           0.0000
            RECHARGE =     8804400.0000              RECHARGE =       27600.0000
      STREAM LEAKAGE =     2511548.1673        STREAM LEAKAGE =        8443.7055

            TOTAL IN =    47208532.0329              TOTAL IN =       80916.6937

          OUT:                                     OUT:
          ----                                     ----
             STORAGE =         993.9784               STORAGE =          10.9228
       CONSTANT HEAD =           0.0000         CONSTANT HEAD =           0.0000
               WELLS =     9311096.9851                 WELLS =       25509.8548
            RECHARGE =           0.0000              RECHARGE =           0.0000
      STREAM LEAKAGE =    37896443.0041        STREAM LEAKAGE =       55395.9169

           TOTAL OUT =    47208533.9676             TOTAL OUT =       80916.6945

            IN - OUT =          -1.9347              IN - OUT =      -7.7322E-04

 PERCENT DISCREPANCY =          -0.00     PERCENT DISCREPANCY =          -0.00






         TIME SUMMARY AT END OF TIME STEP    1 IN STRESS PERIOD    4
                    SECONDS     MINUTES      HOURS       DAYS        YEARS
                    -----------------------------------------------------------
   TIME STEP LENGTH 7.86240E+06 1.31040E+05  2184.0      91.000     0.24914    
 STRESS PERIOD TIME 7.86240E+06 1.31040E+05  2184.0      91.000     0.24914    
         TOTAL TIME 3.15360E+07 5.25600E+05  8760.0      365.00     0.99932    
1
1
                            STRESS PERIOD NO.    5, LENGTH =   92.00000    
                            -----------------------------------------------

                              NUMBER OF TIME STEPS =     1

                               MULTIPLIER FOR DELT =     1.500

                            INITIAL TIME STEP SIZE =   92.00000    

 WELL NO.  LAYER   ROW   COL   STRESS RATE         
 --------------------------------------------------
      1      1     14      6       0.000    
      2      1      3      9       0.000    
      3      1     20     10       0.000    
      4      1     14     20       0.000    
      5      1     12     11      -2057.    
      6      1     16     17     -0.1037E+05
      7      1     11     22     -0.1125E+05
      8      1     14     25      -1834.    

      8 WELLS

                 RECHARGE =  5.000000E-04

 REUSING STREAM SEGMENT DATA FROM LAST STRESS PERIOD
 
 SOLVING FOR HEAD 


     7 CALLS TO PCG ROUTINE FOR TIME STEP   1 IN STRESS PERIOD    5
    26 TOTAL ITERATIONS

 OUTPUT CONTROL FOR STRESS PERIOD    5   TIME STEP    1
    SAVE BUDGET
    SAVE HEAD FOR ALL LAYERS
    PRINT HEAD FOR ALL LAYERS
 UBDSV2 SAVING "STREAMFLOW OUT  " ON UNIT  50 AT TIME STEP  1, STRESS PERIOD   5



 STREAM LISTING     PERIOD      5   STEP        1

 LAYER ROW COL. STREAM  RCH.  FLOW INTO     FLOW TO   FLOW OUT OF   OVRLND.     DIRECT     STREAM       STREAM     STREAM     STREAM   STREAMBED  STREAMBED
                SEG.NO.  NO.  STRM. RCH.    AQUIFER    STRM. RCH.    RUNOFF     PRECIP       ET          HEAD       DEPTH      WIDTH   CONDCTNC.   GRADIENT

   1   13    1     1     1    1.0000E+05 -2.1147E+03   1.0211E+05  0.000E+00  0.000E+00  0.000E+00  4.84069E+01  1.456E-01  2.000E+01  2.000E+04 -1.057E-01
   1   13    2     1     2    1.0211E+05 -3.1290E+03   1.0524E+05  0.000E+00  0.000E+00  0.000E+00  4.79319E+01  1.478E-01  2.000E+01  2.000E+04 -1.565E-01
   1   14    3     1     3    1.0524E+05 -4.9918E+02   1.0574E+05  0.000E+00  0.000E+00  0.000E+00  4.74562E+01  1.494E-01  2.000E+01  2.000E+04 -2.496E-02
   1   15    4     1     4    1.0574E+05 -4.6296E+02   1.0621E+05  0.000E+00  0.000E+00  0.000E+00  4.69793E+01  1.498E-01  2.000E+01  2.000E+04 -2.315E-02
   1   16    5     1     5    1.0621E+05 -1.6811E+03   1.0789E+05  0.000E+00  0.000E+00  0.000E+00  4.65030E+01  1.507E-01  2.000E+01  2.000E+04 -8.405E-02
   1   16    6     1     6    1.0789E+05 -1.0628E+03   1.0895E+05  0.000E+00  0.000E+00  0.000E+00  4.60268E+01  1.518E-01  2.000E+01  2.000E+04 -5.314E-02
   1   16    7     1     7    1.0895E+05 -1.0324E+03   1.0998E+05  0.000E+00  0.000E+00  0.000E+00  4.55504E+01  1.527E-01  2.000E+01  2.000E+04 -5.162E-02
   1   16    8     1     8    1.0998E+05 -1.0051E+03   1.1099E+05  0.000E+00  0.000E+00  0.000E+00  4.50740E+01  1.536E-01  2.000E+01  2.000E+04 -5.025E-02
   1   16    9     1     9    1.1099E+05 -9.6088E+02   1.1195E+05  0.000E+00  0.000E+00  0.000E+00  4.45976E+01  1.544E-01  2.000E+01  2.000E+04 -4.804E-02
   1   16   10     1    10    1.1195E+05 -8.9911E+02   1.1285E+05  0.000E+00  0.000E+00  0.000E+00  4.41211E+01  1.552E-01  2.000E+01  2.000E+04 -4.496E-02
   1   16   11     1    11    1.1285E+05 -8.3080E+02   1.1368E+05  0.000E+00  0.000E+00  0.000E+00  4.36445E+01  1.559E-01  2.000E+01  2.000E+04 -4.154E-02
   1   16   12     1    12    1.1368E+05 -1.0793E+03   1.1476E+05  0.000E+00  0.000E+00  0.000E+00  4.31680E+01  1.567E-01  2.000E+01  2.000E+04 -5.396E-02
   1   15   13     1    13    1.1476E+05 -6.6488E+02   1.1542E+05  0.000E+00  0.000E+00  0.000E+00  4.26915E+01  1.574E-01  2.000E+01  2.000E+04 -3.324E-02
   1   14   14     1    14    1.1542E+05 -7.4462E+02   1.1617E+05  0.000E+00  0.000E+00  0.000E+00  4.22148E+01  1.580E-01  2.000E+01  2.000E+04 -3.723E-02
   1   13   15     1    15    1.1617E+05 -1.2077E+03   1.1737E+05  0.000E+00  0.000E+00  0.000E+00  4.17383E+01  1.588E-01  2.000E+01  2.000E+04 -6.038E-02
   1   12   16     1    16    1.1737E+05 -2.4120E+03   1.1979E+05  0.000E+00  0.000E+00  0.000E+00  4.12625E+01  1.602E-01  2.000E+01  2.000E+04 -1.206E-01
   1   12   17     1    17    1.1979E+05 -1.2250E+03   1.2101E+05  0.000E+00  0.000E+00  0.000E+00  4.07867E+01  1.617E-01  2.000E+01  2.000E+04 -6.125E-02
   1   12   18     1    18    1.2101E+05 -1.0398E+03   1.2205E+05  0.000E+00  0.000E+00  0.000E+00  4.03103E+01  1.626E-01  2.000E+01  2.000E+04 -5.199E-02
   1   12   19     1    19    1.2205E+05 -8.7922E+02   1.2293E+05  0.000E+00  0.000E+00  0.000E+00  3.98338E+01  1.634E-01  2.000E+01  2.000E+04 -4.396E-02
   1   13   20     1    20    1.2293E+05  1.8895E+02   1.2274E+05  0.000E+00  0.000E+00  0.000E+00  3.93568E+01  1.637E-01  2.000E+01  2.000E+04  9.448E-03
   1   14   21     1    21    1.2274E+05 -1.4094E+02   1.2288E+05  0.000E+00  0.000E+00  0.000E+00  3.88795E+01  1.636E-01  2.000E+01  2.000E+04 -7.047E-03
   1   14   22     1    22    1.2288E+05  5.3066E+03   1.1758E+05  0.000E+00  0.000E+00  0.000E+00  3.84002E+01  1.616E-01  2.000E+01  2.000E+04  2.653E-01
   1    9   30     2     1    5.0000E+04 -5.6110E+02   5.0561E+04  0.000E+00  0.000E+00  0.000E+00  4.02413E+01  1.163E-01  2.000E+01  2.000E+04 -2.805E-02
   1    9   29     2     2    5.0561E+04 -8.5081E+02   5.1412E+04  0.000E+00  0.000E+00  0.000E+00  3.99922E+01  1.172E-01  2.000E+01  2.000E+04 -4.254E-02
   1    9   28     2     3    5.1412E+04 -1.0797E+03   5.2492E+04  0.000E+00  0.000E+00  0.000E+00  3.97436E+01  1.186E-01  2.000E+01  2.000E+04 -5.399E-02
   1    9   27     2     4    5.2492E+04 -2.1369E+03   5.4628E+04  0.000E+00  0.000E+00  0.000E+00  3.94957E+01  1.207E-01  2.000E+01  2.000E+04 -1.068E-01
   1   10   26     2     5    5.4628E+04 -1.0417E+03   5.5670E+04  0.000E+00  0.000E+00  0.000E+00  3.92479E+01  1.229E-01  2.000E+01  2.000E+04 -5.209E-02
   1   11   25     2     6    5.5670E+04 -1.0448E+02   5.5775E+04  0.000E+00  0.000E+00  0.000E+00  3.89986E+01  1.236E-01  2.000E+01  2.000E+04 -5.224E-03
   1   12   24     2     7    5.5775E+04  9.2681E+02   5.4848E+04  0.000E+00  0.000E+00  0.000E+00  3.87481E+01  1.231E-01  2.000E+01  2.000E+04  4.634E-02
   1   13   23     2     8    5.4848E+04  2.9978E+02   5.4548E+04  0.000E+00  0.000E+00  0.000E+00  3.84973E+01  1.223E-01  2.000E+01  2.000E+04  1.499E-02
   1   14   22     2     9    5.4548E+04  2.2144E+03   5.2334E+04  0.000E+00  0.000E+00  0.000E+00  3.82456E+01  1.206E-01  2.000E+01  2.000E+04  1.107E-01
   1   14   22     3     1    1.6991E+05 -8.2388E+03   1.7815E+05  0.000E+00  0.000E+00  0.000E+00  3.77229E+01  1.674E-01  2.000E+01  2.000E+04 -4.119E-01
   1   15   23     3     2    1.7815E+05 -3.8467E+02   1.7853E+05  0.000E+00  0.000E+00  0.000E+00  3.68365E+01  1.698E-01  2.000E+01  2.000E+04 -1.923E-02
   1   15   24     3     3    1.7853E+05 -7.2565E+01   1.7861E+05  0.000E+00  0.000E+00  0.000E+00  3.59478E+01  1.700E-01  2.000E+01  2.000E+04 -3.628E-03
   1   15   25     3     4    1.7861E+05  3.3504E+02   1.7827E+05  0.000E+00  0.000E+00  0.000E+00  3.50588E+01  1.699E-01  2.000E+01  2.000E+04  1.675E-02
   1   15   26     3     5    1.7827E+05 -1.0730E+02   1.7838E+05  0.000E+00  0.000E+00  0.000E+00  3.41698E+01  1.698E-01  2.000E+01  2.000E+04 -5.365E-03
   1   16   27     3     6    1.7838E+05 -3.1319E+02   1.7869E+05  0.000E+00  0.000E+00  0.000E+00  3.32811E+01  1.700E-01  2.000E+01  2.000E+04 -1.566E-02
   1   17   28     3     7    1.7869E+05 -1.4308E+03   1.8012E+05  0.000E+00  0.000E+00  0.000E+00  3.23927E+01  1.705E-01  2.000E+01  2.000E+04 -7.154E-02
   1   18   29     3     8    1.8012E+05 -2.8407E+03   1.8296E+05  0.000E+00  0.000E+00  0.000E+00  3.15050E+01  1.717E-01  2.000E+01  2.000E+04 -1.420E-01
   1   18   30     3     9    1.8296E+05 -3.1131E+03   1.8608E+05  0.000E+00  0.000E+00  0.000E+00  3.06178E+01  1.734E-01  2.000E+01  2.000E+04 -1.557E-01



1
              HEAD IN LAYER   1 AT END OF TIME STEP   1 IN STRESS PERIOD    5
  ---------------------------------------------------------------------------

          1      2      3      4      5      6      7      8      9     10
         11     12     13     14     15     16     17     18     19     20
         21     22     23     24     25     26     27     28     29     30
 .........................................................................
   1  ****** ****** ****** ****** ****** ****** ****** ****** ****** ******
      ****** ****** ****** ****** ****** ****** ****** ****** ****** ******
      ****** ****** ****** ****** ****** ****** ****** ****** ****** ******
   2  ****** ****** ****** ****** ****** ****** ****** ****** ****** ******
      ****** ****** ****** ****** ****** ****** ****** ****** ****** ******
      ****** ****** ****** ****** ****** ****** ****** ****** ****** ******
   3  ****** ****** ****** ****** ****** ****** ****** ****** ****** ******
      ****** ****** ****** ****** ****** ****** ****** ****** ****** ******
      ****** ****** ****** ****** ****** ****** ****** ****** ****** ******
   4  ****** ****** ****** ****** ****** ****** ****** ****** ****** ******
      ****** ****** ****** ****** ****** ****** ****** ****** ****** ******
      ****** ****** ****** ****** ****** ****** ****** ****** ****** ******
   5  ****** ****** ****** ****** ****** ****** ****** ****** ****** ******
      ****** ****** ****** ****** ****** ****** ****** ****** ****** ******
      ****** ****** ****** ****** ****** ****** ****** ****** ****** ******
   6  ****** ****** ****** ****** ****** ****** ****** ****** ****** ******
      ****** ****** ****** ****** ****** ****** ****** ****** ****** ******
      ****** ****** ****** ****** ****** ****** ****** ****** ****** ******
   7  ****** ****** ****** ****** ****** ****** ****** ****** ****** ******
      ****** ****** ****** ****** ****** ****** ****** ****** ****** ******
      ****** ****** ****** ****** ****** ****** ****** ****** ****** ******
   8  ****** ****** ****** ****** ****** ****** ****** ****** ****** ******
      ****** ****** ****** ****** ****** ****** ****** ****** ****** ******
      ****** ****** ****** ****** ****** ****** ****** ****** ****** ******
   9  ****** ****** ****** ****** ****** ****** ****** ****** ****** ******
      ****** ****** ****** ****** ****** ****** ****** ****** ****** ******
      ****** ****** ****** ****** ****** ****** ****** ****** ****** ******
  10  ****** ****** ****** ****** ****** ****** ****** ****** ****** ******
      ****** ****** ****** ****** ****** ****** ****** ****** ****** ******
      ****** ****** ****** ****** ****** ****** ****** ****** ****** ******
  11  ****** ****** ****** ****** ****** ****** ****** ****** ****** ******
      ****** ****** ****** ****** ****** ****** ****** ****** ****** ******
      ****** ****** ****** ****** ****** ****** ****** ****** ****** ******
  12  ****** ****** ****** ****** ****** ****** ****** ****** ****** ******
      ****** ****** ****** ****** ****** ****** ****** ****** ****** ******
      ****** ****** ****** ****** ****** ****** ****** ****** ****** ******
  13  ****** ****** ****** ****** ****** ****** ****** ****** ****** ******
      ****** ****** ****** ****** ****** ****** ****** ****** ****** ******
      ****** ****** ****** ****** ****** ****** ****** ****** ****** ******
  14  ****** ****** ****** ****** ****** ****** ****** ****** ****** ******
      ****** ****** ****** ****** ****** ****** ****** ****** ****** ******
      ****** ****** ****** ****** ****** ****** ****** ****** ****** ******
  15  ****** ****** ****** ****** ****** ****** ****** ****** ****** ******
      ****** ****** ****** ****** ****** ****** ****** ****** ****** ******
      ****** ****** ****** ****** ****** ****** ****** ****** ****** ******
  16  ****** ****** ****** ****** ****** ****** ****** ****** ****** ******
      ****** ****** ****** ****** ****** ****** ****** ****** ****** ******
      ****** ****** ****** ****** ****** ****** ****** ****** ****** ******
  17  ****** ****** ****** ****** ****** ****** ****** ****** ****** ******
      ****** ****** ****** ****** ****** ****** ****** ****** ****** ******
      ****** ****** ****** ****** ****** ****** ****** ****** ****** ******
  18  ****** ****** ****** ****** ****** ****** ****** ****** ****** ******
      ****** ****** ****** ****** ****** ****** ****** ****** ****** ******
      ****** ****** ****** ****** ****** ****** ****** ****** ****** ******
  19  ****** ****** ****** ****** ****** ****** ****** ****** ****** ******
      ****** ****** ****** ****** ****** ****** ****** ****** ****** ******
      ****** ****** ****** ****** ****** ****** ****** ****** ****** ******
  20  ****** ****** ****** ****** ****** ****** ****** ****** ****** ******
      ****** ****** ****** ****** ****** ****** ****** ****** ****** ******
      ****** ****** ****** ****** ****** ****** ****** ****** ****** ******
  21  ****** ****** ****** ****** ****** ****** ****** ****** ****** ******
      ****** ****** ****** ****** ****** ****** ****** ****** ****** ******
      ****** ****** ****** ****** ****** ****** ****** ****** ****** ******
  22  ****** ****** ****** ****** ****** ****** ****** ****** ****** ******
      ****** ****** ****** ****** ****** ****** ****** ****** ****** ******
      ****** ****** ****** ****** ****** ****** ****** ****** ****** ******
  23  ****** ****** ****** ****** ****** ****** ****** ****** ****** ******
      ****** ****** ****** ****** ****** ****** ****** ****** ****** ******
      ****** ****** ****** ****** ****** ****** ****** ****** ****** ******
  24  ****** ****** ****** ****** ****** ****** ****** ****** ****** ******
      ****** ****** ****** ****** ****** ****** ****** ****** ****** ******
      ****** ****** ****** ****** ****** ****** ****** ****** ****** ******
  25  ****** ****** ****** ****** ****** ****** ****** ****** ****** ******
      ****** ****** ****** ****** ****** ****** ****** ****** ****** ******
      ****** ****** ****** ****** ****** ****** ****** ****** ****** ******

 HEAD WILL BE SAVED ON UNIT   51 AT END OF TIME STEP    1, STRESS PERIOD    5
1
  VOLUMETRIC BUDGET FOR ENTIRE MODEL AT END OF TIME STEP    1, STRESS PERIOD   5
  ------------------------------------------------------------------------------

     CUMULATIVE VOLUMES      L**3       RATES FOR THIS TIME STEP      L**3/T
     ------------------                 ------------------------

           IN:                                      IN:
           ---                                      ---
             STORAGE =    30260649.8948               STORAGE =       17916.7603
       CONSTANT HEAD =    10028179.6442         CONSTANT HEAD =       29868.5188
               WELLS =           0.0000                 WELLS =           0.0000
            RECHARGE =    10074000.0000              RECHARGE =       13800.0000
      STREAM LEAKAGE =     3364540.4453        STREAM LEAKAGE =        9271.6552

            TOTAL IN =    53727369.9843              TOTAL IN =       70856.9343

          OUT:                                     OUT:
          ----                                     ----
             STORAGE =         993.9784               STORAGE =           0.0000
       CONSTANT HEAD =           0.0000         CONSTANT HEAD =           0.0000
               WELLS =    11658003.6224                 WELLS =       25509.8548
            RECHARGE =           0.0000              RECHARGE =           0.0000
      STREAM LEAKAGE =    42068374.5974        STREAM LEAKAGE =       45347.0825

           TOTAL OUT =    53727372.1982             TOTAL OUT =       70856.9373

            IN - OUT =          -2.2139              IN - OUT =      -3.0341E-03

 PERCENT DISCREPANCY =          -0.00     PERCENT DISCREPANCY =          -0.00






         TIME SUMMARY AT END OF TIME STEP    1 IN STRESS PERIOD    5
                    SECONDS     MINUTES      HOURS       DAYS        YEARS
                    -----------------------------------------------------------
   TIME STEP LENGTH 7.94880E+06 1.32480E+05  2208.0      92.000     0.25188    
 STRESS PERIOD TIME 7.94880E+06 1.32480E+05  2208.0      92.000     0.25188    
         TOTAL TIME 3.94848E+07 6.58080E+05  10968.      457.00      1.2512    
1
1
                            STRESS PERIOD NO.    6, LENGTH =   91.00000    
                            -----------------------------------------------

                              NUMBER OF TIME STEPS =     1

                               MULTIPLIER FOR DELT =     1.500

                            INITIAL TIME STEP SIZE =   91.00000    

 WELL NO.  LAYER   ROW   COL   STRESS RATE         
 --------------------------------------------------
      1      1     14      6       0.000    
      2      1      3      9       0.000    
      3      1     20     10       0.000    
      4      1     14     20       0.000    
      5      1     12     11      -2057.    
      6      1     16     17     -0.1037E+05
      7      1     11     22     -0.1125E+05
      8      1     14     25      -1834.    

      8 WELLS

                 RECHARGE =  2.000000E-03

 REUSING STREAM SEGMENT DATA FROM LAST STRESS PERIOD
 
 SOLVING FOR HEAD 


     7 CALLS TO PCG ROUTINE FOR TIME STEP   1 IN STRESS PERIOD    6
    26 TOTAL ITERATIONS

 OUTPUT CONTROL FOR STRESS PERIOD    6   TIME STEP    1
    SAVE BUDGET
    SAVE HEAD FOR ALL LAYERS
    PRINT HEAD FOR ALL LAYERS
 UBDSV2 SAVING "STREAMFLOW OUT  " ON UNIT  50 AT TIME STEP  1, STRESS PERIOD   6



 STREAM LISTING     PERIOD      6   STEP        1

 LAYER ROW COL. STREAM  RCH.  FLOW INTO     FLOW TO   FLOW OUT OF   OVRLND.     DIRECT     STREAM       STREAM     STREAM     STREAM   STREAMBED  STREAMBED
                SEG.NO.  NO.  STRM. RCH.    AQUIFER    STRM. RCH.    RUNOFF     PRECIP       ET          HEAD       DEPTH      WIDTH   CONDCTNC.   GRADIENT

   1   13    1     1     1    1.0000E+05 -2.4332E+03   1.0243E+05  0.000E+00  0.000E+00  0.000E+00  4.84071E+01  1.457E-01  2.000E+01  2.000E+04 -1.217E-01
   1   13    2     1     2    1.0243E+05 -3.4776E+03   1.0591E+05  0.000E+00  0.000E+00  0.000E+00  4.79323E+01  1.482E-01  2.000E+01  2.000E+04 -1.739E-01
   1   14    3     1     3    1.0591E+05 -6.5405E+02   1.0656E+05  0.000E+00  0.000E+00  0.000E+00  4.74568E+01  1.500E-01  2.000E+01  2.000E+04 -3.270E-02
   1   15    4     1     4    1.0656E+05 -6.2905E+02   1.0719E+05  0.000E+00  0.000E+00  0.000E+00  4.69801E+01  1.505E-01  2.000E+01  2.000E+04 -3.145E-02
   1   16    5     1     5    1.0719E+05 -2.1768E+03   1.0937E+05  0.000E+00  0.000E+00  0.000E+00  4.65040E+01  1.517E-01  2.000E+01  2.000E+04 -1.088E-01
   1   16    6     1     6    1.0937E+05 -1.3533E+03   1.1072E+05  0.000E+00  0.000E+00  0.000E+00  4.60282E+01  1.532E-01  2.000E+01  2.000E+04 -6.766E-02
   1   16    7     1     7    1.1072E+05 -1.3075E+03   1.1203E+05  0.000E+00  0.000E+00  0.000E+00  4.55520E+01  1.543E-01  2.000E+01  2.000E+04 -6.537E-02
   1   16    8     1     8    1.1203E+05 -1.2754E+03   1.1331E+05  0.000E+00  0.000E+00  0.000E+00  4.50758E+01  1.554E-01  2.000E+01  2.000E+04 -6.377E-02
   1   16    9     1     9    1.1331E+05 -1.2307E+03   1.1454E+05  0.000E+00  0.000E+00  0.000E+00  4.45996E+01  1.564E-01  2.000E+01  2.000E+04 -6.154E-02
   1   16   10     1    10    1.1454E+05 -1.1707E+03   1.1571E+05  0.000E+00  0.000E+00  0.000E+00  4.41233E+01  1.574E-01  2.000E+01  2.000E+04 -5.853E-02
   1   16   11     1    11    1.1571E+05 -1.1059E+03   1.1681E+05  0.000E+00  0.000E+00  0.000E+00  4.36470E+01  1.583E-01  2.000E+01  2.000E+04 -5.529E-02
   1   16   12     1    12    1.1681E+05 -1.5238E+03   1.1834E+05  0.000E+00  0.000E+00  0.000E+00  4.31708E+01  1.594E-01  2.000E+01  2.000E+04 -7.619E-02
   1   15   13     1    13    1.1834E+05 -1.1204E+03   1.1946E+05  0.000E+00  0.000E+00  0.000E+00  4.26946E+01  1.605E-01  2.000E+01  2.000E+04 -5.602E-02
   1   14   14     1    14    1.1946E+05 -1.1965E+03   1.2065E+05  0.000E+00  0.000E+00  0.000E+00  4.22182E+01  1.614E-01  2.000E+01  2.000E+04 -5.982E-02
   1   13   15     1    15    1.2065E+05 -1.6416E+03   1.2230E+05  0.000E+00  0.000E+00  0.000E+00  4.17421E+01  1.626E-01  2.000E+01  2.000E+04 -8.208E-02
   1   12   16     1    16    1.2230E+05 -2.8023E+03   1.2510E+05  0.000E+00  0.000E+00  0.000E+00  4.12666E+01  1.643E-01  2.000E+01  2.000E+04 -1.401E-01
   1   12   17     1    17    1.2510E+05 -1.5419E+03   1.2664E+05  0.000E+00  0.000E+00  0.000E+00  4.07911E+01  1.661E-01  2.000E+01  2.000E+04 -7.710E-02
   1   12   18     1    18    1.2664E+05 -1.3602E+03   1.2800E+05  0.000E+00  0.000E+00  0.000E+00  4.03149E+01  1.672E-01  2.000E+01  2.000E+04 -6.801E-02
   1   12   19     1    19    1.2800E+05 -1.2777E+03   1.2928E+05  0.000E+00  0.000E+00  0.000E+00  3.98387E+01  1.682E-01  2.000E+01  2.000E+04 -6.388E-02
   1   13   20     1    20    1.2928E+05 -2.3449E+02   1.2951E+05  0.000E+00  0.000E+00  0.000E+00  3.93620E+01  1.688E-01  2.000E+01  2.000E+04 -1.172E-02
   1   14   21     1    21    1.2951E+05 -5.5230E+02   1.3007E+05  0.000E+00  0.000E+00  0.000E+00  3.88851E+01  1.691E-01  2.000E+01  2.000E+04 -2.762E-02
   1   14   22     1    22    1.3007E+05  5.1994E+03   1.2487E+05  0.000E+00  0.000E+00  0.000E+00  3.84060E+01  1.673E-01  2.000E+01  2.000E+04  2.600E-01
   1    9   30     2     1    5.0000E+04 -9.2623E+02   5.0926E+04  0.000E+00  0.000E+00  0.000E+00  4.02415E+01  1.165E-01  2.000E+01  2.000E+04 -4.631E-02
   1    9   29     2     2    5.0926E+04 -1.2117E+03   5.2138E+04  0.000E+00  0.000E+00  0.000E+00  3.99930E+01  1.180E-01  2.000E+01  2.000E+04 -6.058E-02
   1    9   28     2     3    5.2138E+04 -1.4341E+03   5.3572E+04  0.000E+00  0.000E+00  0.000E+00  3.97448E+01  1.198E-01  2.000E+01  2.000E+04 -7.170E-02
   1    9   27     2     4    5.3572E+04 -2.5861E+03   5.6158E+04  0.000E+00  0.000E+00  0.000E+00  3.94975E+01  1.225E-01  2.000E+01  2.000E+04 -1.293E-01
   1   10   26     2     5    5.6158E+04 -1.5145E+03   5.7673E+04  0.000E+00  0.000E+00  0.000E+00  3.92502E+01  1.252E-01  2.000E+01  2.000E+04 -7.572E-02
   1   11   25     2     6    5.7673E+04 -5.6227E+02   5.8235E+04  0.000E+00  0.000E+00  0.000E+00  3.90016E+01  1.266E-01  2.000E+01  2.000E+04 -2.811E-02
   1   12   24     2     7    5.8235E+04  5.1406E+02   5.7721E+04  0.000E+00  0.000E+00  0.000E+00  3.87516E+01  1.266E-01  2.000E+01  2.000E+04  2.570E-02
   1   13   23     2     8    5.7721E+04  1.6154E+02   5.7559E+04  0.000E+00  0.000E+00  0.000E+00  3.85012E+01  1.262E-01  2.000E+01  2.000E+04  8.077E-03
   1   14   22     2     9    5.7559E+04  2.0744E+03   5.5485E+04  0.000E+00  0.000E+00  0.000E+00  3.82497E+01  1.247E-01  2.000E+01  2.000E+04  1.037E-01
   1   14   22     3     1    1.8035E+05 -8.3417E+03   1.8869E+05  0.000E+00  0.000E+00  0.000E+00  3.77289E+01  1.734E-01  2.000E+01  2.000E+04 -4.171E-01
   1   15   23     3     2    1.8869E+05 -5.2165E+02   1.8921E+05  0.000E+00  0.000E+00  0.000E+00  3.68425E+01  1.758E-01  2.000E+01  2.000E+04 -2.608E-02
   1   15   24     3     3    1.8921E+05 -1.9433E+02   1.8941E+05  0.000E+00  0.000E+00  0.000E+00  3.59538E+01  1.760E-01  2.000E+01  2.000E+04 -9.716E-03
   1   15   25     3     4    1.8941E+05  2.0878E+02   1.8920E+05  0.000E+00  0.000E+00  0.000E+00  3.50649E+01  1.760E-01  2.000E+01  2.000E+04  1.044E-02
   1   15   26     3     5    1.8920E+05 -2.5856E+02   1.8946E+05  0.000E+00  0.000E+00  0.000E+00  3.41760E+01  1.760E-01  2.000E+01  2.000E+04 -1.293E-02
   1   16   27     3     6    1.8946E+05 -4.8183E+02   1.8994E+05  0.000E+00  0.000E+00  0.000E+00  3.32874E+01  1.763E-01  2.000E+01  2.000E+04 -2.409E-02
   1   17   28     3     7    1.8994E+05 -1.8935E+03   1.9183E+05  0.000E+00  0.000E+00  0.000E+00  3.23991E+01  1.769E-01  2.000E+01  2.000E+04 -9.467E-02
   1   18   29     3     8    1.9183E+05 -3.2804E+03   1.9511E+05  0.000E+00  0.000E+00  0.000E+00  3.15117E+01  1.784E-01  2.000E+01  2.000E+04 -1.640E-01
   1   18   30     3     9    1.9511E+05 -3.4695E+03   1.9858E+05  0.000E+00  0.000E+00  0.000E+00  3.06247E+01  1.802E-01  2.000E+01  2.000E+04 -1.735E-01



1
              HEAD IN LAYER   1 AT END OF TIME STEP   1 IN STRESS PERIOD    6
  ---------------------------------------------------------------------------

          1      2      3      4      5      6      7      8      9     10
         11     12     13     14     15     16     17     18     19     20
         21     22     23     24     25     26     27     28     29     30
 .........................................................................
   1  ****** ****** ****** ****** ****** ****** ****** ****** ****** ******
      ****** ****** ****** ****** ****** ****** ****** ****** ****** ******
      ****** ****** ****** ****** ****** ****** ****** ****** ****** ******
   2  ****** ****** ****** ****** ****** ****** ****** ****** ****** ******
      ****** ****** ****** ****** ****** ****** ****** ****** ****** ******
      ****** ****** ****** ****** ****** ****** ****** ****** ****** ******
   3  ****** ****** ****** ****** ****** ****** ****** ****** ****** ******
      ****** ****** ****** ****** ****** ****** ****** ****** ****** ******
      ****** ****** ****** ****** ****** ****** ****** ****** ****** ******
   4  ****** ****** ****** ****** ****** ****** ****** ****** ****** ******
      ****** ****** ****** ****** ****** ****** ****** ****** ****** ******
      ****** ****** ****** ****** ****** ****** ****** ****** ****** ******
   5  ****** ****** ****** ****** ****** ****** ****** ****** ****** ******
      ****** ****** ****** ****** ****** ****** ****** ****** ****** ******
      ****** ****** ****** ****** ****** ****** ****** ****** ****** ******
   6  ****** ****** ****** ****** ****** ****** ****** ****** ****** ******
      ****** ****** ****** ****** ****** ****** ****** ****** ****** ******
      ****** ****** ****** ****** ****** ****** ****** ****** ****** ******
   7  ****** ****** ****** ****** ****** ****** ****** ****** ****** ******
      ****** ****** ****** ****** ****** ****** ****** ****** ****** ******
      ****** ****** ****** ****** ****** ****** ****** ****** ****** ******
   8  ****** ****** ****** ****** ****** ****** ****** ****** ****** ******
      ****** ****** ****** ****** ****** ****** ****** ****** ****** ******
      ****** ****** ****** ****** ****** ****** ****** ****** ****** ******
   9  ****** ****** ****** ****** ****** ****** ****** ****** ****** ******
      ****** ****** ****** ****** ****** ****** ****** ****** ****** ******
      ****** ****** ****** ****** ****** ****** ****** ****** ****** ******
  10  ****** ****** ****** ****** ****** ****** ****** ****** ****** ******
      ****** ****** ****** ****** ****** ****** ****** ****** ****** ******
      ****** ****** ****** ****** ****** ****** ****** ****** ****** ******
  11  ****** ****** ****** ****** ****** ****** ****** ****** ****** ******
      ****** ****** ****** ****** ****** ****** ****** ****** ****** ******
      ****** ****** ****** ****** ****** ****** ****** ****** ****** ******
  12  ****** ****** ****** ****** ****** ****** ****** ****** ****** ******
      ****** ****** ****** ****** ****** ****** ****** ****** ****** ******
      ****** ****** ****** ****** ****** ****** ****** ****** ****** ******
  13  ****** ****** ****** ****** ****** ****** ****** ****** ****** ******
      ****** ****** ****** ****** ****** ****** ****** ****** ****** ******
      ****** ****** ****** ****** ****** ****** ****** ****** ****** ******
  14  ****** ****** ****** ****** ****** ****** ****** ****** ****** ******
      ****** ****** ****** ****** ****** ****** ****** ****** ****** ******
      ****** ****** ****** ****** ****** ****** ****** ****** ****** ******
  15  ****** ****** ****** ****** ****** ****** ****** ****** ****** ******
      ****** ****** ****** ****** ****** ****** ****** ****** ****** ******
      ****** ****** ****** ****** ****** ****** ****** ****** ****** ******
  16  ****** ****** ****** ****** ****** ****** ****** ****** ****** ******
      ****** ****** ****** ****** ****** ****** ****** ****** ****** ******
      ****** ****** ****** ****** ****** ****** ****** ****** ****** ******
  17  ****** ****** ****** ****** ****** ****** ****** ****** ****** ******
      ****** ****** ****** ****** ****** ****** ****** ****** ****** ******
      ****** ****** ****** ****** ****** ****** ****** ****** ****** ******
  18  ****** ****** ****** ****** ****** ****** ****** ****** ****** ******
      ****** ****** ****** ****** ****** ****** ****** ****** ****** ******
      ****** ****** ****** ****** ****** ****** ****** ****** ****** ******
  19  ****** ****** ****** ****** ****** ****** ****** ****** ****** ******
      ****** ****** ****** ****** ****** ****** ****** ****** ****** ******
      ****** ****** ****** ****** ****** ****** ****** ****** ****** ******
  20  ****** ****** ****** ****** ****** ****** ****** ****** ****** ******
      ****** ****** ****** ****** ****** ****** ****** ****** ****** ******
      ****** ****** ****** ****** ****** ****** ****** ****** ****** ******
  21  ****** ****** ****** ****** ****** ****** ****** ****** ****** ******
      ****** ****** ****** ****** ****** ****** ****** ****** ****** ******
      ****** ****** ****** ****** ****** ****** ****** ****** ****** ******
  22  ****** ****** ****** ****** ****** ****** ****** ****** ****** ******
      ****** ****** ****** ****** ****** ****** ****** ****** ****** ******
      ****** ****** ****** ****** ****** ****** ****** ****** ****** ******
  23  ****** ****** ****** ****** ****** ****** ****** ****** ****** ******
      ****** ****** ****** ****** ****** ****** ****** ****** ****** ******
      ****** ****** ****** ****** ****** ****** ****** ****** ****** ******
  24  ****** ****** ****** ****** ****** ****** ****** ****** ****** ******
      ****** ****** ****** ****** ****** ****** ****** ****** ****** ******
      ****** ****** ****** ****** ****** ****** ****** ****** ****** ******
  25  ****** ****** ****** ****** ****** ****** ****** ****** ****** ******
      ****** ****** ****** ****** ****** ****** ****** ****** ****** ******
      ****** ****** ****** ****** ****** ****** ****** ****** ****** ******

 HEAD WILL BE SAVED ON UNIT   51 AT END OF TIME STEP    1, STRESS PERIOD    6
1
  VOLUMETRIC BUDGET FOR ENTIRE MODEL AT END OF TIME STEP    1, STRESS PERIOD   6
  ------------------------------------------------------------------------------

     CUMULATIVE VOLUMES      L**3       RATES FOR THIS TIME STEP      L**3/T
     ------------------                 ------------------------

           IN:                                      IN:
           ---                                      ---
             STORAGE =    30260649.8948               STORAGE =           0.0000
       CONSTANT HEAD =    12568976.9895         CONSTANT HEAD =       27920.8499
               WELLS =           0.0000                 WELLS =           0.0000
            RECHARGE =    15097200.0000              RECHARGE =       55200.0000
      STREAM LEAKAGE =     4106929.5014        STREAM LEAKAGE =        8158.1215

            TOTAL IN =    62033756.3857              TOTAL IN =       91278.9714

          OUT:                                     OUT:
          ----                                     ----
             STORAGE =      822496.9573               STORAGE =        9027.5053
       CONSTANT HEAD =           0.0000         CONSTANT HEAD =           0.0000
               WELLS =    13979400.4050                 WELLS =       25509.8548
            RECHARGE =           0.0000              RECHARGE =           0.0000
      STREAM LEAKAGE =    47231860.9800        STREAM LEAKAGE =       56741.6086

           TOTAL OUT =    62033758.3423             TOTAL OUT =       91278.9686

            IN - OUT =          -1.9566              IN - OUT =       2.8272E-03

 PERCENT DISCREPANCY =          -0.00     PERCENT DISCREPANCY =           0.00






         TIME SUMMARY AT END OF TIME STEP    1 IN STRESS PERIOD    6
                    SECONDS     MINUTES      HOURS       DAYS        YEARS
                    -----------------------------------------------------------
   TIME STEP LENGTH 7.86240E+06 1.31040E+05  2184.0      91.000     0.24914    
 STRESS PERIOD TIME 7.86240E+06 1.31040E+05  2184.0      91.000     0.24914    
         TOTAL TIME 4.73472E+07 7.89120E+05  13152.      548.00      1.5003    
1
1
                            STRESS PERIOD NO.    7, LENGTH =   91.00000    
                            -----------------------------------------------

                              NUMBER OF TIME STEPS =     1

                               MULTIPLIER FOR DELT =     1.500

                            INITIAL TIME STEP SIZE =   91.00000    

 WELL NO.  LAYER   ROW   COL   STRESS RATE         
 --------------------------------------------------
      1      1     14      6       0.000    
      2      1      3      9       0.000    
      3      1     20     10       0.000    
      4      1     14     20       0.000    
      5      1     12     11      -2057.    
      6      1     16     17     -0.1037E+05
      7      1     11     22     -0.1125E+05
      8      1     14     25      -1834.    

      8 WELLS

                 RECHARGE =   0.00000    

 REUSING STREAM SEGMENT DATA FROM LAST STRESS PERIOD
 
 SOLVING FOR HEAD 


     7 CALLS TO PCG ROUTINE FOR TIME STEP   1 IN STRESS PERIOD    7
    26 TOTAL ITERATIONS

 OUTPUT CONTROL FOR STRESS PERIOD    7   TIME STEP    1
    SAVE BUDGET
    SAVE HEAD FOR ALL LAYERS
    PRINT HEAD FOR ALL LAYERS
 UBDSV2 SAVING "STREAMFLOW OUT  " ON UNIT  50 AT TIME STEP  1, STRESS PERIOD   7



 STREAM LISTING     PERIOD      7   STEP        1

 LAYER ROW COL. STREAM  RCH.  FLOW INTO     FLOW TO   FLOW OUT OF   OVRLND.     DIRECT     STREAM       STREAM     STREAM     STREAM   STREAMBED  STREAMBED
                SEG.NO.  NO.  STRM. RCH.    AQUIFER    STRM. RCH.    RUNOFF     PRECIP       ET          HEAD       DEPTH      WIDTH   CONDCTNC.   GRADIENT

   1   13    1     1     1    1.0000E+05 -1.7706E+03   1.0177E+05  0.000E+00  0.000E+00  0.000E+00  4.84068E+01  1.454E-01  2.000E+01  2.000E+04 -8.853E-02
   1   13    2     1     2    1.0177E+05 -2.7360E+03   1.0451E+05  0.000E+00  0.000E+00  0.000E+00  4.79315E+01  1.474E-01  2.000E+01  2.000E+04 -1.368E-01
   1   14    3     1     3    1.0451E+05 -4.0226E+02   1.0491E+05  0.000E+00  0.000E+00  0.000E+00  4.74555E+01  1.487E-01  2.000E+01  2.000E+04 -2.011E-02
   1   15    4     1     4    1.0491E+05 -3.6633E+02   1.0528E+05  0.000E+00  0.000E+00  0.000E+00  4.69786E+01  1.490E-01  2.000E+01  2.000E+04 -1.832E-02
   1   16    5     1     5    1.0528E+05 -1.4232E+03   1.0670E+05  0.000E+00  0.000E+00  0.000E+00  4.65021E+01  1.498E-01  2.000E+01  2.000E+04 -7.116E-02
   1   16    6     1     6    1.0670E+05 -8.9864E+02   1.0760E+05  0.000E+00  0.000E+00  0.000E+00  4.60258E+01  1.508E-01  2.000E+01  2.000E+04 -4.493E-02
   1   16    7     1     7    1.0760E+05 -8.7114E+02   1.0847E+05  0.000E+00  0.000E+00  0.000E+00  4.55492E+01  1.515E-01  2.000E+01  2.000E+04 -4.356E-02
   1   16    8     1     8    1.0847E+05 -8.4494E+02   1.0931E+05  0.000E+00  0.000E+00  0.000E+00  4.50727E+01  1.522E-01  2.000E+01  2.000E+04 -4.225E-02
   1   16    9     1     9    1.0931E+05 -8.0336E+02   1.1012E+05  0.000E+00  0.000E+00  0.000E+00  4.45961E+01  1.529E-01  2.000E+01  2.000E+04 -4.017E-02
   1   16   10     1    10    1.1012E+05 -7.4581E+02   1.1086E+05  0.000E+00  0.000E+00  0.000E+00  4.41195E+01  1.536E-01  2.000E+01  2.000E+04 -3.729E-02
   1   16   11     1    11    1.1086E+05 -6.7988E+02   1.1154E+05  0.000E+00  0.000E+00  0.000E+00  4.36428E+01  1.542E-01  2.000E+01  2.000E+04 -3.399E-02
   1   16   12     1    12    1.1154E+05 -8.0808E+02   1.1235E+05  0.000E+00  0.000E+00  0.000E+00  4.31661E+01  1.548E-01  2.000E+01  2.000E+04 -4.040E-02
   1   15   13     1    13    1.1235E+05 -3.5359E+02   1.1270E+05  0.000E+00  0.000E+00  0.000E+00  4.26894E+01  1.553E-01  2.000E+01  2.000E+04 -1.768E-02
   1   14   14     1    14    1.1270E+05 -4.0288E+02   1.1311E+05  0.000E+00  0.000E+00  0.000E+00  4.22124E+01  1.556E-01  2.000E+01  2.000E+04 -2.014E-02
   1   13   15     1    15    1.1311E+05 -8.4701E+02   1.1395E+05  0.000E+00  0.000E+00  0.000E+00  4.17356E+01  1.561E-01  2.000E+01  2.000E+04 -4.235E-02
   1   12   16     1    16    1.1395E+05 -2.0156E+03   1.1597E+05  0.000E+00  0.000E+00  0.000E+00  4.12595E+01  1.573E-01  2.000E+01  2.000E+04 -1.008E-01
   1   12   17     1    17    1.1597E+05 -9.6888E+02   1.1694E+05  0.000E+00  0.000E+00  0.000E+00  4.07835E+01  1.585E-01  2.000E+01  2.000E+04 -4.844E-02
   1   12   18     1    18    1.1694E+05 -8.0085E+02   1.1774E+05  0.000E+00  0.000E+00  0.000E+00  4.03069E+01  1.592E-01  2.000E+01  2.000E+04 -4.004E-02
   1   12   19     1    19    1.1774E+05 -5.9436E+02   1.1833E+05  0.000E+00  0.000E+00  0.000E+00  3.98302E+01  1.598E-01  2.000E+01  2.000E+04 -2.972E-02
   1   13   20     1    20    1.1833E+05  4.3308E+02   1.1790E+05  0.000E+00  0.000E+00  0.000E+00  3.93530E+01  1.598E-01  2.000E+01  2.000E+04  2.165E-02
   1   14   21     1    21    1.1790E+05  1.0765E+02   1.1779E+05  0.000E+00  0.000E+00  0.000E+00  3.88755E+01  1.596E-01  2.000E+01  2.000E+04  5.383E-03
   1   14   22     1    22    1.1779E+05  5.3568E+03   1.1244E+05  0.000E+00  0.000E+00  0.000E+00  3.83960E+01  1.574E-01  2.000E+01  2.000E+04  2.678E-01
   1    9   30     2     1    5.0000E+04 -4.1364E+02   5.0414E+04  0.000E+00  0.000E+00  0.000E+00  4.02412E+01  1.162E-01  2.000E+01  2.000E+04 -2.068E-02
   1    9   29     2     2    5.0414E+04 -7.0091E+02   5.1115E+04  0.000E+00  0.000E+00  0.000E+00  3.99919E+01  1.169E-01  2.000E+01  2.000E+04 -3.505E-02
   1    9   28     2     3    5.1115E+04 -9.2215E+02   5.2037E+04  0.000E+00  0.000E+00  0.000E+00  3.97430E+01  1.180E-01  2.000E+01  2.000E+04 -4.611E-02
   1    9   27     2     4    5.2037E+04 -1.8914E+03   5.3928E+04  0.000E+00  0.000E+00  0.000E+00  3.94950E+01  1.200E-01  2.000E+01  2.000E+04 -9.457E-02
   1   10   26     2     5    5.3928E+04 -8.1736E+02   5.4745E+04  0.000E+00  0.000E+00  0.000E+00  3.92468E+01  1.218E-01  2.000E+01  2.000E+04 -4.087E-02
   1   11   25     2     6    5.4745E+04  1.0634E+02   5.4639E+04  0.000E+00  0.000E+00  0.000E+00  3.89973E+01  1.223E-01  2.000E+01  2.000E+04  5.317E-03
   1   12   24     2     7    5.4639E+04  1.1235E+03   5.3516E+04  0.000E+00  0.000E+00  0.000E+00  3.87464E+01  1.214E-01  2.000E+01  2.000E+04  5.618E-02
   1   13   23     2     8    5.3516E+04  3.5310E+02   5.3162E+04  0.000E+00  0.000E+00  0.000E+00  3.84954E+01  1.204E-01  2.000E+01  2.000E+04  1.765E-02
   1   14   22     2     9    5.3162E+04  2.3088E+03   5.0854E+04  0.000E+00  0.000E+00  0.000E+00  3.82436E+01  1.186E-01  2.000E+01  2.000E+04  1.154E-01
   1   14   22     3     1    1.6329E+05 -8.1828E+03   1.7147E+05  0.000E+00  0.000E+00  0.000E+00  3.77191E+01  1.635E-01  2.000E+01  2.000E+04 -4.091E-01
   1   15   23     3     2    1.7147E+05 -3.1554E+02   1.7179E+05  0.000E+00  0.000E+00  0.000E+00  3.68326E+01  1.660E-01  2.000E+01  2.000E+04 -1.578E-02
   1   15   24     3     3    1.7179E+05 -2.0902E+01   1.7181E+05  0.000E+00  0.000E+00  0.000E+00  3.59439E+01  1.661E-01  2.000E+01  2.000E+04 -1.045E-03
   1   15   25     3     4    1.7181E+05  3.8529E+02   1.7142E+05  0.000E+00  0.000E+00  0.000E+00  3.50549E+01  1.660E-01  2.000E+01  2.000E+04  1.926E-02
   1   15   26     3     5    1.7142E+05 -5.7500E+01   1.7148E+05  0.000E+00  0.000E+00  0.000E+00  3.41659E+01  1.659E-01  2.000E+01  2.000E+04 -2.875E-03
   1   16   27     3     6    1.7148E+05 -2.4977E+02   1.7173E+05  0.000E+00  0.000E+00  0.000E+00  3.32771E+01  1.660E-01  2.000E+01  2.000E+04 -1.249E-02
   1   17   28     3     7    1.7173E+05 -1.2530E+03   1.7298E+05  0.000E+00  0.000E+00  0.000E+00  3.23886E+01  1.664E-01  2.000E+01  2.000E+04 -6.265E-02
   1   18   29     3     8    1.7298E+05 -2.5963E+03   1.7558E+05  0.000E+00  0.000E+00  0.000E+00  3.15008E+01  1.675E-01  2.000E+01  2.000E+04 -1.298E-01
   1   18   30     3     9    1.7558E+05 -2.9422E+03   1.7852E+05  0.000E+00  0.000E+00  0.000E+00  3.06136E+01  1.691E-01  2.000E+01  2.000E+04 -1.471E-01



1
              HEAD IN LAYER   1 AT END OF TIME STEP   1 IN STRESS PERIOD    7
  ---------------------------------------------------------------------------

          1      2      3      4      5      6      7      8      9     10
         11     12     13     14     15     16     17     18     19     20
         21     22     23     24     25     26     27     28     29     30
 .........................................................................
   1  ****** ****** ****** ****** ****** ****** ****** ****** ****** ******
      ****** ****** ****** ****** ****** ****** ****** ****** ****** ******
      ****** ****** ****** ****** ****** ****** ****** ****** ****** ******
   2  ****** ****** ****** ****** ****** ****** ****** ****** ****** ******
      ****** ****** ****** ****** ****** ****** ****** ****** ****** ******
      ****** ****** ****** ****** ****** ****** ****** ****** ****** ******
   3  ****** ****** ****** ****** ****** ****** ****** ****** ****** ******
      ****** ****** ****** ****** ****** ****** ****** ****** ****** ******
      ****** ****** ****** ****** ****** ****** ****** ****** ****** ******
   4  ****** ****** ****** ****** ****** ****** ****** ****** ****** ******
      ****** ****** ****** ****** ****** ****** ****** ****** ****** ******
      ****** ****** ****** ****** ****** ****** ****** ****** ****** ******
   5  ****** ****** ****** ****** ****** ****** ****** ****** ****** ******
      ****** ****** ****** ****** ****** ****** ****** ****** ****** ******
      ****** ****** ****** ****** ****** ****** ****** ****** ****** ******
   6  ****** ****** ****** ****** ****** ****** ****** ****** ****** ******
      ****** ****** ****** ****** ****** ****** ****** ****** ****** ******
      ****** ****** ****** ****** ****** ****** ****** ****** ****** ******
   7  ****** ****** ****** ****** ****** ****** ****** ****** ****** ******
      ****** ****** ****** ****** ****** ****** ****** ****** ****** ******
      ****** ****** ****** ****** ****** ****** ****** ****** ****** ******
   8  ****** ****** ****** ****** ****** ****** ****** ****** ****** ******
      ****** ****** ****** ****** ****** ****** ****** ****** ****** ******
      ****** ****** ****** ****** ****** ****** ****** ****** ****** ******
   9  ****** ****** ****** ****** ****** ****** ****** ****** ****** ******
      ****** ****** ****** ****** ****** ****** ****** ****** ****** ******
      ****** ****** ****** ****** ****** ****** ****** ****** ****** ******
  10  ****** ****** ****** ****** ****** ****** ****** ****** ****** ******
      ****** ****** ****** ****** ****** ****** ****** ****** ****** ******
      ****** ****** ****** ****** ****** ****** ****** ****** ****** ******
  11  ****** ****** ****** ****** ****** ****** ****** ****** ****** ******
      ****** ****** ****** ****** ****** ****** ****** ****** ****** ******
      ****** ****** ****** ****** ****** ****** ****** ****** ****** ******
  12  ****** ****** ****** ****** ****** ****** ****** ****** ****** ******
      ****** ****** ****** ****** ****** ****** ****** ****** ****** ******
      ****** ****** ****** ****** ****** ****** ****** ****** ****** ******
  13  ****** ****** ****** ****** ****** ****** ****** ****** ****** ******
      ****** ****** ****** ****** ****** ****** ****** ****** ****** ******
      ****** ****** ****** ****** ****** ****** ****** ****** ****** ******
  14  ****** ****** ****** ****** ****** ****** ****** ****** ****** ******
      ****** ****** ****** ****** ****** ****** ****** ****** ****** ******
      ****** ****** ****** ****** ****** ****** ****** ****** ****** ******
  15  ****** ****** ****** ****** ****** ****** ****** ****** ****** ******
      ****** ****** ****** ****** ****** ****** ****** ****** ****** ******
      ****** ****** ****** ****** ****** ****** ****** ****** ****** ******
  16  ****** ****** ****** ****** ****** ****** ****** ****** ****** ******
      ****** ****** ****** ****** ****** ****** ****** ****** ****** ******
      ****** ****** ****** ****** ****** ****** ****** ****** ****** ******
  17  ****** ****** ****** ****** ****** ****** ****** ****** ****** ******
      ****** ****** ****** ****** ****** ****** ****** ****** ****** ******
      ****** ****** ****** ****** ****** ****** ****** ****** ****** ******
  18  ****** ****** ****** ****** ****** ****** ****** ****** ****** ******
      ****** ****** ****** ****** ****** ****** ****** ****** ****** ******
      ****** ****** ****** ****** ****** ****** ****** ****** ****** ******
  19  ****** ****** ****** ****** ****** ****** ****** ****** ****** ******
      ****** ****** ****** ****** ****** ****** ****** ****** ****** ******
      ****** ****** ****** ****** ****** ****** ****** ****** ****** ******
  20  ****** ****** ****** ****** ****** ****** ****** ****** ****** ******
      ****** ****** ****** ****** ****** ****** ****** ****** ****** ******
      ****** ****** ****** ****** ****** ****** ****** ****** ****** ******
  21  ****** ****** ****** ****** ****** ****** ****** ****** ****** ******
      ****** ****** ****** ****** ****** ****** ****** ****** ****** ******
      ****** ****** ****** ****** ****** ****** ****** ****** ****** ******
  22  ****** ****** ****** ****** ****** ****** ****** ****** ****** ******
      ****** ****** ****** ****** ****** ****** ****** ****** ****** ******
      ****** ****** ****** ****** ****** ****** ****** ****** ****** ******
  23  ****** ****** ****** ****** ****** ****** ****** ****** ****** ******
      ****** ****** ****** ****** ****** ****** ****** ****** ****** ******
      ****** ****** ****** ****** ****** ****** ****** ****** ****** ******
  24  ****** ****** ****** ****** ****** ****** ****** ****** ****** ******
      ****** ****** ****** ****** ****** ****** ****** ****** ****** ******
      ****** ****** ****** ****** ****** ****** ****** ****** ****** ******
  25  ****** ****** ****** ****** ****** ****** ****** ****** ****** ******
      ****** ****** ****** ****** ****** ****** ****** ****** ****** ******
      ****** ****** ****** ****** ****** ****** ****** ****** ****** ******

 HEAD WILL BE SAVED ON UNIT   51 AT END OF TIME STEP    1, STRESS PERIOD    7
1
  VOLUMETRIC BUDGET FOR ENTIRE MODEL AT END OF TIME STEP    1, STRESS PERIOD   7
  ------------------------------------------------------------------------------

     CUMULATIVE VOLUMES      L**3       RATES FOR THIS TIME STEP      L**3/T
     ------------------                 ------------------------

           IN:                                      IN:
           ---                                      ---
             STORAGE =    32281752.6790               STORAGE =       22209.9207
       CONSTANT HEAD =    15464804.5438         CONSTANT HEAD =       31822.2808
               WELLS =           0.0000                 WELLS =           0.0000
            RECHARGE =    15097200.0000              RECHARGE =           0.0000
      STREAM LEAKAGE =     5032812.1936        STREAM LEAKAGE =       10174.5351

            TOTAL IN =    67876569.4164              TOTAL IN =       64206.7366

          OUT:                                     OUT:
          ----                                     ----
             STORAGE =      822496.9573               STORAGE =           0.0000
       CONSTANT HEAD =           0.0000         CONSTANT HEAD =           0.0000
               WELLS =    16300797.1875                 WELLS =       25509.8548
            RECHARGE =           0.0000              RECHARGE =           0.0000
      STREAM LEAKAGE =    50753277.7157        STREAM LEAKAGE =       38696.8872

           TOTAL OUT =    67876571.8605             TOTAL OUT =       64206.7420

            IN - OUT =          -2.4442              IN - OUT =      -5.3581E-03

 PERCENT DISCREPANCY =          -0.00     PERCENT DISCREPANCY =          -0.00






         TIME SUMMARY AT END OF TIME STEP    1 IN STRESS PERIOD    7
                    SECONDS     MINUTES      HOURS       DAYS        YEARS
                    -----------------------------------------------------------
   TIME STEP LENGTH 7.86240E+06 1.31040E+05  2184.0      91.000     0.24914    
 STRESS PERIOD TIME 7.86240E+06 1.31040E+05  2184.0      91.000     0.24914    
         TOTAL TIME 5.52096E+07 9.20160E+05  15336.      639.00      1.7495    
1
1
                            STRESS PERIOD NO.    8, LENGTH =   91.00000    
                            -----------------------------------------------

                              NUMBER OF TIME STEPS =     1

                               MULTIPLIER FOR DELT =     1.500

                            INITIAL TIME STEP SIZE =   91.00000    

 WELL NO.  LAYER   ROW   COL   STRESS RATE         
 --------------------------------------------------
      1      1     14      6       0.000    
      2      1      3      9       0.000    
      3      1     20     10       0.000    
      4      1     14     20       0.000    
      5      1     12     11      -2057.    
      6      1     16     17     -0.1037E+05
      7      1     11     22     -0.1125E+05
      8      1     14     25      -1834.    

      8 WELLS

                 RECHARGE =  1.000000E-03

 REUSING STREAM SEGMENT DATA FROM LAST STRESS PERIOD
 
 SOLVING FOR HEAD 


     6 CALLS TO PCG ROUTINE FOR TIME STEP   1 IN STRESS PERIOD    8
    22 TOTAL ITERATIONS

 OUTPUT CONTROL FOR STRESS PERIOD    8   TIME STEP    1
    SAVE BUDGET
    SAVE HEAD FOR ALL LAYERS
    PRINT HEAD FOR ALL LAYERS
 UBDSV2 SAVING "STREAMFLOW OUT  " ON UNIT  50 AT TIME STEP  1, STRESS PERIOD   8



 STREAM LISTING     PERIOD      8   STEP        1

 LAYER ROW COL. STREAM  RCH.  FLOW INTO     FLOW TO   FLOW OUT OF   OVRLND.     DIRECT     STREAM       STREAM     STREAM     STREAM   STREAMBED  STREAMBED
                SEG.NO.  NO.  STRM. RCH.    AQUIFER    STRM. RCH.    RUNOFF     PRECIP       ET          HEAD       DEPTH      WIDTH   CONDCTNC.   GRADIENT

   1   13    1     1     1    1.0000E+05 -1.8467E+03   1.0185E+05  0.000E+00  0.000E+00  0.000E+00  4.84068E+01  1.455E-01  2.000E+01  2.000E+04 -9.234E-02
   1   13    2     1     2    1.0185E+05 -2.8120E+03   1.0466E+05  0.000E+00  0.000E+00  0.000E+00  4.79315E+01  1.475E-01  2.000E+01  2.000E+04 -1.406E-01
   1   14    3     1     3    1.0466E+05 -4.6649E+02   1.0513E+05  0.000E+00  0.000E+00  0.000E+00  4.74557E+01  1.489E-01  2.000E+01  2.000E+04 -2.332E-02
   1   15    4     1     4    1.0513E+05 -4.3508E+02   1.0556E+05  0.000E+00  0.000E+00  0.000E+00  4.69788E+01  1.492E-01  2.000E+01  2.000E+04 -2.175E-02
   1   16    5     1     5    1.0556E+05 -1.5971E+03   1.0716E+05  0.000E+00  0.000E+00  0.000E+00  4.65024E+01  1.501E-01  2.000E+01  2.000E+04 -7.985E-02
   1   16    6     1     6    1.0716E+05 -1.0055E+03   1.0816E+05  0.000E+00  0.000E+00  0.000E+00  4.60262E+01  1.512E-01  2.000E+01  2.000E+04 -5.028E-02
   1   16    7     1     7    1.0816E+05 -9.7302E+02   1.0914E+05  0.000E+00  0.000E+00  0.000E+00  4.55498E+01  1.520E-01  2.000E+01  2.000E+04 -4.865E-02
   1   16    8     1     8    1.0914E+05 -9.4597E+02   1.1008E+05  0.000E+00  0.000E+00  0.000E+00  4.50733E+01  1.528E-01  2.000E+01  2.000E+04 -4.730E-02
   1   16    9     1     9    1.1008E+05 -9.0556E+02   1.1099E+05  0.000E+00  0.000E+00  0.000E+00  4.45968E+01  1.536E-01  2.000E+01  2.000E+04 -4.528E-02
   1   16   10     1    10    1.1099E+05 -8.5056E+02   1.1184E+05  0.000E+00  0.000E+00  0.000E+00  4.41203E+01  1.543E-01  2.000E+01  2.000E+04 -4.253E-02
   1   16   11     1    11    1.1184E+05 -7.8777E+02   1.1263E+05  0.000E+00  0.000E+00  0.000E+00  4.36437E+01  1.550E-01  2.000E+01  2.000E+04 -3.939E-02
   1   16   12     1    12    1.1263E+05 -9.6966E+02   1.1360E+05  0.000E+00  0.000E+00  0.000E+00  4.31671E+01  1.557E-01  2.000E+01  2.000E+04 -4.848E-02
   1   15   13     1    13    1.1360E+05 -5.2241E+02   1.1412E+05  0.000E+00  0.000E+00  0.000E+00  4.26905E+01  1.564E-01  2.000E+01  2.000E+04 -2.612E-02
   1   14   14     1    14    1.1412E+05 -5.6504E+02   1.1468E+05  0.000E+00  0.000E+00  0.000E+00  4.22136E+01  1.568E-01  2.000E+01  2.000E+04 -2.825E-02
   1   13   15     1    15    1.1468E+05 -9.9661E+02   1.1568E+05  0.000E+00  0.000E+00  0.000E+00  4.17370E+01  1.575E-01  2.000E+01  2.000E+04 -4.983E-02
   1   12   16     1    16    1.1568E+05 -2.1277E+03   1.1781E+05  0.000E+00  0.000E+00  0.000E+00  4.12610E+01  1.587E-01  2.000E+01  2.000E+04 -1.064E-01
   1   12   17     1    17    1.1781E+05 -1.0807E+03   1.1889E+05  0.000E+00  0.000E+00  0.000E+00  4.07850E+01  1.600E-01  2.000E+01  2.000E+04 -5.404E-02
   1   12   18     1    18    1.1889E+05 -9.1935E+02   1.1981E+05  0.000E+00  0.000E+00  0.000E+00  4.03086E+01  1.608E-01  2.000E+01  2.000E+04 -4.597E-02
   1   12   19     1    19    1.1981E+05 -7.4382E+02   1.2055E+05  0.000E+00  0.000E+00  0.000E+00  3.98320E+01  1.615E-01  2.000E+01  2.000E+04 -3.719E-02
   1   13   20     1    20    1.2055E+05  2.5464E+02   1.2030E+05  0.000E+00  0.000E+00  0.000E+00  3.93549E+01  1.617E-01  2.000E+01  2.000E+04  1.273E-02
   1   14   21     1    21    1.2030E+05 -5.1103E+01   1.2035E+05  0.000E+00  0.000E+00  0.000E+00  3.88775E+01  1.616E-01  2.000E+01  2.000E+04 -2.555E-03
   1   14   22     1    22    1.2035E+05  5.3089E+03   1.1504E+05  0.000E+00  0.000E+00  0.000E+00  3.83981E+01  1.595E-01  2.000E+01  2.000E+04  2.654E-01
   1    9   30     2     1    5.0000E+04 -5.7702E+02   5.0577E+04  0.000E+00  0.000E+00  0.000E+00  4.02413E+01  1.163E-01  2.000E+01  2.000E+04 -2.885E-02
   1    9   29     2     2    5.0577E+04 -8.6152E+02   5.1439E+04  0.000E+00  0.000E+00  0.000E+00  3.99923E+01  1.173E-01  2.000E+01  2.000E+04 -4.308E-02
   1    9   28     2     3    5.1439E+04 -1.0772E+03   5.2516E+04  0.000E+00  0.000E+00  0.000E+00  3.97436E+01  1.186E-01  2.000E+01  2.000E+04 -5.386E-02
   1    9   27     2     4    5.2516E+04 -2.0698E+03   5.4586E+04  0.000E+00  0.000E+00  0.000E+00  3.94957E+01  1.207E-01  2.000E+01  2.000E+04 -1.035E-01
   1   10   26     2     5    5.4586E+04 -1.0228E+03   5.5608E+04  0.000E+00  0.000E+00  0.000E+00  3.92478E+01  1.228E-01  2.000E+01  2.000E+04 -5.114E-02
   1   11   25     2     6    5.5608E+04 -9.7574E+01   5.5706E+04  0.000E+00  0.000E+00  0.000E+00  3.89986E+01  1.236E-01  2.000E+01  2.000E+04 -4.879E-03
   1   12   24     2     7    5.5706E+04  9.3845E+02   5.4768E+04  0.000E+00  0.000E+00  0.000E+00  3.87480E+01  1.230E-01  2.000E+01  2.000E+04  4.692E-02
   1   13   23     2     8    5.4768E+04  2.7881E+02   5.4489E+04  0.000E+00  0.000E+00  0.000E+00  3.84972E+01  1.222E-01  2.000E+01  2.000E+04  1.394E-02
   1   14   22     2     9    5.4489E+04  2.2556E+03   5.2233E+04  0.000E+00  0.000E+00  0.000E+00  3.82455E+01  1.205E-01  2.000E+01  2.000E+04  1.128E-01
   1   14   22     3     1    1.6727E+05 -8.2261E+03   1.7550E+05  0.000E+00  0.000E+00  0.000E+00  3.77214E+01  1.658E-01  2.000E+01  2.000E+04 -4.113E-01
   1   15   23     3     2    1.7550E+05 -3.7978E+02   1.7588E+05  0.000E+00  0.000E+00  0.000E+00  3.68350E+01  1.683E-01  2.000E+01  2.000E+04 -1.899E-02
   1   15   24     3     3    1.7588E+05 -8.1435E+01   1.7596E+05  0.000E+00  0.000E+00  0.000E+00  3.59462E+01  1.685E-01  2.000E+01  2.000E+04 -4.072E-03
   1   15   25     3     4    1.7596E+05  3.2303E+02   1.7564E+05  0.000E+00  0.000E+00  0.000E+00  3.50573E+01  1.684E-01  2.000E+01  2.000E+04  1.615E-02
   1   15   26     3     5    1.7564E+05 -1.3217E+02   1.7577E+05  0.000E+00  0.000E+00  0.000E+00  3.41683E+01  1.683E-01  2.000E+01  2.000E+04 -6.609E-03
   1   16   27     3     6    1.7577E+05 -3.3163E+02   1.7610E+05  0.000E+00  0.000E+00  0.000E+00  3.32796E+01  1.685E-01  2.000E+01  2.000E+04 -1.658E-02
   1   17   28     3     7    1.7610E+05 -1.4569E+03   1.7756E+05  0.000E+00  0.000E+00  0.000E+00  3.23912E+01  1.690E-01  2.000E+01  2.000E+04 -7.284E-02
   1   18   29     3     8    1.7756E+05 -2.7620E+03   1.8032E+05  0.000E+00  0.000E+00  0.000E+00  3.15035E+01  1.702E-01  2.000E+01  2.000E+04 -1.381E-01
   1   18   30     3     9    1.8032E+05 -3.0891E+03   1.8341E+05  0.000E+00  0.000E+00  0.000E+00  3.06163E+01  1.718E-01  2.000E+01  2.000E+04 -1.545E-01



1
              HEAD IN LAYER   1 AT END OF TIME STEP   1 IN STRESS PERIOD    8
  ---------------------------------------------------------------------------

          1      2      3      4      5      6      7      8      9     10
         11     12     13     14     15     16     17     18     19     20
         21     22     23     24     25     26     27     28     29     30
 .........................................................................
   1  ****** ****** ****** ****** ****** ****** ****** ****** ****** ******
      ****** ****** ****** ****** ****** ****** ****** ****** ****** ******
      ****** ****** ****** ****** ****** ****** ****** ****** ****** ******
   2  ****** ****** ****** ****** ****** ****** ****** ****** ****** ******
      ****** ****** ****** ****** ****** ****** ****** ****** ****** ******
      ****** ****** ****** ****** ****** ****** ****** ****** ****** ******
   3  ****** ****** ****** ****** ****** ****** ****** ****** ****** ******
      ****** ****** ****** ****** ****** ****** ****** ****** ****** ******
      ****** ****** ****** ****** ****** ****** ****** ****** ****** ******
   4  ****** ****** ****** ****** ****** ****** ****** ****** ****** ******
      ****** ****** ****** ****** ****** ****** ****** ****** ****** ******
      ****** ****** ****** ****** ****** ****** ****** ****** ****** ******
   5  ****** ****** ****** ****** ****** ****** ****** ****** ****** ******
      ****** ****** ****** ****** ****** ****** ****** ****** ****** ******
      ****** ****** ****** ****** ****** ****** ****** ****** ****** ******
   6  ****** ****** ****** ****** ****** ****** ****** ****** ****** ******
      ****** ****** ****** ****** ****** ****** ****** ****** ****** ******
      ****** ****** ****** ****** ****** ****** ****** ****** ****** ******
   7  ****** ****** ****** ****** ****** ****** ****** ****** ****** ******
      ****** ****** ****** ****** ****** ****** ****** ****** ****** ******
      ****** ****** ****** ****** ****** ****** ****** ****** ****** ******
   8  ****** ****** ****** ****** ****** ****** ****** ****** ****** ******
      ****** ****** ****** ****** ****** ****** ****** ****** ****** ******
      ****** ****** ****** ****** ****** ****** ****** ****** ****** ******
   9  ****** ****** ****** ****** ****** ****** ****** ****** ****** ******
      ****** ****** ****** ****** ****** ****** ****** ****** ****** ******
      ****** ****** ****** ****** ****** ****** ****** ****** ****** ******
  10  ****** ****** ****** ****** ****** ****** ****** ****** ****** ******
      ****** ****** ****** ****** ****** ****** ****** ****** ****** ******
      ****** ****** ****** ****** ****** ****** ****** ****** ****** ******
  11  ****** ****** ****** ****** ****** ****** ****** ****** ****** ******
      ****** ****** ****** ****** ****** ****** ****** ****** ****** ******
      ****** ****** ****** ****** ****** ****** ****** ****** ****** ******
  12  ****** ****** ****** ****** ****** ****** ****** ****** ****** ******
      ****** ****** ****** ****** ****** ****** ****** ****** ****** ******
      ****** ****** ****** ****** ****** ****** ****** ****** ****** ******
  13  ****** ****** ****** ****** ****** ****** ****** ****** ****** ******
      ****** ****** ****** ****** ****** ****** ****** ****** ****** ******
      ****** ****** ****** ****** ****** ****** ****** ****** ****** ******
  14  ****** ****** ****** ****** ****** ****** ****** ****** ****** ******
      ****** ****** ****** ****** ****** ****** ****** ****** ****** ******
      ****** ****** ****** ****** ****** ****** ****** ****** ****** ******
  15  ****** ****** ****** ****** ****** ****** ****** ****** ****** ******
      ****** ****** ****** ****** ****** ****** ****** ****** ****** ******
      ****** ****** ****** ****** ****** ****** ****** ****** ****** ******
  16  ****** ****** ****** ****** ****** ****** ****** ****** ****** ******
      ****** ****** ****** ****** ****** ****** ****** ****** ****** ******
      ****** ****** ****** ****** ****** ****** ****** ****** ****** ******
  17  ****** ****** ****** ****** ****** ****** ****** ****** ****** ******
      ****** ****** ****** ****** ****** ****** ****** ****** ****** ******
      ****** ****** ****** ****** ****** ****** ****** ****** ****** ******
  18  ****** ****** ****** ****** ****** ****** ****** ****** ****** ******
      ****** ****** ****** ****** ****** ****** ****** ****** ****** ******
      ****** ****** ****** ****** ****** ****** ****** ****** ****** ******
  19  ****** ****** ****** ****** ****** ****** ****** ****** ****** ******
      ****** ****** ****** ****** ****** ****** ****** ****** ****** ******
      ****** ****** ****** ****** ****** ****** ****** ****** ****** ******
  20  ****** ****** ****** ****** ****** ****** ****** ****** ****** ******
      ****** ****** ****** ****** ****** ****** ****** ****** ****** ******
      ****** ****** ****** ****** ****** ****** ****** ****** ****** ******
  21  ****** ****** ****** ****** ****** ****** ****** ****** ****** ******
      ****** ****** ****** ****** ****** ****** ****** ****** ****** ******
      ****** ****** ****** ****** ****** ****** ****** ****** ****** ******
  22  ****** ****** ****** ****** ****** ****** ****** ****** ****** ******
      ****** ****** ****** ****** ****** ****** ****** ****** ****** ******
      ****** ****** ****** ****** ****** ****** ****** ****** ****** ******
  23  ****** ****** ****** ****** ****** ****** ****** ****** ****** ******
      ****** ****** ****** ****** ****** ****** ****** ****** ****** ******
      ****** ****** ****** ****** ****** ****** ****** ****** ****** ******
  24  ****** ****** ****** ****** ****** ****** ****** ****** ****** ******
      ****** ****** ****** ****** ****** ****** ****** ****** ****** ******
      ****** ****** ****** ****** ****** ****** ****** ****** ****** ******
  25  ****** ****** ****** ****** ****** ****** ****** ****** ****** ******
      ****** ****** ****** ****** ****** ****** ****** ****** ****** ******
      ****** ****** ****** ****** ****** ****** ****** ****** ****** ******

 HEAD WILL BE SAVED ON UNIT   51 AT END OF TIME STEP    1, STRESS PERIOD    8
1
  VOLUMETRIC BUDGET FOR ENTIRE MODEL AT END OF TIME STEP    1, STRESS PERIOD   8
  ------------------------------------------------------------------------------

     CUMULATIVE VOLUMES      L**3       RATES FOR THIS TIME STEP      L**3/T
     ------------------                 ------------------------

           IN:                                      IN:
           ---                                      ---
             STORAGE =    32408891.7934               STORAGE =        1397.1331
       CONSTANT HEAD =    18332360.1481         CONSTANT HEAD =       31511.6000
               WELLS =           0.0000                 WELLS =           0.0000
            RECHARGE =    17608800.0000              RECHARGE =       27600.0000
      STREAM LEAKAGE =     5884519.4341        STREAM LEAKAGE =        9359.4202

            TOTAL IN =    74234571.3756              TOTAL IN =       69868.1534

          OUT:                                     OUT:
          ----                                     ----
             STORAGE =      967280.6996               STORAGE =        1591.0301
       CONSTANT HEAD =           0.0000         CONSTANT HEAD =           0.0000
               WELLS =    18622193.9701                 WELLS =       25509.8548
            RECHARGE =           0.0000              RECHARGE =           0.0000
      STREAM LEAKAGE =    54645098.3952        STREAM LEAKAGE =       42767.2602

           TOTAL OUT =    74234573.0649             TOTAL OUT =       69868.1451

            IN - OUT =          -1.6893              IN - OUT =       8.2955E-03

 PERCENT DISCREPANCY =          -0.00     PERCENT DISCREPANCY =           0.00






         TIME SUMMARY AT END OF TIME STEP    1 IN STRESS PERIOD    8
                    SECONDS     MINUTES      HOURS       DAYS        YEARS
                    -----------------------------------------------------------
   TIME STEP LENGTH 7.86240E+06 1.31040E+05  2184.0      91.000     0.24914    
 STRESS PERIOD TIME 7.86240E+06 1.31040E+05  2184.0      91.000     0.24914    
         TOTAL TIME 6.30720E+07 1.05120E+06  17520.      730.00      1.9986    
1
1
                            STRESS PERIOD NO.    9, LENGTH =   92.00000    
                            -----------------------------------------------

                              NUMBER OF TIME STEPS =     1

                               MULTIPLIER FOR DELT =     1.500

                            INITIAL TIME STEP SIZE =   92.00000    

 WELL NO.  LAYER   ROW   COL   STRESS RATE         
 --------------------------------------------------
      1      1     14      6       0.000    
      2      1      3      9       0.000    
      3      1     20     10       0.000    
      4      1     14     20       0.000    
      5      1     12     11      -2057.    
      6      1     16     17     -0.1037E+05
      7      1     11     22     -0.1125E+05
      8      1     14     25      -1834.    

      8 WELLS

                 RECHARGE =  5.000000E-04

 REUSING STREAM SEGMENT DATA FROM LAST STRESS PERIOD
 
 SOLVING FOR HEAD 


     6 CALLS TO PCG ROUTINE FOR TIME STEP   1 IN STRESS PERIOD    9
    23 TOTAL ITERATIONS

 OUTPUT CONTROL FOR STRESS PERIOD    9   TIME STEP    1
    SAVE BUDGET
    SAVE HEAD FOR ALL LAYERS
    PRINT HEAD FOR ALL LAYERS
 UBDSV2 SAVING "STREAMFLOW OUT  " ON UNIT  50 AT TIME STEP  1, STRESS PERIOD   9



 STREAM LISTING     PERIOD      9   STEP        1

 LAYER ROW COL. STREAM  RCH.  FLOW INTO     FLOW TO   FLOW OUT OF   OVRLND.     DIRECT     STREAM       STREAM     STREAM     STREAM   STREAMBED  STREAMBED
                SEG.NO.  NO.  STRM. RCH.    AQUIFER    STRM. RCH.    RUNOFF     PRECIP       ET          HEAD       DEPTH      WIDTH   CONDCTNC.   GRADIENT

   1   13    1     1     1    1.0000E+05 -1.6344E+03   1.0163E+05  0.000E+00  0.000E+00  0.000E+00  4.84067E+01  1.454E-01  2.000E+01  2.000E+04 -8.172E-02
   1   13    2     1     2    1.0163E+05 -2.5714E+03   1.0421E+05  0.000E+00  0.000E+00  0.000E+00  4.79313E+01  1.472E-01  2.000E+01  2.000E+04 -1.286E-01
   1   14    3     1     3    1.0421E+05 -3.9587E+02   1.0460E+05  0.000E+00  0.000E+00  0.000E+00  4.74553E+01  1.484E-01  2.000E+01  2.000E+04 -1.979E-02
   1   15    4     1     4    1.0460E+05 -3.6336E+02   1.0497E+05  0.000E+00  0.000E+00  0.000E+00  4.69783E+01  1.488E-01  2.000E+01  2.000E+04 -1.817E-02
   1   16    5     1     5    1.0497E+05 -1.4048E+03   1.0637E+05  0.000E+00  0.000E+00  0.000E+00  4.65018E+01  1.495E-01  2.000E+01  2.000E+04 -7.024E-02
   1   16    6     1     6    1.0637E+05 -8.8569E+02   1.0726E+05  0.000E+00  0.000E+00  0.000E+00  4.60255E+01  1.505E-01  2.000E+01  2.000E+04 -4.428E-02
   1   16    7     1     7    1.0726E+05 -8.5687E+02   1.0811E+05  0.000E+00  0.000E+00  0.000E+00  4.55489E+01  1.512E-01  2.000E+01  2.000E+04 -4.284E-02
   1   16    8     1     8    1.0811E+05 -8.3135E+02   1.0894E+05  0.000E+00  0.000E+00  0.000E+00  4.50724E+01  1.519E-01  2.000E+01  2.000E+04 -4.157E-02
   1   16    9     1     9    1.0894E+05 -7.9256E+02   1.0974E+05  0.000E+00  0.000E+00  0.000E+00  4.45958E+01  1.526E-01  2.000E+01  2.000E+04 -3.963E-02
   1   16   10     1    10    1.0974E+05 -7.3959E+02   1.1048E+05  0.000E+00  0.000E+00  0.000E+00  4.41192E+01  1.533E-01  2.000E+01  2.000E+04 -3.698E-02
   1   16   11     1    11    1.1048E+05 -6.7782E+02   1.1115E+05  0.000E+00  0.000E+00  0.000E+00  4.36425E+01  1.538E-01  2.000E+01  2.000E+04 -3.389E-02
   1   16   12     1    12    1.1115E+05 -7.8169E+02   1.1194E+05  0.000E+00  0.000E+00  0.000E+00  4.31658E+01  1.545E-01  2.000E+01  2.000E+04 -3.908E-02
   1   15   13     1    13    1.1194E+05 -3.1354E+02   1.1225E+05  0.000E+00  0.000E+00  0.000E+00  4.26890E+01  1.549E-01  2.000E+01  2.000E+04 -1.568E-02
   1   14   14     1    14    1.1225E+05 -3.4310E+02   1.1259E+05  0.000E+00  0.000E+00  0.000E+00  4.22120E+01  1.552E-01  2.000E+01  2.000E+04 -1.715E-02
   1   13   15     1    15    1.1259E+05 -7.6916E+02   1.1336E+05  0.000E+00  0.000E+00  0.000E+00  4.17352E+01  1.556E-01  2.000E+01  2.000E+04 -3.846E-02
   1   12   16     1    16    1.1336E+05 -1.8926E+03   1.1525E+05  0.000E+00  0.000E+00  0.000E+00  4.12590E+01  1.567E-01  2.000E+01  2.000E+04 -9.463E-02
   1   12   17     1    17    1.1525E+05 -9.1901E+02   1.1617E+05  0.000E+00  0.000E+00  0.000E+00  4.07829E+01  1.579E-01  2.000E+01  2.000E+04 -4.595E-02
   1   12   18     1    18    1.1617E+05 -7.6500E+02   1.1694E+05  0.000E+00  0.000E+00  0.000E+00  4.03063E+01  1.586E-01  2.000E+01  2.000E+04 -3.825E-02
   1   12   19     1    19    1.1694E+05 -5.5803E+02   1.1750E+05  0.000E+00  0.000E+00  0.000E+00  3.98296E+01  1.591E-01  2.000E+01  2.000E+04 -2.790E-02
   1   13   20     1    20    1.1750E+05  4.2755E+02   1.1707E+05  0.000E+00  0.000E+00  0.000E+00  3.93524E+01  1.592E-01  2.000E+01  2.000E+04  2.138E-02
   1   14   21     1    21    1.1707E+05  1.2001E+02   1.1695E+05  0.000E+00  0.000E+00  0.000E+00  3.88749E+01  1.589E-01  2.000E+01  2.000E+04  6.001E-03
   1   14   22     1    22    1.1695E+05  5.3470E+03   1.1160E+05  0.000E+00  0.000E+00  0.000E+00  3.83953E+01  1.567E-01  2.000E+01  2.000E+04  2.673E-01
   1    9   30     2     1    5.0000E+04 -4.5399E+02   5.0454E+04  0.000E+00  0.000E+00  0.000E+00  4.02412E+01  1.162E-01  2.000E+01  2.000E+04 -2.270E-02
   1    9   29     2     2    5.0454E+04 -7.3828E+02   5.1192E+04  0.000E+00  0.000E+00  0.000E+00  3.99920E+01  1.170E-01  2.000E+01  2.000E+04 -3.691E-02
   1    9   28     2     3    5.1192E+04 -9.5212E+02   5.2144E+04  0.000E+00  0.000E+00  0.000E+00  3.97432E+01  1.182E-01  2.000E+01  2.000E+04 -4.761E-02
   1    9   27     2     4    5.2144E+04 -1.8940E+03   5.4038E+04  0.000E+00  0.000E+00  0.000E+00  3.94951E+01  1.201E-01  2.000E+01  2.000E+04 -9.470E-02
   1   10   26     2     5    5.4038E+04 -8.4977E+02   5.4888E+04  0.000E+00  0.000E+00  0.000E+00  3.92470E+01  1.220E-01  2.000E+01  2.000E+04 -4.249E-02
   1   11   25     2     6    5.4888E+04  6.8061E+01   5.4820E+04  0.000E+00  0.000E+00  0.000E+00  3.89975E+01  1.225E-01  2.000E+01  2.000E+04  3.403E-03
   1   12   24     2     7    5.4820E+04  1.0907E+03   5.3729E+04  0.000E+00  0.000E+00  0.000E+00  3.87467E+01  1.217E-01  2.000E+01  2.000E+04  5.453E-02
   1   13   23     2     8    5.3729E+04  3.2583E+02   5.3404E+04  0.000E+00  0.000E+00  0.000E+00  3.84958E+01  1.208E-01  2.000E+01  2.000E+04  1.629E-02
   1   14   22     2     9    5.3404E+04  2.3192E+03   5.1084E+04  0.000E+00  0.000E+00  0.000E+00  3.82440E+01  1.190E-01  2.000E+01  2.000E+04  1.160E-01
   1   14   22     3     1    1.6269E+05 -8.1858E+03   1.7087E+05  0.000E+00  0.000E+00  0.000E+00  3.77187E+01  1.631E-01  2.000E+01  2.000E+04 -4.093E-01
   1   15   23     3     2    1.7087E+05 -3.2731E+02   1.7120E+05  0.000E+00  0.000E+00  0.000E+00  3.68323E+01  1.656E-01  2.000E+01  2.000E+04 -1.637E-02
   1   15   24     3     3    1.7120E+05 -3.8490E+01   1.7124E+05  0.000E+00  0.000E+00  0.000E+00  3.59435E+01  1.657E-01  2.000E+01  2.000E+04 -1.925E-03
   1   15   25     3     4    1.7124E+05  3.6623E+02   1.7087E+05  0.000E+00  0.000E+00  0.000E+00  3.50545E+01  1.656E-01  2.000E+01  2.000E+04  1.831E-02
   1   15   26     3     5    1.7087E+05 -8.4627E+01   1.7096E+05  0.000E+00  0.000E+00  0.000E+00  3.41656E+01  1.656E-01  2.000E+01  2.000E+04 -4.231E-03
   1   16   27     3     6    1.7096E+05 -2.7571E+02   1.7123E+05  0.000E+00  0.000E+00  0.000E+00  3.32768E+01  1.657E-01  2.000E+01  2.000E+04 -1.379E-02
   1   17   28     3     7    1.7123E+05 -1.3036E+03   1.7254E+05  0.000E+00  0.000E+00  0.000E+00  3.23883E+01  1.661E-01  2.000E+01  2.000E+04 -6.518E-02
   1   18   29     3     8    1.7254E+05 -2.5866E+03   1.7512E+05  0.000E+00  0.000E+00  0.000E+00  3.15006E+01  1.673E-01  2.000E+01  2.000E+04 -1.293E-01
   1   18   30     3     9    1.7512E+05 -2.9572E+03   1.7808E+05  0.000E+00  0.000E+00  0.000E+00  3.06133E+01  1.688E-01  2.000E+01  2.000E+04 -1.479E-01



1
              HEAD IN LAYER   1 AT END OF TIME STEP   1 IN STRESS PERIOD    9
  ---------------------------------------------------------------------------

          1      2      3      4      5      6      7      8      9     10
         11     12     13     14     15     16     17     18     19     20
         21     22     23     24     25     26     27     28     29     30
 .........................................................................
   1  ****** ****** ****** ****** ****** ****** ****** ****** ****** ******
      ****** ****** ****** ****** ****** ****** ****** ****** ****** ******
      ****** ****** ****** ****** ****** ****** ****** ****** ****** ******
   2  ****** ****** ****** ****** ****** ****** ****** ****** ****** ******
      ****** ****** ****** ****** ****** ****** ****** ****** ****** ******
      ****** ****** ****** ****** ****** ****** ****** ****** ****** ******
   3  ****** ****** ****** ****** ****** ****** ****** ****** ****** ******
      ****** ****** ****** ****** ****** ****** ****** ****** ****** ******
      ****** ****** ****** ****** ****** ****** ****** ****** ****** ******
   4  ****** ****** ****** ****** ****** ****** ****** ****** ****** ******
      ****** ****** ****** ****** ****** ****** ****** ****** ****** ******
      ****** ****** ****** ****** ****** ****** ****** ****** ****** ******
   5  ****** ****** ****** ****** ****** ****** ****** ****** ****** ******
      ****** ****** ****** ****** ****** ****** ****** ****** ****** ******
      ****** ****** ****** ****** ****** ****** ****** ****** ****** ******
   6  ****** ****** ****** ****** ****** ****** ****** ****** ****** ******
      ****** ****** ****** ****** ****** ****** ****** ****** ****** ******
      ****** ****** ****** ****** ****** ****** ****** ****** ****** ******
   7  ****** ****** ****** ****** ****** ****** ****** ****** ****** ******
      ****** ****** ****** ****** ****** ****** ****** ****** ****** ******
      ****** ****** ****** ****** ****** ****** ****** ****** ****** ******
   8  ****** ****** ****** ****** ****** ****** ****** ****** ****** ******
      ****** ****** ****** ****** ****** ****** ****** ****** ****** ******
      ****** ****** ****** ****** ****** ****** ****** ****** ****** ******
   9  ****** ****** ****** ****** ****** ****** ****** ****** ****** ******
      ****** ****** ****** ****** ****** ****** ****** ****** ****** ******
      ****** ****** ****** ****** ****** ****** ****** ****** ****** ******
  10  ****** ****** ****** ****** ****** ****** ****** ****** ****** ******
      ****** ****** ****** ****** ****** ****** ****** ****** ****** ******
      ****** ****** ****** ****** ****** ****** ****** ****** ****** ******
  11  ****** ****** ****** ****** ****** ****** ****** ****** ****** ******
      ****** ****** ****** ****** ****** ****** ****** ****** ****** ******
      ****** ****** ****** ****** ****** ****** ****** ****** ****** ******
  12  ****** ****** ****** ****** ****** ****** ****** ****** ****** ******
      ****** ****** ****** ****** ****** ****** ****** ****** ****** ******
      ****** ****** ****** ****** ****** ****** ****** ****** ****** ******
  13  ****** ****** ****** ****** ****** ****** ****** ****** ****** ******
      ****** ****** ****** ****** ****** ****** ****** ****** ****** ******
      ****** ****** ****** ****** ****** ****** ****** ****** ****** ******
  14  ****** ****** ****** ****** ****** ****** ****** ****** ****** ******
      ****** ****** ****** ****** ****** ****** ****** ****** ****** ******
      ****** ****** ****** ****** ****** ****** ****** ****** ****** ******
  15  ****** ****** ****** ****** ****** ****** ****** ****** ****** ******
      ****** ****** ****** ****** ****** ****** ****** ****** ****** ******
      ****** ****** ****** ****** ****** ****** ****** ****** ****** ******
  16  ****** ****** ****** ****** ****** ****** ****** ****** ****** ******
      ****** ****** ****** ****** ****** ****** ****** ****** ****** ******
      ****** ****** ****** ****** ****** ****** ****** ****** ****** ******
  17  ****** ****** ****** ****** ****** ****** ****** ****** ****** ******
      ****** ****** ****** ****** ****** ****** ****** ****** ****** ******
      ****** ****** ****** ****** ****** ****** ****** ****** ****** ******
  18  ****** ****** ****** ****** ****** ****** ****** ****** ****** ******
      ****** ****** ****** ****** ****** ****** ****** ****** ****** ******
      ****** ****** ****** ****** ****** ****** ****** ****** ****** ******
  19  ****** ****** ****** ****** ****** ****** ****** ****** ****** ******
      ****** ****** ****** ****** ****** ****** ****** ****** ****** ******
      ****** ****** ****** ****** ****** ****** ****** ****** ****** ******
  20  ****** ****** ****** ****** ****** ****** ****** ****** ****** ******
      ****** ****** ****** ****** ****** ****** ****** ****** ****** ******
      ****** ****** ****** ****** ****** ****** ****** ****** ****** ******
  21  ****** ****** ****** ****** ****** ****** ****** ****** ****** ******
      ****** ****** ****** ****** ****** ****** ****** ****** ****** ******
      ****** ****** ****** ****** ****** ****** ****** ****** ****** ******
  22  ****** ****** ****** ****** ****** ****** ****** ****** ****** ******
      ****** ****** ****** ****** ****** ****** ****** ****** ****** ******
      ****** ****** ****** ****** ****** ****** ****** ****** ****** ******
  23  ****** ****** ****** ****** ****** ****** ****** ****** ****** ******
      ****** ****** ****** ****** ****** ****** ****** ****** ****** ******
      ****** ****** ****** ****** ****** ****** ****** ****** ****** ******
  24  ****** ****** ****** ****** ****** ****** ****** ****** ****** ******
      ****** ****** ****** ****** ****** ****** ****** ****** ****** ******
      ****** ****** ****** ****** ****** ****** ****** ****** ****** ******
  25  ****** ****** ****** ****** ****** ****** ****** ****** ****** ******
      ****** ****** ****** ****** ****** ****** ****** ****** ****** ******
      ****** ****** ****** ****** ****** ****** ****** ****** ****** ******

 HEAD WILL BE SAVED ON UNIT   51 AT END OF TIME STEP    1, STRESS PERIOD    9
1
  VOLUMETRIC BUDGET FOR ENTIRE MODEL AT END OF TIME STEP    1, STRESS PERIOD   9
  ------------------------------------------------------------------------------

     CUMULATIVE VOLUMES      L**3       RATES FOR THIS TIME STEP      L**3/T
     ------------------                 ------------------------

           IN:                                      IN:
           ---                                      ---
             STORAGE =    33064097.5674               STORAGE =        7121.8019
       CONSTANT HEAD =    21337716.2279         CONSTANT HEAD =       32666.9139
               WELLS =           0.0000                 WELLS =           0.0000
            RECHARGE =    18878400.0000              RECHARGE =       13800.0000
      STREAM LEAKAGE =     6810464.0001        STREAM LEAKAGE =       10064.6148

            TOTAL IN =    80090677.7954              TOTAL IN =       63653.3306

          OUT:                                     OUT:
          ----                                     ----
             STORAGE =      967280.6996               STORAGE =           0.0000
       CONSTANT HEAD =           0.0000         CONSTANT HEAD =           0.0000
               WELLS =    20969100.6074                 WELLS =       25509.8548
            RECHARGE =           0.0000              RECHARGE =           0.0000
      STREAM LEAKAGE =    58154298.2455        STREAM LEAKAGE =       38143.4766

           TOTAL OUT =    80090679.5526             TOTAL OUT =       63653.3314

            IN - OUT =          -1.7572              IN - OUT =      -7.3781E-04

 PERCENT DISCREPANCY =          -0.00     PERCENT DISCREPANCY =          -0.00






         TIME SUMMARY AT END OF TIME STEP    1 IN STRESS PERIOD    9
                    SECONDS     MINUTES      HOURS       DAYS        YEARS
                    -----------------------------------------------------------
   TIME STEP LENGTH 7.94880E+06 1.32480E+05  2208.0      92.000     0.25188    
 STRESS PERIOD TIME 7.94880E+06 1.32480E+05  2208.0      92.000     0.25188    
         TOTAL TIME 7.10208E+07 1.18368E+06  19728.      822.00      2.2505    
1
1
                            STRESS PERIOD NO.   10, LENGTH =   91.00000    
                            -----------------------------------------------

                              NUMBER OF TIME STEPS =     1

                               MULTIPLIER FOR DELT =     1.500

                            INITIAL TIME STEP SIZE =   91.00000    

 WELL NO.  LAYER   ROW   COL   STRESS RATE         
 --------------------------------------------------
      1      1     14      6       0.000    
      2      1      3      9       0.000    
      3      1     20     10       0.000    
      4      1     14     20       0.000    
      5      1     12     11      -2057.    
      6      1     16     17     -0.1037E+05
      7      1     11     22     -0.1125E+05
      8      1     14     25      -1834.    

      8 WELLS

                 RECHARGE =  2.000000E-03

 REUSING STREAM SEGMENT DATA FROM LAST STRESS PERIOD
 
 SOLVING FOR HEAD 


     7 CALLS TO PCG ROUTINE FOR TIME STEP   1 IN STRESS PERIOD   10
    26 TOTAL ITERATIONS

 OUTPUT CONTROL FOR STRESS PERIOD   10   TIME STEP    1
    SAVE BUDGET
    SAVE HEAD FOR ALL LAYERS
    PRINT HEAD FOR ALL LAYERS
 UBDSV2 SAVING "STREAMFLOW OUT  " ON UNIT  50 AT TIME STEP  1, STRESS PERIOD  10



 STREAM LISTING     PERIOD     10   STEP        1

 LAYER ROW COL. STREAM  RCH.  FLOW INTO     FLOW TO   FLOW OUT OF   OVRLND.     DIRECT     STREAM       STREAM     STREAM     STREAM   STREAMBED  STREAMBED
                SEG.NO.  NO.  STRM. RCH.    AQUIFER    STRM. RCH.    RUNOFF     PRECIP       ET          HEAD       DEPTH      WIDTH   CONDCTNC.   GRADIENT

   1   13    1     1     1    1.0000E+05 -2.0883E+03   1.0209E+05  0.000E+00  0.000E+00  0.000E+00  4.84069E+01  1.456E-01  2.000E+01  2.000E+04 -1.044E-01
   1   13    2     1     2    1.0209E+05 -3.0746E+03   1.0516E+05  0.000E+00  0.000E+00  0.000E+00  4.79319E+01  1.478E-01  2.000E+01  2.000E+04 -1.537E-01
   1   14    3     1     3    1.0516E+05 -5.8257E+02   1.0575E+05  0.000E+00  0.000E+00  0.000E+00  4.74562E+01  1.493E-01  2.000E+01  2.000E+04 -2.913E-02
   1   15    4     1     4    1.0575E+05 -5.6292E+02   1.0631E+05  0.000E+00  0.000E+00  0.000E+00  4.69794E+01  1.498E-01  2.000E+01  2.000E+04 -2.815E-02
   1   16    5     1     5    1.0631E+05 -2.0239E+03   1.0833E+05  0.000E+00  0.000E+00  0.000E+00  4.65032E+01  1.509E-01  2.000E+01  2.000E+04 -1.012E-01
   1   16    6     1     6    1.0833E+05 -1.2480E+03   1.0958E+05  0.000E+00  0.000E+00  0.000E+00  4.60273E+01  1.523E-01  2.000E+01  2.000E+04 -6.240E-02
   1   16    7     1     7    1.0958E+05 -1.2014E+03   1.1078E+05  0.000E+00  0.000E+00  0.000E+00  4.55510E+01  1.533E-01  2.000E+01  2.000E+04 -6.007E-02
   1   16    8     1     8    1.1078E+05 -1.1705E+03   1.1195E+05  0.000E+00  0.000E+00  0.000E+00  4.50748E+01  1.543E-01  2.000E+01  2.000E+04 -5.852E-02
   1   16    9     1     9    1.1195E+05 -1.1301E+03   1.1308E+05  0.000E+00  0.000E+00  0.000E+00  4.45984E+01  1.553E-01  2.000E+01  2.000E+04 -5.651E-02
   1   16   10     1    10    1.1308E+05 -1.0773E+03   1.1416E+05  0.000E+00  0.000E+00  0.000E+00  4.41221E+01  1.562E-01  2.000E+01  2.000E+04 -5.387E-02
   1   16   11     1    11    1.1416E+05 -1.0190E+03   1.1518E+05  0.000E+00  0.000E+00  0.000E+00  4.36457E+01  1.570E-01  2.000E+01  2.000E+04 -5.095E-02
   1   16   12     1    12    1.1518E+05 -1.3514E+03   1.1653E+05  0.000E+00  0.000E+00  0.000E+00  4.31694E+01  1.580E-01  2.000E+01  2.000E+04 -6.757E-02
   1   15   13     1    13    1.1653E+05 -9.0057E+02   1.1743E+05  0.000E+00  0.000E+00  0.000E+00  4.26930E+01  1.589E-01  2.000E+01  2.000E+04 -4.503E-02
   1   14   14     1    14    1.1743E+05 -9.3760E+02   1.1837E+05  0.000E+00  0.000E+00  0.000E+00  4.22165E+01  1.597E-01  2.000E+01  2.000E+04 -4.688E-02
   1   13   15     1    15    1.1837E+05 -1.3539E+03   1.1972E+05  0.000E+00  0.000E+00  0.000E+00  4.17401E+01  1.606E-01  2.000E+01  2.000E+04 -6.769E-02
   1   12   16     1    16    1.1972E+05 -2.4563E+03   1.2218E+05  0.000E+00  0.000E+00  0.000E+00  4.12644E+01  1.621E-01  2.000E+01  2.000E+04 -1.228E-01
   1   12   17     1    17    1.2218E+05 -1.3455E+03   1.2352E+05  0.000E+00  0.000E+00  0.000E+00  4.07887E+01  1.637E-01  2.000E+01  2.000E+04 -6.727E-02
   1   12   18     1    18    1.2352E+05 -1.1872E+03   1.2471E+05  0.000E+00  0.000E+00  0.000E+00  4.03124E+01  1.647E-01  2.000E+01  2.000E+04 -5.936E-02
   1   12   19     1    19    1.2471E+05 -1.0776E+03   1.2579E+05  0.000E+00  0.000E+00  0.000E+00  3.98360E+01  1.656E-01  2.000E+01  2.000E+04 -5.388E-02
   1   13   20     1    20    1.2579E+05 -9.4224E+01   1.2588E+05  0.000E+00  0.000E+00  0.000E+00  3.93592E+01  1.660E-01  2.000E+01  2.000E+04 -4.711E-03
   1   14   21     1    21    1.2588E+05 -4.0532E+02   1.2629E+05  0.000E+00  0.000E+00  0.000E+00  3.88821E+01  1.662E-01  2.000E+01  2.000E+04 -2.027E-02
   1   14   22     1    22    1.2629E+05  5.2201E+03   1.2107E+05  0.000E+00  0.000E+00  0.000E+00  3.84030E+01  1.643E-01  2.000E+01  2.000E+04  2.610E-01
   1    9   30     2     1    5.0000E+04 -8.6843E+02   5.0868E+04  0.000E+00  0.000E+00  0.000E+00  4.02415E+01  1.165E-01  2.000E+01  2.000E+04 -4.342E-02
   1    9   29     2     2    5.0868E+04 -1.1504E+03   5.2019E+04  0.000E+00  0.000E+00  0.000E+00  3.99929E+01  1.179E-01  2.000E+01  2.000E+04 -5.752E-02
   1    9   28     2     3    5.2019E+04 -1.3635E+03   5.3382E+04  0.000E+00  0.000E+00  0.000E+00  3.97446E+01  1.196E-01  2.000E+01  2.000E+04 -6.818E-02
   1    9   27     2     4    5.3382E+04 -2.4475E+03   5.5830E+04  0.000E+00  0.000E+00  0.000E+00  3.94972E+01  1.222E-01  2.000E+01  2.000E+04 -1.224E-01
   1   10   26     2     5    5.5830E+04 -1.4032E+03   5.7233E+04  0.000E+00  0.000E+00  0.000E+00  3.92497E+01  1.247E-01  2.000E+01  2.000E+04 -7.016E-02
   1   11   25     2     6    5.7233E+04 -4.6085E+02   5.7694E+04  0.000E+00  0.000E+00  0.000E+00  3.90010E+01  1.260E-01  2.000E+01  2.000E+04 -2.304E-02
   1   12   24     2     7    5.7694E+04  6.1200E+02   5.7082E+04  0.000E+00  0.000E+00  0.000E+00  3.87509E+01  1.259E-01  2.000E+01  2.000E+04  3.060E-02
   1   13   23     2     8    5.7082E+04  1.7706E+02   5.6905E+04  0.000E+00  0.000E+00  0.000E+00  3.85003E+01  1.253E-01  2.000E+01  2.000E+04  8.853E-03
   1   14   22     2     9    5.6905E+04  2.1369E+03   5.4768E+04  0.000E+00  0.000E+00  0.000E+00  3.82488E+01  1.238E-01  2.000E+01  2.000E+04  1.068E-01
   1   14   22     3     1    1.7584E+05 -8.3123E+03   1.8415E+05  0.000E+00  0.000E+00  0.000E+00  3.77263E+01  1.708E-01  2.000E+01  2.000E+04 -4.156E-01
   1   15   23     3     2    1.8415E+05 -4.8990E+02   1.8464E+05  0.000E+00  0.000E+00  0.000E+00  3.68399E+01  1.733E-01  2.000E+01  2.000E+04 -2.449E-02
   1   15   24     3     3    1.8464E+05 -1.7570E+02   1.8481E+05  0.000E+00  0.000E+00  0.000E+00  3.59512E+01  1.735E-01  2.000E+01  2.000E+04 -8.785E-03
   1   15   25     3     4    1.8481E+05  2.2562E+02   1.8459E+05  0.000E+00  0.000E+00  0.000E+00  3.50623E+01  1.735E-01  2.000E+01  2.000E+04  1.128E-02
   1   15   26     3     5    1.8459E+05 -2.4689E+02   1.8484E+05  0.000E+00  0.000E+00  0.000E+00  3.41735E+01  1.735E-01  2.000E+01  2.000E+04 -1.234E-02
   1   16   27     3     6    1.8484E+05 -4.6161E+02   1.8530E+05  0.000E+00  0.000E+00  0.000E+00  3.32848E+01  1.737E-01  2.000E+01  2.000E+04 -2.308E-02
   1   17   28     3     7    1.8530E+05 -1.8244E+03   1.8712E+05  0.000E+00  0.000E+00  0.000E+00  3.23965E+01  1.743E-01  2.000E+01  2.000E+04 -9.122E-02
   1   18   29     3     8    1.8712E+05 -3.1383E+03   1.9026E+05  0.000E+00  0.000E+00  0.000E+00  3.15090E+01  1.757E-01  2.000E+01  2.000E+04 -1.569E-01
   1   18   30     3     9    1.9026E+05 -3.3828E+03   1.9364E+05  0.000E+00  0.000E+00  0.000E+00  3.06220E+01  1.775E-01  2.000E+01  2.000E+04 -1.691E-01



1
              HEAD IN LAYER   1 AT END OF TIME STEP   1 IN STRESS PERIOD   10
  ---------------------------------------------------------------------------

          1      2      3      4      5      6      7      8      9     10
         11     12     13     14     15     16     17     18     19     20
         21     22     23     24     25     26     27     28     29     30
 .........................................................................
   1  ****** ****** ****** ****** ****** ****** ****** ****** ****** ******
      ****** ****** ****** ****** ****** ****** ****** ****** ****** ******
      ****** ****** ****** ****** ****** ****** ****** ****** ****** ******
   2  ****** ****** ****** ****** ****** ****** ****** ****** ****** ******
      ****** ****** ****** ****** ****** ****** ****** ****** ****** ******
      ****** ****** ****** ****** ****** ****** ****** ****** ****** ******
   3  ****** ****** ****** ****** ****** ****** ****** ****** ****** ******
      ****** ****** ****** ****** ****** ****** ****** ****** ****** ******
      ****** ****** ****** ****** ****** ****** ****** ****** ****** ******
   4  ****** ****** ****** ****** ****** ****** ****** ****** ****** ******
      ****** ****** ****** ****** ****** ****** ****** ****** ****** ******
      ****** ****** ****** ****** ****** ****** ****** ****** ****** ******
   5  ****** ****** ****** ****** ****** ****** ****** ****** ****** ******
      ****** ****** ****** ****** ****** ****** ****** ****** ****** ******
      ****** ****** ****** ****** ****** ****** ****** ****** ****** ******
   6  ****** ****** ****** ****** ****** ****** ****** ****** ****** ******
      ****** ****** ****** ****** ****** ****** ****** ****** ****** ******
      ****** ****** ****** ****** ****** ****** ****** ****** ****** ******
   7  ****** ****** ****** ****** ****** ****** ****** ****** ****** ******
      ****** ****** ****** ****** ****** ****** ****** ****** ****** ******
      ****** ****** ****** ****** ****** ****** ****** ****** ****** ******
   8  ****** ****** ****** ****** ****** ****** ****** ****** ****** ******
      ****** ****** ****** ****** ****** ****** ****** ****** ****** ******
      ****** ****** ****** ****** ****** ****** ****** ****** ****** ******
   9  ****** ****** ****** ****** ****** ****** ****** ****** ****** ******
      ****** ****** ****** ****** ****** ****** ****** ****** ****** ******
      ****** ****** ****** ****** ****** ****** ****** ****** ****** ******
  10  ****** ****** ****** ****** ****** ****** ****** ****** ****** ******
      ****** ****** ****** ****** ****** ****** ****** ****** ****** ******
      ****** ****** ****** ****** ****** ****** ****** ****** ****** ******
  11  ****** ****** ****** ****** ****** ****** ****** ****** ****** ******
      ****** ****** ****** ****** ****** ****** ****** ****** ****** ******
      ****** ****** ****** ****** ****** ****** ****** ****** ****** ******
  12  ****** ****** ****** ****** ****** ****** ****** ****** ****** ******
      ****** ****** ****** ****** ****** ****** ****** ****** ****** ******
      ****** ****** ****** ****** ****** ****** ****** ****** ****** ******
  13  ****** ****** ****** ****** ****** ****** ****** ****** ****** ******
      ****** ****** ****** ****** ****** ****** ****** ****** ****** ******
      ****** ****** ****** ****** ****** ****** ****** ****** ****** ******
  14  ****** ****** ****** ****** ****** ****** ****** ****** ****** ******
      ****** ****** ****** ****** ****** ****** ****** ****** ****** ******
      ****** ****** ****** ****** ****** ****** ****** ****** ****** ******
  15  ****** ****** ****** ****** ****** ****** ****** ****** ****** ******
      ****** ****** ****** ****** ****** ****** ****** ****** ****** ******
      ****** ****** ****** ****** ****** ****** ****** ****** ****** ******
  16  ****** ****** ****** ****** ****** ****** ****** ****** ****** ******
      ****** ****** ****** ****** ****** ****** ****** ****** ****** ******
      ****** ****** ****** ****** ****** ****** ****** ****** ****** ******
  17  ****** ****** ****** ****** ****** ****** ****** ****** ****** ******
      ****** ****** ****** ****** ****** ****** ****** ****** ****** ******
      ****** ****** ****** ****** ****** ****** ****** ****** ****** ******
  18  ****** ****** ****** ****** ****** ****** ****** ****** ****** ******
      ****** ****** ****** ****** ****** ****** ****** ****** ****** ******
      ****** ****** ****** ****** ****** ****** ****** ****** ****** ******
  19  ****** ****** ****** ****** ****** ****** ****** ****** ****** ******
      ****** ****** ****** ****** ****** ****** ****** ****** ****** ******
      ****** ****** ****** ****** ****** ****** ****** ****** ****** ******
  20  ****** ****** ****** ****** ****** ****** ****** ****** ****** ******
      ****** ****** ****** ****** ****** ****** ****** ****** ****** ******
      ****** ****** ****** ****** ****** ****** ****** ****** ****** ******
  21  ****** ****** ****** ****** ****** ****** ****** ****** ****** ******
      ****** ****** ****** ****** ****** ****** ****** ****** ****** ******
      ****** ****** ****** ****** ****** ****** ****** ****** ****** ******
  22  ****** ****** ****** ****** ****** ****** ****** ****** ****** ******
      ****** ****** ****** ****** ****** ****** ****** ****** ****** ******
      ****** ****** ****** ****** ****** ****** ****** ****** ****** ******
  23  ****** ****** ****** ****** ****** ****** ****** ****** ****** ******
      ****** ****** ****** ****** ****** ****** ****** ****** ****** ******
      ****** ****** ****** ****** ****** ****** ****** ****** ****** ******
  24  ****** ****** ****** ****** ****** ****** ****** ****** ****** ******
      ****** ****** ****** ****** ****** ****** ****** ****** ****** ******
      ****** ****** ****** ****** ****** ****** ****** ****** ****** ******
  25  ****** ****** ****** ****** ****** ****** ****** ****** ****** ******
      ****** ****** ****** ****** ****** ****** ****** ****** ****** ******
      ****** ****** ****** ****** ****** ****** ****** ****** ****** ******

 HEAD WILL BE SAVED ON UNIT   51 AT END OF TIME STEP    1, STRESS PERIOD   10
1
  VOLUMETRIC BUDGET FOR ENTIRE MODEL AT END OF TIME STEP    1, STRESS PERIOD  10
  ------------------------------------------------------------------------------

     CUMULATIVE VOLUMES      L**3       RATES FOR THIS TIME STEP      L**3/T
     ------------------                 ------------------------

           IN:                                      IN:
           ---                                      ---
             STORAGE =    33064097.5674               STORAGE =           0.0000
       CONSTANT HEAD =    24040945.2994         CONSTANT HEAD =       29705.8140
               WELLS =           0.0000                 WELLS =           0.0000
            RECHARGE =    23901600.0000              RECHARGE =       55200.0000
      STREAM LEAKAGE =     7572287.9870        STREAM LEAKAGE =        8371.6922

            TOTAL IN =    88578930.8539              TOTAL IN =       93277.5061

          OUT:                                     OUT:
          ----                                     ----
             STORAGE =     2400839.7273               STORAGE =       15753.3959
       CONSTANT HEAD =           0.0000         CONSTANT HEAD =           0.0000
               WELLS =    23290497.3900                 WELLS =       25509.8548
            RECHARGE =           0.0000              RECHARGE =           0.0000
      STREAM LEAKAGE =    62887595.1482        STREAM LEAKAGE =       52014.2517

           TOTAL OUT =    88578932.2655             TOTAL OUT =       93277.5023

            IN - OUT =          -1.4116              IN - OUT =       3.7979E-03

 PERCENT DISCREPANCY =          -0.00     PERCENT DISCREPANCY =           0.00






         TIME SUMMARY AT END OF TIME STEP    1 IN STRESS PERIOD   10
                    SECONDS     MINUTES      HOURS       DAYS        YEARS
                    -----------------------------------------------------------
   TIME STEP LENGTH 7.86240E+06 1.31040E+05  2184.0      91.000     0.24914    
 STRESS PERIOD TIME 7.86240E+06 1.31040E+05  2184.0      91.000     0.24914    
         TOTAL TIME 7.88832E+07 1.31472E+06  21912.      913.00      2.4997    
1
1
                            STRESS PERIOD NO.   11, LENGTH =   91.00000    
                            -----------------------------------------------

                              NUMBER OF TIME STEPS =     1

                               MULTIPLIER FOR DELT =     1.500

                            INITIAL TIME STEP SIZE =   91.00000    

 WELL NO.  LAYER   ROW   COL   STRESS RATE         
 --------------------------------------------------
      1      1     14      6       0.000    
      2      1      3      9       0.000    
      3      1     20     10       0.000    
      4      1     14     20       0.000    
      5      1     12     11      -2057.    
      6      1     16     17     -0.1037E+05
      7      1     11     22     -0.1125E+05
      8      1     14     25      -1834.    

      8 WELLS

                 RECHARGE =   0.00000    

 REUSING STREAM SEGMENT DATA FROM LAST STRESS PERIOD
 
 SOLVING FOR HEAD 


     7 CALLS TO PCG ROUTINE FOR TIME STEP   1 IN STRESS PERIOD   11
    26 TOTAL ITERATIONS

 OUTPUT CONTROL FOR STRESS PERIOD   11   TIME STEP    1
    SAVE BUDGET
    SAVE HEAD FOR ALL LAYERS
    PRINT HEAD FOR ALL LAYERS
 UBDSV2 SAVING "STREAMFLOW OUT  " ON UNIT  50 AT TIME STEP  1, STRESS PERIOD  11



 STREAM LISTING     PERIOD     11   STEP        1

 LAYER ROW COL. STREAM  RCH.  FLOW INTO     FLOW TO   FLOW OUT OF   OVRLND.     DIRECT     STREAM       STREAM     STREAM     STREAM   STREAMBED  STREAMBED
                SEG.NO.  NO.  STRM. RCH.    AQUIFER    STRM. RCH.    RUNOFF     PRECIP       ET          HEAD       DEPTH      WIDTH   CONDCTNC.   GRADIENT

   1   13    1     1     1    1.0000E+05 -1.5217E+03   1.0152E+05  0.000E+00  0.000E+00  0.000E+00  4.84067E+01  1.453E-01  2.000E+01  2.000E+04 -7.608E-02
   1   13    2     1     2    1.0152E+05 -2.4437E+03   1.0397E+05  0.000E+00  0.000E+00  0.000E+00  4.79311E+01  1.470E-01  2.000E+01  2.000E+04 -1.222E-01
   1   14    3     1     3    1.0397E+05 -3.5183E+02   1.0432E+05  0.000E+00  0.000E+00  0.000E+00  4.74550E+01  1.482E-01  2.000E+01  2.000E+04 -1.759E-02
   1   15    4     1     4    1.0432E+05 -3.2113E+02   1.0464E+05  0.000E+00  0.000E+00  0.000E+00  4.69780E+01  1.485E-01  2.000E+01  2.000E+04 -1.606E-02
   1   16    5     1     5    1.0464E+05 -1.3363E+03   1.0597E+05  0.000E+00  0.000E+00  0.000E+00  4.65015E+01  1.492E-01  2.000E+01  2.000E+04 -6.681E-02
   1   16    6     1     6    1.0597E+05 -8.3389E+02   1.0681E+05  0.000E+00  0.000E+00  0.000E+00  4.60251E+01  1.501E-01  2.000E+01  2.000E+04 -4.169E-02
   1   16    7     1     7    1.0681E+05 -8.0488E+02   1.0761E+05  0.000E+00  0.000E+00  0.000E+00  4.55486E+01  1.508E-01  2.000E+01  2.000E+04 -4.024E-02
   1   16    8     1     8    1.0761E+05 -7.7941E+02   1.0839E+05  0.000E+00  0.000E+00  0.000E+00  4.50719E+01  1.515E-01  2.000E+01  2.000E+04 -3.897E-02
   1   16    9     1     9    1.0839E+05 -7.4132E+02   1.0913E+05  0.000E+00  0.000E+00  0.000E+00  4.45953E+01  1.521E-01  2.000E+01  2.000E+04 -3.707E-02
   1   16   10     1    10    1.0913E+05 -6.8958E+02   1.0982E+05  0.000E+00  0.000E+00  0.000E+00  4.41186E+01  1.527E-01  2.000E+01  2.000E+04 -3.448E-02
   1   16   11     1    11    1.0982E+05 -6.2946E+02   1.1045E+05  0.000E+00  0.000E+00  0.000E+00  4.36419E+01  1.533E-01  2.000E+01  2.000E+04 -3.147E-02
   1   16   12     1    12    1.1045E+05 -7.0596E+02   1.1116E+05  0.000E+00  0.000E+00  0.000E+00  4.31652E+01  1.538E-01  2.000E+01  2.000E+04 -3.530E-02
   1   15   13     1    13    1.1116E+05 -2.1249E+02   1.1137E+05  0.000E+00  0.000E+00  0.000E+00  4.26883E+01  1.542E-01  2.000E+01  2.000E+04 -1.062E-02
   1   14   14     1    14    1.1137E+05 -2.3198E+02   1.1160E+05  0.000E+00  0.000E+00  0.000E+00  4.22112E+01  1.544E-01  2.000E+01  2.000E+04 -1.160E-02
   1   13   15     1    15    1.1160E+05 -6.5403E+02   1.1226E+05  0.000E+00  0.000E+00  0.000E+00  4.17343E+01  1.548E-01  2.000E+01  2.000E+04 -3.270E-02
   1   12   16     1    16    1.1226E+05 -1.7802E+03   1.1404E+05  0.000E+00  0.000E+00  0.000E+00  4.12581E+01  1.558E-01  2.000E+01  2.000E+04 -8.901E-02
   1   12   17     1    17    1.1404E+05 -8.3938E+02   1.1488E+05  0.000E+00  0.000E+00  0.000E+00  4.07819E+01  1.569E-01  2.000E+01  2.000E+04 -4.197E-02
   1   12   18     1    18    1.1488E+05 -6.8869E+02   1.1557E+05  0.000E+00  0.000E+00  0.000E+00  4.03052E+01  1.575E-01  2.000E+01  2.000E+04 -3.443E-02
   1   12   19     1    19    1.1557E+05 -4.6558E+02   1.1603E+05  0.000E+00  0.000E+00  0.000E+00  3.98284E+01  1.580E-01  2.000E+01  2.000E+04 -2.328E-02
   1   13   20     1    20    1.1603E+05  5.1773E+02   1.1551E+05  0.000E+00  0.000E+00  0.000E+00  3.93511E+01  1.579E-01  2.000E+01  2.000E+04  2.589E-02
   1   14   21     1    21    1.1551E+05  1.9130E+02   1.1532E+05  0.000E+00  0.000E+00  0.000E+00  3.88736E+01  1.576E-01  2.000E+01  2.000E+04  9.565E-03
   1   14   22     1    22    1.1532E+05  5.3665E+03   1.0996E+05  0.000E+00  0.000E+00  0.000E+00  3.83940E+01  1.554E-01  2.000E+01  2.000E+04  2.683E-01
   1    9   30     2     1    5.0000E+04 -3.8056E+02   5.0381E+04  0.000E+00  0.000E+00  0.000E+00  4.02411E+01  1.161E-01  2.000E+01  2.000E+04 -1.903E-02
   1    9   29     2     2    5.0381E+04 -6.6564E+02   5.1046E+04  0.000E+00  0.000E+00  0.000E+00  3.99919E+01  1.169E-01  2.000E+01  2.000E+04 -3.328E-02
   1    9   28     2     3    5.1046E+04 -8.8094E+02   5.1927E+04  0.000E+00  0.000E+00  0.000E+00  3.97429E+01  1.179E-01  2.000E+01  2.000E+04 -4.405E-02
   1    9   27     2     4    5.1927E+04 -1.8082E+03   5.3735E+04  0.000E+00  0.000E+00  0.000E+00  3.94948E+01  1.198E-01  2.000E+01  2.000E+04 -9.041E-02
   1   10   26     2     5    5.3735E+04 -7.4941E+02   5.4485E+04  0.000E+00  0.000E+00  0.000E+00  3.92465E+01  1.215E-01  2.000E+01  2.000E+04 -3.747E-02
   1   11   25     2     6    5.4485E+04  1.6917E+02   5.4316E+04  0.000E+00  0.000E+00  0.000E+00  3.89969E+01  1.219E-01  2.000E+01  2.000E+04  8.459E-03
   1   12   24     2     7    5.4316E+04  1.1850E+03   5.3131E+04  0.000E+00  0.000E+00  0.000E+00  3.87460E+01  1.210E-01  2.000E+01  2.000E+04  5.925E-02
   1   13   23     2     8    5.3131E+04  3.6286E+02   5.2768E+04  0.000E+00  0.000E+00  0.000E+00  3.84949E+01  1.199E-01  2.000E+01  2.000E+04  1.814E-02
   1   14   22     2     9    5.2768E+04  2.3480E+03   5.0420E+04  0.000E+00  0.000E+00  0.000E+00  3.82431E+01  1.181E-01  2.000E+01  2.000E+04  1.174E-01
   1   14   22     3     1    1.6038E+05 -8.1666E+03   1.6854E+05  0.000E+00  0.000E+00  0.000E+00  3.77173E+01  1.618E-01  2.000E+01  2.000E+04 -4.083E-01
   1   15   23     3     2    1.6854E+05 -2.9791E+02   1.6884E+05  0.000E+00  0.000E+00  0.000E+00  3.68309E+01  1.643E-01  2.000E+01  2.000E+04 -1.490E-02
   1   15   24     3     3    1.6884E+05 -1.0606E+01   1.6885E+05  0.000E+00  0.000E+00  0.000E+00  3.59421E+01  1.644E-01  2.000E+01  2.000E+04 -5.303E-04
   1   15   25     3     4    1.6885E+05  3.9454E+02   1.6846E+05  0.000E+00  0.000E+00  0.000E+00  3.50531E+01  1.642E-01  2.000E+01  2.000E+04  1.973E-02
   1   15   26     3     5    1.6846E+05 -5.1226E+01   1.6851E+05  0.000E+00  0.000E+00  0.000E+00  3.41641E+01  1.641E-01  2.000E+01  2.000E+04 -2.561E-03
   1   16   27     3     6    1.6851E+05 -2.3865E+02   1.6875E+05  0.000E+00  0.000E+00  0.000E+00  3.32753E+01  1.642E-01  2.000E+01  2.000E+04 -1.193E-02
   1   17   28     3     7    1.6875E+05 -1.2148E+03   1.6996E+05  0.000E+00  0.000E+00  0.000E+00  3.23869E+01  1.647E-01  2.000E+01  2.000E+04 -6.074E-02
   1   18   29     3     8    1.6996E+05 -2.5167E+03   1.7248E+05  0.000E+00  0.000E+00  0.000E+00  3.14991E+01  1.657E-01  2.000E+01  2.000E+04 -1.258E-01
   1   18   30     3     9    1.7248E+05 -2.8937E+03   1.7537E+05  0.000E+00  0.000E+00  0.000E+00  3.06118E+01  1.673E-01  2.000E+01  2.000E+04 -1.447E-01



1
              HEAD IN LAYER   1 AT END OF TIME STEP   1 IN STRESS PERIOD   11
  ---------------------------------------------------------------------------

          1      2      3      4      5      6      7      8      9     10
         11     12     13     14     15     16     17     18     19     20
         21     22     23     24     25     26     27     28     29     30
 .........................................................................
   1  ****** ****** ****** ****** ****** ****** ****** ****** ****** ******
      ****** ****** ****** ****** ****** ****** ****** ****** ****** ******
      ****** ****** ****** ****** ****** ****** ****** ****** ****** ******
   2  ****** ****** ****** ****** ****** ****** ****** ****** ****** ******
      ****** ****** ****** ****** ****** ****** ****** ****** ****** ******
      ****** ****** ****** ****** ****** ****** ****** ****** ****** ******
   3  ****** ****** ****** ****** ****** ****** ****** ****** ****** ******
      ****** ****** ****** ****** ****** ****** ****** ****** ****** ******
      ****** ****** ****** ****** ****** ****** ****** ****** ****** ******
   4  ****** ****** ****** ****** ****** ****** ****** ****** ****** ******
      ****** ****** ****** ****** ****** ****** ****** ****** ****** ******
      ****** ****** ****** ****** ****** ****** ****** ****** ****** ******
   5  ****** ****** ****** ****** ****** ****** ****** ****** ****** ******
      ****** ****** ****** ****** ****** ****** ****** ****** ****** ******
      ****** ****** ****** ****** ****** ****** ****** ****** ****** ******
   6  ****** ****** ****** ****** ****** ****** ****** ****** ****** ******
      ****** ****** ****** ****** ****** ****** ****** ****** ****** ******
      ****** ****** ****** ****** ****** ****** ****** ****** ****** ******
   7  ****** ****** ****** ****** ****** ****** ****** ****** ****** ******
      ****** ****** ****** ****** ****** ****** ****** ****** ****** ******
      ****** ****** ****** ****** ****** ****** ****** ****** ****** ******
   8  ****** ****** ****** ****** ****** ****** ****** ****** ****** ******
      ****** ****** ****** ****** ****** ****** ****** ****** ****** ******
      ****** ****** ****** ****** ****** ****** ****** ****** ****** ******
   9  ****** ****** ****** ****** ****** ****** ****** ****** ****** ******
      ****** ****** ****** ****** ****** ****** ****** ****** ****** ******
      ****** ****** ****** ****** ****** ****** ****** ****** ****** ******
  10  ****** ****** ****** ****** ****** ****** ****** ****** ****** ******
      ****** ****** ****** ****** ****** ****** ****** ****** ****** ******
      ****** ****** ****** ****** ****** ****** ****** ****** ****** ******
  11  ****** ****** ****** ****** ****** ****** ****** ****** ****** ******
      ****** ****** ****** ****** ****** ****** ****** ****** ****** ******
      ****** ****** ****** ****** ****** ****** ****** ****** ****** ******
  12  ****** ****** ****** ****** ****** ****** ****** ****** ****** ******
      ****** ****** ****** ****** ****** ****** ****** ****** ****** ******
      ****** ****** ****** ****** ****** ****** ****** ****** ****** ******
  13  ****** ****** ****** ****** ****** ****** ****** ****** ****** ******
      ****** ****** ****** ****** ****** ****** ****** ****** ****** ******
      ****** ****** ****** ****** ****** ****** ****** ****** ****** ******
  14  ****** ****** ****** ****** ****** ****** ****** ****** ****** ******
      ****** ****** ****** ****** ****** ****** ****** ****** ****** ******
      ****** ****** ****** ****** ****** ****** ****** ****** ****** ******
  15  ****** ****** ****** ****** ****** ****** ****** ****** ****** ******
      ****** ****** ****** ****** ****** ****** ****** ****** ****** ******
      ****** ****** ****** ****** ****** ****** ****** ****** ****** ******
  16  ****** ****** ****** ****** ****** ****** ****** ****** ****** ******
      ****** ****** ****** ****** ****** ****** ****** ****** ****** ******
      ****** ****** ****** ****** ****** ****** ****** ****** ****** ******
  17  ****** ****** ****** ****** ****** ****** ****** ****** ****** ******
      ****** ****** ****** ****** ****** ****** ****** ****** ****** ******
      ****** ****** ****** ****** ****** ****** ****** ****** ****** ******
  18  ****** ****** ****** ****** ****** ****** ****** ****** ****** ******
      ****** ****** ****** ****** ****** ****** ****** ****** ****** ******
      ****** ****** ****** ****** ****** ****** ****** ****** ****** ******
  19  ****** ****** ****** ****** ****** ****** ****** ****** ****** ******
      ****** ****** ****** ****** ****** ****** ****** ****** ****** ******
      ****** ****** ****** ****** ****** ****** ****** ****** ****** ******
  20  ****** ****** ****** ****** ****** ****** ****** ****** ****** ******
      ****** ****** ****** ****** ****** ****** ****** ****** ****** ******
      ****** ****** ****** ****** ****** ****** ****** ****** ****** ******
  21  ****** ****** ****** ****** ****** ****** ****** ****** ****** ******
      ****** ****** ****** ****** ****** ****** ****** ****** ****** ******
      ****** ****** ****** ****** ****** ****** ****** ****** ****** ******
  22  ****** ****** ****** ****** ****** ****** ****** ****** ****** ******
      ****** ****** ****** ****** ****** ****** ****** ****** ****** ******
      ****** ****** ****** ****** ****** ****** ****** ****** ****** ******
  23  ****** ****** ****** ****** ****** ****** ****** ****** ****** ******
      ****** ****** ****** ****** ****** ****** ****** ****** ****** ******
      ****** ****** ****** ****** ****** ****** ****** ****** ****** ******
  24  ****** ****** ****** ****** ****** ****** ****** ****** ****** ******
      ****** ****** ****** ****** ****** ****** ****** ****** ****** ******
      ****** ****** ****** ****** ****** ****** ****** ****** ****** ******
  25  ****** ****** ****** ****** ****** ****** ****** ****** ****** ******
      ****** ****** ****** ****** ****** ****** ****** ****** ****** ******
      ****** ****** ****** ****** ****** ****** ****** ****** ****** ******

 HEAD WILL BE SAVED ON UNIT   51 AT END OF TIME STEP    1, STRESS PERIOD   11
1
  VOLUMETRIC BUDGET FOR ENTIRE MODEL AT END OF TIME STEP    1, STRESS PERIOD  11
  ------------------------------------------------------------------------------

     CUMULATIVE VOLUMES      L**3       RATES FOR THIS TIME STEP      L**3/T
     ------------------                 ------------------------

           IN:                                      IN:
           ---                                      ---
             STORAGE =    34692562.1895               STORAGE =       17895.2156
       CONSTANT HEAD =    27042672.7867         CONSTANT HEAD =       32986.0163
               WELLS =           0.0000                 WELLS =           0.0000
            RECHARGE =    23901600.0000              RECHARGE =           0.0000
      STREAM LEAKAGE =     8530981.9067        STREAM LEAKAGE =       10535.0980

            TOTAL IN =    94167816.8829              TOTAL IN =       61416.3300

          OUT:                                     OUT:
          ----                                     ----
             STORAGE =     2400839.7273               STORAGE =           0.0000
       CONSTANT HEAD =           0.0000         CONSTANT HEAD =           0.0000
               WELLS =    25611894.1726                 WELLS =       25509.8548
            RECHARGE =           0.0000              RECHARGE =           0.0000
      STREAM LEAKAGE =    66155084.8280        STREAM LEAKAGE =       35906.4800

           TOTAL OUT =    94167818.7278             TOTAL OUT =       61416.3348

            IN - OUT =          -1.8450              IN - OUT =      -4.7626E-03

 PERCENT DISCREPANCY =          -0.00     PERCENT DISCREPANCY =          -0.00






         TIME SUMMARY AT END OF TIME STEP    1 IN STRESS PERIOD   11
                    SECONDS     MINUTES      HOURS       DAYS        YEARS
                    -----------------------------------------------------------
   TIME STEP LENGTH 7.86240E+06 1.31040E+05  2184.0      91.000     0.24914    
 STRESS PERIOD TIME 7.86240E+06 1.31040E+05  2184.0      91.000     0.24914    
         TOTAL TIME 8.67456E+07 1.44576E+06  24096.      1004.0      2.7488    
1
1
                            STRESS PERIOD NO.   12, LENGTH =   91.00000    
                            -----------------------------------------------

                              NUMBER OF TIME STEPS =     1

                               MULTIPLIER FOR DELT =     1.500

                            INITIAL TIME STEP SIZE =   91.00000    

 WELL NO.  LAYER   ROW   COL   STRESS RATE         
 --------------------------------------------------
      1      1     14      6       0.000    
      2      1      3      9       0.000    
      3      1     20     10       0.000    
      4      1     14     20       0.000    
      5      1     12     11      -2057.    
      6      1     16     17     -0.1037E+05
      7      1     11     22     -0.1125E+05
      8      1     14     25      -1834.    

      8 WELLS

                 RECHARGE =  1.000000E-03

 REUSING STREAM SEGMENT DATA FROM LAST STRESS PERIOD
 
 SOLVING FOR HEAD 


     7 CALLS TO PCG ROUTINE FOR TIME STEP   1 IN STRESS PERIOD   12
    24 TOTAL ITERATIONS

 OUTPUT CONTROL FOR STRESS PERIOD   12   TIME STEP    1
    SAVE BUDGET
    SAVE HEAD FOR ALL LAYERS
    PRINT HEAD FOR ALL LAYERS
 UBDSV2 SAVING "STREAMFLOW OUT  " ON UNIT  50 AT TIME STEP  1, STRESS PERIOD  12



 STREAM LISTING     PERIOD     12   STEP        1

 LAYER ROW COL. STREAM  RCH.  FLOW INTO     FLOW TO   FLOW OUT OF   OVRLND.     DIRECT     STREAM       STREAM     STREAM     STREAM   STREAMBED  STREAMBED
                SEG.NO.  NO.  STRM. RCH.    AQUIFER    STRM. RCH.    RUNOFF     PRECIP       ET          HEAD       DEPTH      WIDTH   CONDCTNC.   GRADIENT

   1   13    1     1     1    1.0000E+05 -1.6667E+03   1.0167E+05  0.000E+00  0.000E+00  0.000E+00  4.84067E+01  1.454E-01  2.000E+01  2.000E+04 -8.334E-02
   1   13    2     1     2    1.0167E+05 -2.5997E+03   1.0427E+05  0.000E+00  0.000E+00  0.000E+00  4.79313E+01  1.472E-01  2.000E+01  2.000E+04 -1.300E-01
   1   14    3     1     3    1.0427E+05 -4.3050E+02   1.0470E+05  0.000E+00  0.000E+00  0.000E+00  4.74553E+01  1.485E-01  2.000E+01  2.000E+04 -2.153E-02
   1   15    4     1     4    1.0470E+05 -4.0358E+02   1.0510E+05  0.000E+00  0.000E+00  0.000E+00  4.69784E+01  1.489E-01  2.000E+01  2.000E+04 -2.018E-02
   1   16    5     1     5    1.0510E+05 -1.5462E+03   1.0665E+05  0.000E+00  0.000E+00  0.000E+00  4.65020E+01  1.497E-01  2.000E+01  2.000E+04 -7.731E-02
   1   16    6     1     6    1.0665E+05 -9.6444E+02   1.0761E+05  0.000E+00  0.000E+00  0.000E+00  4.60258E+01  1.508E-01  2.000E+01  2.000E+04 -4.822E-02
   1   16    7     1     7    1.0761E+05 -9.3036E+02   1.0854E+05  0.000E+00  0.000E+00  0.000E+00  4.55493E+01  1.516E-01  2.000E+01  2.000E+04 -4.652E-02
   1   16    8     1     8    1.0854E+05 -9.0385E+02   1.0945E+05  0.000E+00  0.000E+00  0.000E+00  4.50728E+01  1.523E-01  2.000E+01  2.000E+04 -4.519E-02
   1   16    9     1     9    1.0945E+05 -8.6617E+02   1.1031E+05  0.000E+00  0.000E+00  0.000E+00  4.45962E+01  1.531E-01  2.000E+01  2.000E+04 -4.331E-02
   1   16   10     1    10    1.1031E+05 -8.1574E+02   1.1113E+05  0.000E+00  0.000E+00  0.000E+00  4.41197E+01  1.538E-01  2.000E+01  2.000E+04 -4.079E-02
   1   16   11     1    11    1.1113E+05 -7.5782E+02   1.1188E+05  0.000E+00  0.000E+00  0.000E+00  4.36431E+01  1.544E-01  2.000E+01  2.000E+04 -3.789E-02
   1   16   12     1    12    1.1188E+05 -9.0781E+02   1.1279E+05  0.000E+00  0.000E+00  0.000E+00  4.31665E+01  1.551E-01  2.000E+01  2.000E+04 -4.539E-02
   1   15   13     1    13    1.1279E+05 -4.2978E+02   1.1322E+05  0.000E+00  0.000E+00  0.000E+00  4.26898E+01  1.557E-01  2.000E+01  2.000E+04 -2.149E-02
   1   14   14     1    14    1.1322E+05 -4.5000E+02   1.1367E+05  0.000E+00  0.000E+00  0.000E+00  4.22128E+01  1.560E-01  2.000E+01  2.000E+04 -2.250E-02
   1   13   15     1    15    1.1367E+05 -8.6487E+02   1.1454E+05  0.000E+00  0.000E+00  0.000E+00  4.17361E+01  1.566E-01  2.000E+01  2.000E+04 -4.324E-02
   1   12   16     1    16    1.1454E+05 -1.9648E+03   1.1650E+05  0.000E+00  0.000E+00  0.000E+00  4.12600E+01  1.577E-01  2.000E+01  2.000E+04 -9.824E-02
   1   12   17     1    17    1.1650E+05 -9.9345E+02   1.1750E+05  0.000E+00  0.000E+00  0.000E+00  4.07839E+01  1.589E-01  2.000E+01  2.000E+04 -4.967E-02
   1   12   18     1    18    1.1750E+05 -8.4483E+02   1.1834E+05  0.000E+00  0.000E+00  0.000E+00  4.03074E+01  1.597E-01  2.000E+01  2.000E+04 -4.224E-02
   1   12   19     1    19    1.1834E+05 -6.5862E+02   1.1900E+05  0.000E+00  0.000E+00  0.000E+00  3.98308E+01  1.603E-01  2.000E+01  2.000E+04 -3.293E-02
   1   13   20     1    20    1.1900E+05  3.0707E+02   1.1869E+05  0.000E+00  0.000E+00  0.000E+00  3.93536E+01  1.604E-01  2.000E+01  2.000E+04  1.535E-02
   1   14   21     1    21    1.1869E+05 -2.9362E+00   1.1870E+05  0.000E+00  0.000E+00  0.000E+00  3.88762E+01  1.603E-01  2.000E+01  2.000E+04 -1.468E-04
   1   14   22     1    22    1.1870E+05  5.3135E+03   1.1338E+05  0.000E+00  0.000E+00  0.000E+00  3.83968E+01  1.582E-01  2.000E+01  2.000E+04  2.657E-01
   1    9   30     2     1    5.0000E+04 -5.5710E+02   5.0557E+04  0.000E+00  0.000E+00  0.000E+00  4.02413E+01  1.163E-01  2.000E+01  2.000E+04 -2.785E-02
   1    9   29     2     2    5.0557E+04 -8.4014E+02   5.1397E+04  0.000E+00  0.000E+00  0.000E+00  3.99922E+01  1.172E-01  2.000E+01  2.000E+04 -4.201E-02
   1    9   28     2     3    5.1397E+04 -1.0519E+03   5.2449E+04  0.000E+00  0.000E+00  0.000E+00  3.97435E+01  1.185E-01  2.000E+01  2.000E+04 -5.260E-02
   1    9   27     2     4    5.2449E+04 -2.0177E+03   5.4467E+04  0.000E+00  0.000E+00  0.000E+00  3.94956E+01  1.206E-01  2.000E+01  2.000E+04 -1.009E-01
   1   10   26     2     5    5.4467E+04 -9.7953E+02   5.5446E+04  0.000E+00  0.000E+00  0.000E+00  3.92476E+01  1.226E-01  2.000E+01  2.000E+04 -4.898E-02
   1   11   25     2     6    5.5446E+04 -5.7028E+01   5.5503E+04  0.000E+00  0.000E+00  0.000E+00  3.89983E+01  1.233E-01  2.000E+01  2.000E+04 -2.851E-03
   1   12   24     2     7    5.5503E+04  9.7852E+02   5.4525E+04  0.000E+00  0.000E+00  0.000E+00  3.87477E+01  1.227E-01  2.000E+01  2.000E+04  4.893E-02
   1   13   23     2     8    5.4525E+04  2.8519E+02   5.4240E+04  0.000E+00  0.000E+00  0.000E+00  3.84969E+01  1.219E-01  2.000E+01  2.000E+04  1.426E-02
   1   14   22     2     9    5.4240E+04  2.2801E+03   5.1960E+04  0.000E+00  0.000E+00  0.000E+00  3.82451E+01  1.201E-01  2.000E+01  2.000E+04  1.140E-01
   1   14   22     3     1    1.6534E+05 -8.2170E+03   1.7356E+05  0.000E+00  0.000E+00  0.000E+00  3.77203E+01  1.647E-01  2.000E+01  2.000E+04 -4.108E-01
   1   15   23     3     2    1.7356E+05 -3.6996E+02   1.7393E+05  0.000E+00  0.000E+00  0.000E+00  3.68339E+01  1.672E-01  2.000E+01  2.000E+04 -1.850E-02
   1   15   24     3     3    1.7393E+05 -7.5707E+01   1.7400E+05  0.000E+00  0.000E+00  0.000E+00  3.59451E+01  1.673E-01  2.000E+01  2.000E+04 -3.785E-03
   1   15   25     3     4    1.7400E+05  3.2817E+02   1.7368E+05  0.000E+00  0.000E+00  0.000E+00  3.50561E+01  1.673E-01  2.000E+01  2.000E+04  1.641E-02
   1   15   26     3     5    1.7368E+05 -1.2872E+02   1.7380E+05  0.000E+00  0.000E+00  0.000E+00  3.41672E+01  1.672E-01  2.000E+01  2.000E+04 -6.436E-03
   1   16   27     3     6    1.7380E+05 -3.2545E+02   1.7413E+05  0.000E+00  0.000E+00  0.000E+00  3.32784E+01  1.673E-01  2.000E+01  2.000E+04 -1.627E-02
   1   17   28     3     7    1.7413E+05 -1.4356E+03   1.7557E+05  0.000E+00  0.000E+00  0.000E+00  3.23901E+01  1.678E-01  2.000E+01  2.000E+04 -7.178E-02
   1   18   29     3     8    1.7557E+05 -2.7175E+03   1.7828E+05  0.000E+00  0.000E+00  0.000E+00  3.15024E+01  1.690E-01  2.000E+01  2.000E+04 -1.359E-01
   1   18   30     3     9    1.7828E+05 -3.0620E+03   1.8134E+05  0.000E+00  0.000E+00  0.000E+00  3.06151E+01  1.707E-01  2.000E+01  2.000E+04 -1.531E-01



1
              HEAD IN LAYER   1 AT END OF TIME STEP   1 IN STRESS PERIOD   12
  ---------------------------------------------------------------------------

          1      2      3      4      5      6      7      8      9     10
         11     12     13     14     15     16     17     18     19     20
         21     22     23     24     25     26     27     28     29     30
 .........................................................................
   1  ****** ****** ****** ****** ****** ****** ****** ****** ****** ******
      ****** ****** ****** ****** ****** ****** ****** ****** ****** ******
      ****** ****** ****** ****** ****** ****** ****** ****** ****** ******
   2  ****** ****** ****** ****** ****** ****** ****** ****** ****** ******
      ****** ****** ****** ****** ****** ****** ****** ****** ****** ******
      ****** ****** ****** ****** ****** ****** ****** ****** ****** ******
   3  ****** ****** ****** ****** ****** ****** ****** ****** ****** ******
      ****** ****** ****** ****** ****** ****** ****** ****** ****** ******
      ****** ****** ****** ****** ****** ****** ****** ****** ****** ******
   4  ****** ****** ****** ****** ****** ****** ****** ****** ****** ******
      ****** ****** ****** ****** ****** ****** ****** ****** ****** ******
      ****** ****** ****** ****** ****** ****** ****** ****** ****** ******
   5  ****** ****** ****** ****** ****** ****** ****** ****** ****** ******
      ****** ****** ****** ****** ****** ****** ****** ****** ****** ******
      ****** ****** ****** ****** ****** ****** ****** ****** ****** ******
   6  ****** ****** ****** ****** ****** ****** ****** ****** ****** ******
      ****** ****** ****** ****** ****** ****** ****** ****** ****** ******
      ****** ****** ****** ****** ****** ****** ****** ****** ****** ******
   7  ****** ****** ****** ****** ****** ****** ****** ****** ****** ******
      ****** ****** ****** ****** ****** ****** ****** ****** ****** ******
      ****** ****** ****** ****** ****** ****** ****** ****** ****** ******
   8  ****** ****** ****** ****** ****** ****** ****** ****** ****** ******
      ****** ****** ****** ****** ****** ****** ****** ****** ****** ******
      ****** ****** ****** ****** ****** ****** ****** ****** ****** ******
   9  ****** ****** ****** ****** ****** ****** ****** ****** ****** ******
      ****** ****** ****** ****** ****** ****** ****** ****** ****** ******
      ****** ****** ****** ****** ****** ****** ****** ****** ****** ******
  10  ****** ****** ****** ****** ****** ****** ****** ****** ****** ******
      ****** ****** ****** ****** ****** ****** ****** ****** ****** ******
      ****** ****** ****** ****** ****** ****** ****** ****** ****** ******
  11  ****** ****** ****** ****** ****** ****** ****** ****** ****** ******
      ****** ****** ****** ****** ****** ****** ****** ****** ****** ******
      ****** ****** ****** ****** ****** ****** ****** ****** ****** ******
  12  ****** ****** ****** ****** ****** ****** ****** ****** ****** ******
      ****** ****** ****** ****** ****** ****** ****** ****** ****** ******
      ****** ****** ****** ****** ****** ****** ****** ****** ****** ******
  13  ****** ****** ****** ****** ****** ****** ****** ****** ****** ******
      ****** ****** ****** ****** ****** ****** ****** ****** ****** ******
      ****** ****** ****** ****** ****** ****** ****** ****** ****** ******
  14  ****** ****** ****** ****** ****** ****** ****** ****** ****** ******
      ****** ****** ****** ****** ****** ****** ****** ****** ****** ******
      ****** ****** ****** ****** ****** ****** ****** ****** ****** ******
  15  ****** ****** ****** ****** ****** ****** ****** ****** ****** ******
      ****** ****** ****** ****** ****** ****** ****** ****** ****** ******
      ****** ****** ****** ****** ****** ****** ****** ****** ****** ******
  16  ****** ****** ****** ****** ****** ****** ****** ****** ****** ******
      ****** ****** ****** ****** ****** ****** ****** ****** ****** ******
      ****** ****** ****** ****** ****** ****** ****** ****** ****** ******
  17  ****** ****** ****** ****** ****** ****** ****** ****** ****** ******
      ****** ****** ****** ****** ****** ****** ****** ****** ****** ******
      ****** ****** ****** ****** ****** ****** ****** ****** ****** ******
  18  ****** ****** ****** ****** ****** ****** ****** ****** ****** ******
      ****** ****** ****** ****** ****** ****** ****** ****** ****** ******
      ****** ****** ****** ****** ****** ****** ****** ****** ****** ******
  19  ****** ****** ****** ****** ****** ****** ****** ****** ****** ******
      ****** ****** ****** ****** ****** ****** ****** ****** ****** ******
      ****** ****** ****** ****** ****** ****** ****** ****** ****** ******
  20  ****** ****** ****** ****** ****** ****** ****** ****** ****** ******
      ****** ****** ****** ****** ****** ****** ****** ****** ****** ******
      ****** ****** ****** ****** ****** ****** ****** ****** ****** ******
  21  ****** ****** ****** ****** ****** ****** ****** ****** ****** ******
      ****** ****** ****** ****** ****** ****** ****** ****** ****** ******
      ****** ****** ****** ****** ****** ****** ****** ****** ****** ******
  22  ****** ****** ****** ****** ****** ****** ****** ****** ****** ******
      ****** ****** ****** ****** ****** ****** ****** ****** ****** ******
      ****** ****** ****** ****** ****** ****** ****** ****** ****** ******
  23  ****** ****** ****** ****** ****** ****** ****** ****** ****** ******
      ****** ****** ****** ****** ****** ****** ****** ****** ****** ******
      ****** ****** ****** ****** ****** ****** ****** ****** ****** ******
  24  ****** ****** ****** ****** ****** ****** ****** ****** ****** ******
      ****** ****** ****** ****** ****** ****** ****** ****** ****** ******
      ****** ****** ****** ****** ****** ****** ****** ****** ****** ******
  25  ****** ****** ****** ****** ****** ****** ****** ****** ****** ******
      ****** ****** ****** ****** ****** ****** ****** ****** ****** ******
      ****** ****** ****** ****** ****** ****** ****** ****** ****** ******

 HEAD WILL BE SAVED ON UNIT   51 AT END OF TIME STEP    1, STRESS PERIOD   12
1
  VOLUMETRIC BUDGET FOR ENTIRE MODEL AT END OF TIME STEP    1, STRESS PERIOD  12
  ------------------------------------------------------------------------------

     CUMULATIVE VOLUMES      L**3       RATES FOR THIS TIME STEP      L**3/T
     ------------------                 ------------------------

           IN:                                      IN:
           ---                                      ---
             STORAGE =    34693324.0433               STORAGE =           8.3720
       CONSTANT HEAD =    29980707.2418         CONSTANT HEAD =       32286.0929
               WELLS =           0.0000                 WELLS =           0.0000
            RECHARGE =    26413200.0000              RECHARGE =       27600.0000
      STREAM LEAKAGE =     9394807.3174        STREAM LEAKAGE =        9492.5869

            TOTAL IN =   100482038.6025              TOTAL IN =       69387.0519

          OUT:                                     OUT:
          ----                                     ----
             STORAGE =     2677456.1683               STORAGE =        3039.7411
       CONSTANT HEAD =           0.0000         CONSTANT HEAD =           0.0000
               WELLS =    27933290.9552                 WELLS =       25509.8548
            RECHARGE =           0.0000              RECHARGE =           0.0000
      STREAM LEAKAGE =    69871293.2374        STREAM LEAKAGE =       40837.4550

           TOTAL OUT =   100482040.3608             TOTAL OUT =       69387.0509

            IN - OUT =          -1.7583              IN - OUT =       9.5203E-04

 PERCENT DISCREPANCY =          -0.00     PERCENT DISCREPANCY =           0.00






         TIME SUMMARY AT END OF TIME STEP    1 IN STRESS PERIOD   12
                    SECONDS     MINUTES      HOURS       DAYS        YEARS
                    -----------------------------------------------------------
   TIME STEP LENGTH 7.86240E+06 1.31040E+05  2184.0      91.000     0.24914    
 STRESS PERIOD TIME 7.86240E+06 1.31040E+05  2184.0      91.000     0.24914    
         TOTAL TIME 9.46080E+07 1.57680E+06  26280.      1095.0      2.9979    
1

 Run end date and time (yyyy/mm/dd hh:mm:ss): 2019/02/10 15:45:21
 Elapsed run time:  0.092 Seconds

