                                  MODFLOW-2005     
      U.S. GEOLOGICAL SURVEY MODULAR FINITE-DIFFERENCE GROUND-WATER FLOW MODEL
                            VERSION 1.11.00 8/8/2013

 LIST FILE: supply2.lst
                         UNIT   10

 OPENING ..\data\supply.dis
 FILE TYPE:DIS   UNIT   11   STATUS:OLD    
 FORMAT:FORMATTED              ACCESS:SEQUENTIAL          

 OPENING ..\data\supply.ba6
 FILE TYPE:BAS6   UNIT   12   STATUS:OLD    
 FORMAT:FORMATTED              ACCESS:SEQUENTIAL          

 OPENING ..\data\supply_het.bc6
 FILE TYPE:BCF6   UNIT   13   STATUS:OLD    
 FORMAT:FORMATTED              ACCESS:SEQUENTIAL          

 OPENING ..\data\supply.rch
 FILE TYPE:RCH   UNIT   15   STATUS:OLD    
 FORMAT:FORMATTED              ACCESS:SEQUENTIAL          

 OPENING ..\data\supply2.sfr
 FILE TYPE:SFR   UNIT   16   STATUS:OLD    
 FORMAT:FORMATTED              ACCESS:SEQUENTIAL          

 OPENING ..\data\supply.oc
 FILE TYPE:OC   UNIT   17   STATUS:OLD    
 FORMAT:FORMATTED              ACCESS:SEQUENTIAL          

 OPENING ..\data\supply.pcg
 FILE TYPE:PCG   UNIT   18   STATUS:OLD    
 FORMAT:FORMATTED              ACCESS:SEQUENTIAL          

 OPENING supply2.wel
 FILE TYPE:WEL   UNIT   19   STATUS:OLD    
 FORMAT:FORMATTED              ACCESS:SEQUENTIAL          

 OPENING supply2sf.cbc
 FILE TYPE:DATA(BINARY)   UNIT   50   STATUS:UNKNOWN
 FORMAT:BINARY                 ACCESS:SEQUENTIAL          

 OPENING supply2hd.bhd
 FILE TYPE:DATA(BINARY)   UNIT   51   STATUS:UNKNOWN
 FORMAT:BINARY                 ACCESS:SEQUENTIAL          

 BAS -- BASIC PACKAGE, VERSION 7, 5/2/2005 INPUT READ FROM UNIT   12
 
 MODFLOW was compiled using uniform precision
 Precision of REAL and DOUBLE PRECISION variables:          15

 DISCRETIZATION INPUT DATA READ FROM UNIT   11
    1 LAYERS        25 ROWS        30 COLUMNS
   12 STRESS PERIOD(S) IN SIMULATION
 MODEL TIME UNIT IS DAYS
 MODEL LENGTH UNIT IS UNDEFINED
  Confining bed flag for each layer:
   0

                     DELR =   200.000    

                     DELC =   200.000    

 TOP ELEVATION OF LAYER 1 =  100.0000    

   MODEL LAYER BOTTOM EL. =   0.00000     FOR LAYER   1


 STRESS PERIOD     LENGTH       TIME STEPS     MULTIPLIER FOR DELT    SS FLAG
 ----------------------------------------------------------------------------
        1         92.00000          1                    1.500         TR
        2         91.00000          1                    1.500         TR
        3         91.00000          1                    1.500         TR
        4         91.00000          1                    1.500         TR
        5         92.00000          1                    1.500         TR
        6         91.00000          1                    1.500         TR
        7         91.00000          1                    1.500         TR
        8         91.00000          1                    1.500         TR
        9         92.00000          1                    1.500         TR
       10         91.00000          1                    1.500         TR
       11         91.00000          1                    1.500         TR
       12         91.00000          1                    1.500         TR

 TRANSIENT SIMULATION



 
 #MODOFC transient water supply sample problem                                   
 #                                                                               
 THE FREE FORMAT OPTION HAS BEEN SELECTED



                     BOUNDARY ARRAY FOR LAYER   1
 READING ON UNIT   12 WITH FORMAT: (20I4)              

 AQUIFER HEAD WILL BE SET TO   0.0000     AT ALL NO-FLOW NODES (IBOUND=0).



                       INITIAL HEAD FOR LAYER   1
 READING ON UNIT   12 WITH FORMAT: (10F13.0)           

 OUTPUT CONTROL IS SPECIFIED ONLY AT TIME STEPS FOR WHICH OUTPUT IS DESIRED
 COMPACT CELL-BY-CELL BUDGET FILES WILL BE WRITTEN
 HEAD PRINT FORMAT CODE IS  18    DRAWDOWN PRINT FORMAT CODE IS   0
 HEADS WILL BE SAVED ON UNIT   51    DRAWDOWNS WILL BE SAVED ON UNIT    0

 BCF -- BLOCK-CENTERED FLOW PACKAGE, VERSION 7, 5/2/2005
         INPUT READ FROM UNIT 13
 TRANSIENT SIMULATION
 HEAD AT CELLS THAT CONVERT TO DRY=   0.0000    
 WETTING CAPABILITY IS NOT ACTIVE
      LAYER  LAYER-TYPE CODE     INTERBLOCK T
      --------------------------------------------
         1            0          0 -- HARMONIC    

 COLUMN TO ROW ANISOTROPY =  1.000000    

     PRIMARY STORAGE COEF =  5.000000E-02 FOR LAYER   1



               TRANSMIS. ALONG ROWS FOR LAYER   1
 READING ON UNIT   13 WITH FORMAT: (FREE)              

 WEL -- WELL PACKAGE, VERSION 7, 5/2/2005 INPUT READ FROM UNIT   19
 # Well package input file written by MMProc
 No named parameters
 MAXIMUM OF      4 ACTIVE WELLS AT ONE TIME


     0 Well parameters

 RCH -- RECHARGE PACKAGE, VERSION 7, 5/2/2005 INPUT READ FROM UNIT   15
 No named parameters
 OPTION 1 -- RECHARGE TO TOP LAYER


     0 Recharge parameters

 SFR7 -- STREAMFLOW ROUTING PACKAGE, VERSION 1.0.7, 2013-01-15
         INPUT READ FROM UNIT  16
 #  Supply2 test problem for GWM-VI
 #  The eighth entry in the first data line is ISTCB2 -
 #    Setting this to a negative number indicates that
 #    streamflows out of the reach will be saved to a
 #    binary file.  The absolute value of ISTCB2 is the
 #    unit to which unformatted flows will be written.
 #
 No named parameters
 Segment information will not be 
 read by reach
 No named parameters
 No specifed inflow files


 NUMBER OF STREAM REACHES IS   40

 NUMBER OF STREAM SEGMENTS IS    3

 NUMBER OF STREAM PARAMETERS IS    0

 NUMBER OF STREAM SEGMENTS DEFINED USING PARAMETERS IS              0

 MAXIMUM ERROR FOR STREAM LEAKAGE RATES IS  1.00E-04

 CONSTANT FOR MANNINGS EQUATION IS  1.2839E+05





   STREAM NETWORK DESCRIPTION: 

   LAYER    ROW    COL   SEGMENT   REACH     LENGTH
                          NUMBER   NUMBER    IN CELL        
   --------------------------------------------------
      1     13      1       1        1    2.0000E+02
      1     13      2       1        2    2.0000E+02
      1     14      3       1        3    2.0000E+02
      1     15      4       1        4    2.0000E+02
      1     16      5       1        5    2.0000E+02
      1     16      6       1        6    2.0000E+02
      1     16      7       1        7    2.0000E+02
      1     16      8       1        8    2.0000E+02
      1     16      9       1        9    2.0000E+02
      1     16     10       1       10    2.0000E+02
      1     16     11       1       11    2.0000E+02
      1     16     12       1       12    2.0000E+02
      1     15     13       1       13    2.0000E+02
      1     14     14       1       14    2.0000E+02
      1     13     15       1       15    2.0000E+02
      1     12     16       1       16    2.0000E+02
      1     12     17       1       17    2.0000E+02
      1     12     18       1       18    2.0000E+02
      1     12     19       1       19    2.0000E+02
      1     13     20       1       20    2.0000E+02
      1     14     21       1       21    2.0000E+02
      1     14     22       1       22    2.0000E+02
      1      9     30       2        1    2.0000E+02
      1      9     29       2        2    2.0000E+02
      1      9     28       2        3    2.0000E+02
      1      9     27       2        4    2.0000E+02
      1     10     26       2        5    2.0000E+02
      1     11     25       2        6    2.0000E+02
      1     12     24       2        7    2.0000E+02
      1     13     23       2        8    2.0000E+02
      1     14     22       2        9    2.0000E+02
      1     14     22       3        1    2.0000E+02
      1     15     23       3        2    2.0000E+02
      1     15     24       3        3    2.0000E+02
      1     15     25       3        4    2.0000E+02
      1     15     26       3        5    2.0000E+02
      1     16     27       3        6    2.0000E+02
      1     17     28       3        7    2.0000E+02
      1     18     29       3        8    2.0000E+02
      1     18     30       3        9    2.0000E+02




 PCG -- CONJUGATE-GRADIENT SOLUTION PACKAGE, VERSION 7, 5/2/2005
 MAXIMUM OF    500 CALLS OF SOLUTION ROUTINE
 MAXIMUM OF      5 INTERNAL ITERATIONS PER CALL TO SOLUTION ROUTINE
 MATRIX PRECONDITIONING TYPE :    1



                                    SOLUTION BY THE CONJUGATE-GRADIENT METHOD
                                   -------------------------------------------
                    MAXIMUM NUMBER OF CALLS TO PCG ROUTINE =      500
                        MAXIMUM ITERATIONS PER CALL TO PCG =        5
                               MATRIX PRECONDITIONING TYPE =        1
        RELAXATION FACTOR (ONLY USED WITH PRECOND. TYPE 1) =    0.10000E+01
 PARAMETER OF POLYNOMIAL PRECOND. = 2 (2) OR IS CALCULATED :        0
                         HEAD CHANGE CRITERION FOR CLOSURE =    0.10000E-05
                     RESIDUAL CHANGE CRITERION FOR CLOSURE =    0.10000E+01
            PCG HEAD AND RESIDUAL CHANGE PRINTOUT INTERVAL =        1
     PRINTING FROM SOLVER IS LIMITED(1) OR SUPPRESSED (>1) =        1
                            STEADY-STATE DAMPING PARAMETER =    0.10000E+01
                               TRANSIENT DAMPING PARAMETER =    0.10000E+01
1
                            STRESS PERIOD NO.    1, LENGTH =   92.00000    
                            -----------------------------------------------

                              NUMBER OF TIME STEPS =     1

                               MULTIPLIER FOR DELT =     1.500

                            INITIAL TIME STEP SIZE =   92.00000    

 WELL NO.  LAYER   ROW   COL   STRESS RATE         
 --------------------------------------------------
      1      1     19     16      -9509.    
      2      1      8     26      -9882.    
      3      1      9     16      -9755.    
      4      1      5      7      -7576.    

      4 WELLS

                 RECHARGE =  5.000000E-04



 CLASSIFICATION & COUNT OF STREAM SEGMENTS BASED ON SOURCE OF INFLOW:

                HEADWATER     DIVERSION     RECEIVES TRIBUTARY FLOW
                ---------     ---------     -----------------------
                     2              0               1



                    INPUT DATA FOR EACH STREAM SEGMENT
 ---------------------------------------------------------------------------------------------

 SEGMENT    SEG.     INFLOW   OVERLAND   STREAM    STREAM   ICALC  OUTFLOW  DIVERSION PRIORITY
    NO.    LENGTH     RATE     RUNOFF      ET       PPT.    METH.  TO SEG.  FROM SEG.    NO.

      1  4.400E+03 1.000E+05 0.000E+00 0.000E+00 0.000E+00    1        3        0        0
      2  1.800E+03 5.000E+04 0.000E+00 0.000E+00 0.000E+00    1        3        0        0
      3  1.800E+03 0.000E+00 0.000E+00 0.000E+00 0.000E+00    1        0        0        0


         STREAMBED PROPERTIES AND STREAM DIMENSIONS

 SEGMENT     BED HYD. COND.      BED THICKNESS     ELEV.-TOP OF BED     WIDTH OF STREAM     DEPTH OF STREAM    STREAM ROUGHNESS
    No.     UPPER     LOWER     UPPER     LOWER     UPPER     LOWER     UPPER     LOWER     UPPER     LOWER   CHANNEL      BANK

     1  5.000E+00 5.000E+00 1.000E+00 1.000E+00 4.850E+01 3.800E+01 2.000E+01 2.000E+01                     5.000E-02
     2  5.000E+00 5.000E+00 1.000E+00 1.000E+00 4.025E+01 3.800E+01 2.000E+01 2.000E+01                     5.000E-02
     3  5.000E+00 5.000E+00 1.000E+00 1.000E+00 3.800E+01 3.000E+01 2.000E+01 2.000E+01                     5.000E-02



 
 SOLVING FOR HEAD 


     9 CALLS TO PCG ROUTINE FOR TIME STEP   1 IN STRESS PERIOD    1
    36 TOTAL ITERATIONS

 OUTPUT CONTROL FOR STRESS PERIOD    1   TIME STEP    1
    SAVE BUDGET
    SAVE HEAD FOR ALL LAYERS
    PRINT HEAD FOR ALL LAYERS
 UBDSV2 SAVING "STREAMFLOW OUT  " ON UNIT  50 AT TIME STEP  1, STRESS PERIOD   1



 STREAM LISTING     PERIOD      1   STEP        1

 LAYER ROW COL. STREAM  RCH.  FLOW INTO     FLOW TO   FLOW OUT OF   OVRLND.     DIRECT     STREAM       STREAM     STREAM     STREAM   STREAMBED  STREAMBED
                SEG.NO.  NO.  STRM. RCH.    AQUIFER    STRM. RCH.    RUNOFF     PRECIP       ET          HEAD       DEPTH      WIDTH   CONDCTNC.   GRADIENT

   1   13    1     1     1    1.0000E+05 -5.9809E+03   1.0598E+05  0.000E+00  0.000E+00  0.000E+00  4.84086E+01  1.472E-01  2.000E+01  2.000E+04 -2.990E-01
   1   13    2     1     2    1.0598E+05 -7.4460E+03   1.1343E+05  0.000E+00  0.000E+00  0.000E+00  4.79370E+01  1.529E-01  2.000E+01  2.000E+04 -3.723E-01
   1   14    3     1     3    1.1343E+05 -2.1914E+03   1.1562E+05  0.000E+00  0.000E+00  0.000E+00  4.74637E+01  1.569E-01  2.000E+01  2.000E+04 -1.096E-01
   1   15    4     1     4    1.1562E+05 -2.2645E+03   1.1788E+05  0.000E+00  0.000E+00  0.000E+00  4.69883E+01  1.587E-01  2.000E+01  2.000E+04 -1.132E-01
   1   16    5     1     5    1.1788E+05 -7.1481E+03   1.2503E+05  0.000E+00  0.000E+00  0.000E+00  4.65148E+01  1.625E-01  2.000E+01  2.000E+04 -3.574E-01
   1   16    6     1     6    1.2503E+05 -4.2705E+03   1.2930E+05  0.000E+00  0.000E+00  0.000E+00  4.60421E+01  1.671E-01  2.000E+01  2.000E+04 -2.135E-01
   1   16    7     1     7    1.2930E+05 -4.0936E+03   1.3340E+05  0.000E+00  0.000E+00  0.000E+00  4.55681E+01  1.704E-01  2.000E+01  2.000E+04 -2.047E-01
   1   16    8     1     8    1.3340E+05 -4.0342E+03   1.3743E+05  0.000E+00  0.000E+00  0.000E+00  4.50940E+01  1.735E-01  2.000E+01  2.000E+04 -2.017E-01
   1   16    9     1     9    1.3743E+05 -3.9948E+03   1.4142E+05  0.000E+00  0.000E+00  0.000E+00  4.46198E+01  1.766E-01  2.000E+01  2.000E+04 -1.997E-01
   1   16   10     1    10    1.4142E+05 -3.9466E+03   1.4537E+05  0.000E+00  0.000E+00  0.000E+00  4.41455E+01  1.796E-01  2.000E+01  2.000E+04 -1.973E-01
   1   16   11     1    11    1.4537E+05 -3.9002E+03   1.4927E+05  0.000E+00  0.000E+00  0.000E+00  4.36711E+01  1.825E-01  2.000E+01  2.000E+04 -1.950E-01
   1   16   12     1    12    1.4927E+05 -6.3670E+03   1.5564E+05  0.000E+00  0.000E+00  0.000E+00  4.31977E+01  1.863E-01  2.000E+01  2.000E+04 -3.183E-01
   1   15   13     1    13    1.5564E+05 -6.6713E+03   1.6231E+05  0.000E+00  0.000E+00  0.000E+00  4.27251E+01  1.910E-01  2.000E+01  2.000E+04 -3.336E-01
   1   14   14     1    14    1.6231E+05 -7.1402E+03   1.6945E+05  0.000E+00  0.000E+00  0.000E+00  4.22528E+01  1.960E-01  2.000E+01  2.000E+04 -3.570E-01
   1   13   15     1    15    1.6945E+05 -7.3607E+03   1.7681E+05  0.000E+00  0.000E+00  0.000E+00  4.17806E+01  2.011E-01  2.000E+01  2.000E+04 -3.680E-01
   1   12   16     1    16    1.7681E+05 -7.4100E+03   1.8422E+05  0.000E+00  0.000E+00  0.000E+00  4.13084E+01  2.062E-01  2.000E+01  2.000E+04 -3.705E-01
   1   12   17     1    17    1.8422E+05 -5.3697E+03   1.8959E+05  0.000E+00  0.000E+00  0.000E+00  4.08355E+01  2.105E-01  2.000E+01  2.000E+04 -2.685E-01
   1   12   18     1    18    1.8959E+05 -5.4505E+03   1.9504E+05  0.000E+00  0.000E+00  0.000E+00  4.03619E+01  2.142E-01  2.000E+01  2.000E+04 -2.725E-01
   1   12   19     1    19    1.9504E+05 -7.1079E+03   2.0215E+05  0.000E+00  0.000E+00  0.000E+00  3.98888E+01  2.183E-01  2.000E+01  2.000E+04 -3.554E-01
   1   13   20     1    20    2.0215E+05 -6.4529E+03   2.0860E+05  0.000E+00  0.000E+00  0.000E+00  3.94159E+01  2.228E-01  2.000E+01  2.000E+04 -3.226E-01
   1   14   21     1    21    2.0860E+05 -6.0661E+03   2.1467E+05  0.000E+00  0.000E+00  0.000E+00  3.89427E+01  2.268E-01  2.000E+01  2.000E+04 -3.033E-01
   1   14   22     1    22    2.1467E+05  3.7440E+03   2.1092E+05  0.000E+00  0.000E+00  0.000E+00  3.84662E+01  2.276E-01  2.000E+01  2.000E+04  1.872E-01
   1    9   30     2     1    5.0000E+04 -4.5621E+03   5.4562E+04  0.000E+00  0.000E+00  0.000E+00  4.02440E+01  1.190E-01  2.000E+01  2.000E+04 -2.281E-01
   1    9   29     2     2    5.4562E+04 -4.7486E+03   5.9311E+04  0.000E+00  0.000E+00  0.000E+00  4.00003E+01  1.253E-01  2.000E+01  2.000E+04 -2.374E-01
   1    9   28     2     3    5.9311E+04 -4.6923E+03   6.4003E+04  0.000E+00  0.000E+00  0.000E+00  3.97564E+01  1.314E-01  2.000E+01  2.000E+04 -2.346E-01
   1    9   27     2     4    6.4003E+04 -5.5657E+03   6.9569E+04  0.000E+00  0.000E+00  0.000E+00  3.95128E+01  1.378E-01  2.000E+01  2.000E+04 -2.783E-01
   1   10   26     2     5    6.9569E+04 -5.6529E+03   7.5222E+04  0.000E+00  0.000E+00  0.000E+00  3.92697E+01  1.447E-01  2.000E+01  2.000E+04 -2.826E-01
   1   11   25     2     6    7.5222E+04 -6.1828E+03   8.1405E+04  0.000E+00  0.000E+00  0.000E+00  3.90267E+01  1.517E-01  2.000E+01  2.000E+04 -3.091E-01
   1   12   24     2     7    8.1405E+04 -5.9673E+03   8.7372E+04  0.000E+00  0.000E+00  0.000E+00  3.87836E+01  1.586E-01  2.000E+01  2.000E+04 -2.984E-01
   1   13   23     2     8    8.7372E+04 -1.6132E+03   8.8985E+04  0.000E+00  0.000E+00  0.000E+00  3.85379E+01  1.629E-01  2.000E+01  2.000E+04 -8.066E-02
   1   14   22     2     9    8.8985E+04  1.9275E+02   8.8792E+04  0.000E+00  0.000E+00  0.000E+00  3.82886E+01  1.636E-01  2.000E+01  2.000E+04  9.638E-03
   1   14   22     3     1    2.9972E+05 -9.7853E+03   3.0950E+05  0.000E+00  0.000E+00  0.000E+00  3.77897E+01  2.342E-01  2.000E+01  2.000E+04 -4.893E-01
   1   15   23     3     2    3.0950E+05 -1.9429E+03   3.1144E+05  0.000E+00  0.000E+00  0.000E+00  3.69035E+01  2.369E-01  2.000E+01  2.000E+04 -9.715E-02
   1   15   24     3     3    3.1144E+05 -1.5221E+03   3.1297E+05  0.000E+00  0.000E+00  0.000E+00  3.60154E+01  2.377E-01  2.000E+01  2.000E+04 -7.610E-02
   1   15   25     3     4    3.1297E+05 -1.5756E+03   3.1454E+05  0.000E+00  0.000E+00  0.000E+00  3.51273E+01  2.384E-01  2.000E+01  2.000E+04 -7.878E-02
   1   15   26     3     5    3.1454E+05 -1.8808E+03   3.1642E+05  0.000E+00  0.000E+00  0.000E+00  3.42392E+01  2.392E-01  2.000E+01  2.000E+04 -9.404E-02
   1   16   27     3     6    3.1642E+05 -2.1611E+03   3.1858E+05  0.000E+00  0.000E+00  0.000E+00  3.33512E+01  2.401E-01  2.000E+01  2.000E+04 -1.081E-01
   1   17   28     3     7    3.1858E+05 -6.5623E+03   3.2515E+05  0.000E+00  0.000E+00  0.000E+00  3.24643E+01  2.420E-01  2.000E+01  2.000E+04 -3.281E-01
   1   18   29     3     8    3.2515E+05 -7.9563E+03   3.3310E+05  0.000E+00  0.000E+00  0.000E+00  3.15786E+01  2.453E-01  2.000E+01  2.000E+04 -3.978E-01
   1   18   30     3     9    3.3310E+05 -7.1524E+03   3.4025E+05  0.000E+00  0.000E+00  0.000E+00  3.06931E+01  2.487E-01  2.000E+01  2.000E+04 -3.576E-01



1
              HEAD IN LAYER   1 AT END OF TIME STEP   1 IN STRESS PERIOD    1
  ---------------------------------------------------------------------------

          1      2      3      4      5      6      7      8      9     10
         11     12     13     14     15     16     17     18     19     20
         21     22     23     24     25     26     27     28     29     30
 .........................................................................
   1  ****** ****** ****** ****** ****** ****** ****** ****** ****** ******
      ****** ****** ****** ****** ****** ****** ****** ****** ****** ******
      ****** ****** ****** ****** ****** ****** ****** ****** ****** ******
   2  ****** ****** ****** ****** ****** ****** ****** ****** ****** ******
      ****** ****** ****** ****** ****** ****** ****** ****** ****** ******
      ****** ****** ****** ****** ****** ****** ****** ****** ****** ******
   3  ****** ****** ****** ****** ****** ****** ****** ****** ****** ******
      ****** ****** ****** ****** ****** ****** ****** ****** ****** ******
      ****** ****** ****** ****** ****** ****** ****** ****** ****** ******
   4  ****** ****** ****** ****** ****** ****** ****** ****** ****** ******
      ****** ****** ****** ****** ****** ****** ****** ****** ****** ******
      ****** ****** ****** ****** ****** ****** ****** ****** ****** ******
   5  ****** ****** ****** ****** ****** ****** ****** ****** ****** ******
      ****** ****** ****** ****** ****** ****** ****** ****** ****** ******
      ****** ****** ****** ****** ****** ****** ****** ****** ****** ******
   6  ****** ****** ****** ****** ****** ****** ****** ****** ****** ******
      ****** ****** ****** ****** ****** ****** ****** ****** ****** ******
      ****** ****** ****** ****** ****** ****** ****** ****** ****** ******
   7  ****** ****** ****** ****** ****** ****** ****** ****** ****** ******
      ****** ****** ****** ****** ****** ****** ****** ****** ****** ******
      ****** ****** ****** ****** ****** ****** ****** ****** ****** ******
   8  ****** ****** ****** ****** ****** ****** ****** ****** ****** ******
      ****** ****** ****** ****** ****** ****** ****** ****** ****** ******
      ****** ****** ****** ****** ****** ****** ****** ****** ****** ******
   9  ****** ****** ****** ****** ****** ****** ****** ****** ****** ******
      ****** ****** ****** ****** ****** ****** ****** ****** ****** ******
      ****** ****** ****** ****** ****** ****** ****** ****** ****** ******
  10  ****** ****** ****** ****** ****** ****** ****** ****** ****** ******
      ****** ****** ****** ****** ****** ****** ****** ****** ****** ******
      ****** ****** ****** ****** ****** ****** ****** ****** ****** ******
  11  ****** ****** ****** ****** ****** ****** ****** ****** ****** ******
      ****** ****** ****** ****** ****** ****** ****** ****** ****** ******
      ****** ****** ****** ****** ****** ****** ****** ****** ****** ******
  12  ****** ****** ****** ****** ****** ****** ****** ****** ****** ******
      ****** ****** ****** ****** ****** ****** ****** ****** ****** ******
      ****** ****** ****** ****** ****** ****** ****** ****** ****** ******
  13  ****** ****** ****** ****** ****** ****** ****** ****** ****** ******
      ****** ****** ****** ****** ****** ****** ****** ****** ****** ******
      ****** ****** ****** ****** ****** ****** ****** ****** ****** ******
  14  ****** ****** ****** ****** ****** ****** ****** ****** ****** ******
      ****** ****** ****** ****** ****** ****** ****** ****** ****** ******
      ****** ****** ****** ****** ****** ****** ****** ****** ****** ******
  15  ****** ****** ****** ****** ****** ****** ****** ****** ****** ******
      ****** ****** ****** ****** ****** ****** ****** ****** ****** ******
      ****** ****** ****** ****** ****** ****** ****** ****** ****** ******
  16  ****** ****** ****** ****** ****** ****** ****** ****** ****** ******
      ****** ****** ****** ****** ****** ****** ****** ****** ****** ******
      ****** ****** ****** ****** ****** ****** ****** ****** ****** ******
  17  ****** ****** ****** ****** ****** ****** ****** ****** ****** ******
      ****** ****** ****** ****** ****** ****** ****** ****** ****** ******
      ****** ****** ****** ****** ****** ****** ****** ****** ****** ******
  18  ****** ****** ****** ****** ****** ****** ****** ****** ****** ******
      ****** ****** ****** ****** ****** ****** ****** ****** ****** ******
      ****** ****** ****** ****** ****** ****** ****** ****** ****** ******
  19  ****** ****** ****** ****** ****** ****** ****** ****** ****** ******
      ****** ****** ****** ****** ****** ****** ****** ****** ****** ******
      ****** ****** ****** ****** ****** ****** ****** ****** ****** ******
  20  ****** ****** ****** ****** ****** ****** ****** ****** ****** ******
      ****** ****** ****** ****** ****** ****** ****** ****** ****** ******
      ****** ****** ****** ****** ****** ****** ****** ****** ****** ******
  21  ****** ****** ****** ****** ****** ****** ****** ****** ****** ******
      ****** ****** ****** ****** ****** ****** ****** ****** ****** ******
      ****** ****** ****** ****** ****** ****** ****** ****** ****** ******
  22  ****** ****** ****** ****** ****** ****** ****** ****** ****** ******
      ****** ****** ****** ****** ****** ****** ****** ****** ****** ******
      ****** ****** ****** ****** ****** ****** ****** ****** ****** ******
  23  ****** ****** ****** ****** ****** ****** ****** ****** ****** ******
      ****** ****** ****** ****** ****** ****** ****** ****** ****** ******
      ****** ****** ****** ****** ****** ****** ****** ****** ****** ******
  24  ****** ****** ****** ****** ****** ****** ****** ****** ****** ******
      ****** ****** ****** ****** ****** ****** ****** ****** ****** ******
      ****** ****** ****** ****** ****** ****** ****** ****** ****** ******
  25  ****** ****** ****** ****** ****** ****** ****** ****** ****** ******
      ****** ****** ****** ****** ****** ****** ****** ****** ****** ******
      ****** ****** ****** ****** ****** ****** ****** ****** ****** ******

 HEAD WILL BE SAVED ON UNIT   51 AT END OF TIME STEP    1, STRESS PERIOD    1
1
  VOLUMETRIC BUDGET FOR ENTIRE MODEL AT END OF TIME STEP    1, STRESS PERIOD   1
  ------------------------------------------------------------------------------

     CUMULATIVE VOLUMES      L**3       RATES FOR THIS TIME STEP      L**3/T
     ------------------                 ------------------------

           IN:                                      IN:
           ---                                      ---
             STORAGE =    18396260.2094               STORAGE =      199959.3501
       CONSTANT HEAD =     1216057.1936         CONSTANT HEAD =       13218.0130
               WELLS =           0.0000                 WELLS =           0.0000
            RECHARGE =     1269600.0000              RECHARGE =       13800.0000
      STREAM LEAKAGE =      362181.6109        STREAM LEAKAGE =        3936.7566

            TOTAL IN =    21244099.0140              TOTAL IN =      230914.1197

          OUT:                                     OUT:
          ----                                     ----
             STORAGE =           0.0000               STORAGE =           0.0000
       CONSTANT HEAD =           0.0000         CONSTANT HEAD =           0.0000
               WELLS =     3378510.5804                 WELLS =       36722.9411
            RECHARGE =           0.0000              RECHARGE =           0.0000
      STREAM LEAKAGE =    17865588.7227        STREAM LEAKAGE =      194191.1818

           TOTAL OUT =    21244099.3031             TOTAL OUT =      230914.1229

            IN - OUT =          -0.2891              IN - OUT =      -3.1427E-03

 PERCENT DISCREPANCY =          -0.00     PERCENT DISCREPANCY =          -0.00






         TIME SUMMARY AT END OF TIME STEP    1 IN STRESS PERIOD    1
                    SECONDS     MINUTES      HOURS       DAYS        YEARS
                    -----------------------------------------------------------
   TIME STEP LENGTH 7.94880E+06 1.32480E+05  2208.0      92.000     0.25188    
 STRESS PERIOD TIME 7.94880E+06 1.32480E+05  2208.0      92.000     0.25188    
         TOTAL TIME 7.94880E+06 1.32480E+05  2208.0      92.000     0.25188    
1
1
                            STRESS PERIOD NO.    2, LENGTH =   91.00000    
                            -----------------------------------------------

                              NUMBER OF TIME STEPS =     1

                               MULTIPLIER FOR DELT =     1.500

                            INITIAL TIME STEP SIZE =   91.00000    

 WELL NO.  LAYER   ROW   COL   STRESS RATE         
 --------------------------------------------------
      1      1     19     16      -9509.    
      2      1      8     26      -9882.    
      3      1      9     16      -9755.    
      4      1      5      7      -7576.    

      4 WELLS

                 RECHARGE =  2.000000E-03

 REUSING STREAM SEGMENT DATA FROM LAST STRESS PERIOD
 
 SOLVING FOR HEAD 


     7 CALLS TO PCG ROUTINE FOR TIME STEP   1 IN STRESS PERIOD    2
    27 TOTAL ITERATIONS

 OUTPUT CONTROL FOR STRESS PERIOD    2   TIME STEP    1
    SAVE BUDGET
    SAVE HEAD FOR ALL LAYERS
    PRINT HEAD FOR ALL LAYERS
 UBDSV2 SAVING "STREAMFLOW OUT  " ON UNIT  50 AT TIME STEP  1, STRESS PERIOD   2



 STREAM LISTING     PERIOD      2   STEP        1

 LAYER ROW COL. STREAM  RCH.  FLOW INTO     FLOW TO   FLOW OUT OF   OVRLND.     DIRECT     STREAM       STREAM     STREAM     STREAM   STREAMBED  STREAMBED
                SEG.NO.  NO.  STRM. RCH.    AQUIFER    STRM. RCH.    RUNOFF     PRECIP       ET          HEAD       DEPTH      WIDTH   CONDCTNC.   GRADIENT

   1   13    1     1     1    1.0000E+05 -3.6978E+03   1.0370E+05  0.000E+00  0.000E+00  0.000E+00  4.84076E+01  1.463E-01  2.000E+01  2.000E+04 -1.849E-01
   1   13    2     1     2    1.0370E+05 -4.9452E+03   1.0864E+05  0.000E+00  0.000E+00  0.000E+00  4.79340E+01  1.499E-01  2.000E+01  2.000E+04 -2.473E-01
   1   14    3     1     3    1.0864E+05 -1.0960E+03   1.0974E+05  0.000E+00  0.000E+00  0.000E+00  4.74593E+01  1.525E-01  2.000E+01  2.000E+04 -5.480E-02
   1   15    4     1     4    1.0974E+05 -1.1287E+03   1.1087E+05  0.000E+00  0.000E+00  0.000E+00  4.69830E+01  1.534E-01  2.000E+01  2.000E+04 -5.643E-02
   1   16    5     1     5    1.1087E+05 -4.1752E+03   1.1504E+05  0.000E+00  0.000E+00  0.000E+00  4.65079E+01  1.556E-01  2.000E+01  2.000E+04 -2.088E-01
   1   16    6     1     6    1.1504E+05 -2.4417E+03   1.1748E+05  0.000E+00  0.000E+00  0.000E+00  4.60333E+01  1.583E-01  2.000E+01  2.000E+04 -1.221E-01
   1   16    7     1     7    1.1748E+05 -2.3286E+03   1.1981E+05  0.000E+00  0.000E+00  0.000E+00  4.55580E+01  1.603E-01  2.000E+01  2.000E+04 -1.164E-01
   1   16    8     1     8    1.1981E+05 -2.2704E+03   1.2208E+05  0.000E+00  0.000E+00  0.000E+00  4.50826E+01  1.621E-01  2.000E+01  2.000E+04 -1.135E-01
   1   16    9     1     9    1.2208E+05 -2.2066E+03   1.2429E+05  0.000E+00  0.000E+00  0.000E+00  4.46071E+01  1.639E-01  2.000E+01  2.000E+04 -1.103E-01
   1   16   10     1    10    1.2429E+05 -2.1168E+03   1.2641E+05  0.000E+00  0.000E+00  0.000E+00  4.41316E+01  1.657E-01  2.000E+01  2.000E+04 -1.058E-01
   1   16   11     1    11    1.2641E+05 -2.0098E+03   1.2842E+05  0.000E+00  0.000E+00  0.000E+00  4.36559E+01  1.673E-01  2.000E+01  2.000E+04 -1.005E-01
   1   16   12     1    12    1.2842E+05 -3.2075E+03   1.3162E+05  0.000E+00  0.000E+00  0.000E+00  4.31807E+01  1.693E-01  2.000E+01  2.000E+04 -1.604E-01
   1   15   13     1    13    1.3162E+05 -3.1604E+03   1.3478E+05  0.000E+00  0.000E+00  0.000E+00  4.27059E+01  1.718E-01  2.000E+01  2.000E+04 -1.580E-01
   1   14   14     1    14    1.3478E+05 -3.4922E+03   1.3828E+05  0.000E+00  0.000E+00  0.000E+00  4.22312E+01  1.744E-01  2.000E+01  2.000E+04 -1.746E-01
   1   13   15     1    15    1.3828E+05 -3.6926E+03   1.4197E+05  0.000E+00  0.000E+00  0.000E+00  4.17567E+01  1.771E-01  2.000E+01  2.000E+04 -1.846E-01
   1   12   16     1    16    1.4197E+05 -3.8505E+03   1.4582E+05  0.000E+00  0.000E+00  0.000E+00  4.12822E+01  1.799E-01  2.000E+01  2.000E+04 -1.925E-01
   1   12   17     1    17    1.4582E+05 -2.6107E+03   1.4843E+05  0.000E+00  0.000E+00  0.000E+00  4.08074E+01  1.824E-01  2.000E+01  2.000E+04 -1.305E-01
   1   12   18     1    18    1.4843E+05 -2.7245E+03   1.5116E+05  0.000E+00  0.000E+00  0.000E+00  4.03321E+01  1.843E-01  2.000E+01  2.000E+04 -1.362E-01
   1   12   19     1    19    1.5116E+05 -3.7517E+03   1.5491E+05  0.000E+00  0.000E+00  0.000E+00  3.98572E+01  1.867E-01  2.000E+01  2.000E+04 -1.876E-01
   1   13   20     1    20    1.5491E+05 -3.1723E+03   1.5808E+05  0.000E+00  0.000E+00  0.000E+00  3.93824E+01  1.892E-01  2.000E+01  2.000E+04 -1.586E-01
   1   14   21     1    21    1.5808E+05 -3.1633E+03   1.6124E+05  0.000E+00  0.000E+00  0.000E+00  3.89074E+01  1.915E-01  2.000E+01  2.000E+04 -1.582E-01
   1   14   22     1    22    1.6124E+05  4.5361E+03   1.5671E+05  0.000E+00  0.000E+00  0.000E+00  3.84297E+01  1.910E-01  2.000E+01  2.000E+04  2.268E-01
   1    9   30     2     1    5.0000E+04 -1.7340E+03   5.1734E+04  0.000E+00  0.000E+00  0.000E+00  4.02421E+01  1.171E-01  2.000E+01  2.000E+04 -8.670E-02
   1    9   29     2     2    5.1734E+04 -1.9220E+03   5.3656E+04  0.000E+00  0.000E+00  0.000E+00  3.99946E+01  1.196E-01  2.000E+01  2.000E+04 -9.610E-02
   1    9   28     2     3    5.3656E+04 -1.8522E+03   5.5508E+04  0.000E+00  0.000E+00  0.000E+00  3.97471E+01  1.221E-01  2.000E+01  2.000E+04 -9.261E-02
   1    9   27     2     4    5.5508E+04 -1.7795E+03   5.7288E+04  0.000E+00  0.000E+00  0.000E+00  3.94995E+01  1.245E-01  2.000E+01  2.000E+04 -8.897E-02
   1   10   26     2     5    5.7288E+04 -1.8298E+03   5.9117E+04  0.000E+00  0.000E+00  0.000E+00  3.92519E+01  1.269E-01  2.000E+01  2.000E+04 -9.149E-02
   1   11   25     2     6    5.9117E+04 -2.5877E+03   6.1705E+04  0.000E+00  0.000E+00  0.000E+00  3.90048E+01  1.298E-01  2.000E+01  2.000E+04 -1.294E-01
   1   12   24     2     7    6.1705E+04 -2.7600E+03   6.4465E+04  0.000E+00  0.000E+00  0.000E+00  3.87582E+01  1.332E-01  2.000E+01  2.000E+04 -1.380E-01
   1   13   23     2     8    6.4465E+04 -5.5419E+02   6.5019E+04  0.000E+00  0.000E+00  0.000E+00  3.85103E+01  1.353E-01  2.000E+01  2.000E+04 -2.771E-02
   1   14   22     2     9    6.5019E+04  1.1412E+03   6.3878E+04  0.000E+00  0.000E+00  0.000E+00  3.82599E+01  1.349E-01  2.000E+01  2.000E+04  5.706E-02
   1   14   22     3     1    2.2058E+05 -9.0400E+03   2.2962E+05  0.000E+00  0.000E+00  0.000E+00  3.77509E+01  1.953E-01  2.000E+01  2.000E+04 -4.520E-01
   1   15   23     3     2    2.2962E+05 -9.7401E+02   2.3060E+05  0.000E+00  0.000E+00  0.000E+00  3.68646E+01  1.979E-01  2.000E+01  2.000E+04 -4.870E-02
   1   15   24     3     3    2.3060E+05 -6.4850E+02   2.3125E+05  0.000E+00  0.000E+00  0.000E+00  3.59761E+01  1.983E-01  2.000E+01  2.000E+04 -3.242E-02
   1   15   25     3     4    2.3125E+05 -6.6222E+02   2.3191E+05  0.000E+00  0.000E+00  0.000E+00  3.50876E+01  1.987E-01  2.000E+01  2.000E+04 -3.311E-02
   1   15   26     3     5    2.3191E+05 -7.6795E+02   2.3268E+05  0.000E+00  0.000E+00  0.000E+00  3.41990E+01  1.990E-01  2.000E+01  2.000E+04 -3.840E-02
   1   16   27     3     6    2.3268E+05 -8.9016E+02   2.3357E+05  0.000E+00  0.000E+00  0.000E+00  3.33106E+01  1.995E-01  2.000E+01  2.000E+04 -4.451E-02
   1   17   28     3     7    2.3357E+05 -3.2180E+03   2.3679E+05  0.000E+00  0.000E+00  0.000E+00  3.24227E+01  2.005E-01  2.000E+01  2.000E+04 -1.609E-01
   1   18   29     3     8    2.3679E+05 -4.9676E+03   2.4175E+05  0.000E+00  0.000E+00  0.000E+00  3.15359E+01  2.026E-01  2.000E+01  2.000E+04 -2.484E-01
   1   18   30     3     9    2.4175E+05 -4.6328E+03   2.4639E+05  0.000E+00  0.000E+00  0.000E+00  3.06495E+01  2.050E-01  2.000E+01  2.000E+04 -2.316E-01



1
              HEAD IN LAYER   1 AT END OF TIME STEP   1 IN STRESS PERIOD    2
  ---------------------------------------------------------------------------

          1      2      3      4      5      6      7      8      9     10
         11     12     13     14     15     16     17     18     19     20
         21     22     23     24     25     26     27     28     29     30
 .........................................................................
   1  ****** ****** ****** ****** ****** ****** ****** ****** ****** ******
      ****** ****** ****** ****** ****** ****** ****** ****** ****** ******
      ****** ****** ****** ****** ****** ****** ****** ****** ****** ******
   2  ****** ****** ****** ****** ****** ****** ****** ****** ****** ******
      ****** ****** ****** ****** ****** ****** ****** ****** ****** ******
      ****** ****** ****** ****** ****** ****** ****** ****** ****** ******
   3  ****** ****** ****** ****** ****** ****** ****** ****** ****** ******
      ****** ****** ****** ****** ****** ****** ****** ****** ****** ******
      ****** ****** ****** ****** ****** ****** ****** ****** ****** ******
   4  ****** ****** ****** ****** ****** ****** ****** ****** ****** ******
      ****** ****** ****** ****** ****** ****** ****** ****** ****** ******
      ****** ****** ****** ****** ****** ****** ****** ****** ****** ******
   5  ****** ****** ****** ****** ****** ****** ****** ****** ****** ******
      ****** ****** ****** ****** ****** ****** ****** ****** ****** ******
      ****** ****** ****** ****** ****** ****** ****** ****** ****** ******
   6  ****** ****** ****** ****** ****** ****** ****** ****** ****** ******
      ****** ****** ****** ****** ****** ****** ****** ****** ****** ******
      ****** ****** ****** ****** ****** ****** ****** ****** ****** ******
   7  ****** ****** ****** ****** ****** ****** ****** ****** ****** ******
      ****** ****** ****** ****** ****** ****** ****** ****** ****** ******
      ****** ****** ****** ****** ****** ****** ****** ****** ****** ******
   8  ****** ****** ****** ****** ****** ****** ****** ****** ****** ******
      ****** ****** ****** ****** ****** ****** ****** ****** ****** ******
      ****** ****** ****** ****** ****** ****** ****** ****** ****** ******
   9  ****** ****** ****** ****** ****** ****** ****** ****** ****** ******
      ****** ****** ****** ****** ****** ****** ****** ****** ****** ******
      ****** ****** ****** ****** ****** ****** ****** ****** ****** ******
  10  ****** ****** ****** ****** ****** ****** ****** ****** ****** ******
      ****** ****** ****** ****** ****** ****** ****** ****** ****** ******
      ****** ****** ****** ****** ****** ****** ****** ****** ****** ******
  11  ****** ****** ****** ****** ****** ****** ****** ****** ****** ******
      ****** ****** ****** ****** ****** ****** ****** ****** ****** ******
      ****** ****** ****** ****** ****** ****** ****** ****** ****** ******
  12  ****** ****** ****** ****** ****** ****** ****** ****** ****** ******
      ****** ****** ****** ****** ****** ****** ****** ****** ****** ******
      ****** ****** ****** ****** ****** ****** ****** ****** ****** ******
  13  ****** ****** ****** ****** ****** ****** ****** ****** ****** ******
      ****** ****** ****** ****** ****** ****** ****** ****** ****** ******
      ****** ****** ****** ****** ****** ****** ****** ****** ****** ******
  14  ****** ****** ****** ****** ****** ****** ****** ****** ****** ******
      ****** ****** ****** ****** ****** ****** ****** ****** ****** ******
      ****** ****** ****** ****** ****** ****** ****** ****** ****** ******
  15  ****** ****** ****** ****** ****** ****** ****** ****** ****** ******
      ****** ****** ****** ****** ****** ****** ****** ****** ****** ******
      ****** ****** ****** ****** ****** ****** ****** ****** ****** ******
  16  ****** ****** ****** ****** ****** ****** ****** ****** ****** ******
      ****** ****** ****** ****** ****** ****** ****** ****** ****** ******
      ****** ****** ****** ****** ****** ****** ****** ****** ****** ******
  17  ****** ****** ****** ****** ****** ****** ****** ****** ****** ******
      ****** ****** ****** ****** ****** ****** ****** ****** ****** ******
      ****** ****** ****** ****** ****** ****** ****** ****** ****** ******
  18  ****** ****** ****** ****** ****** ****** ****** ****** ****** ******
      ****** ****** ****** ****** ****** ****** ****** ****** ****** ******
      ****** ****** ****** ****** ****** ****** ****** ****** ****** ******
  19  ****** ****** ****** ****** ****** ****** ****** ****** ****** ******
      ****** ****** ****** ****** ****** ****** ****** ****** ****** ******
      ****** ****** ****** ****** ****** ****** ****** ****** ****** ******
  20  ****** ****** ****** ****** ****** ****** ****** ****** ****** ******
      ****** ****** ****** ****** ****** ****** ****** ****** ****** ******
      ****** ****** ****** ****** ****** ****** ****** ****** ****** ******
  21  ****** ****** ****** ****** ****** ****** ****** ****** ****** ******
      ****** ****** ****** ****** ****** ****** ****** ****** ****** ******
      ****** ****** ****** ****** ****** ****** ****** ****** ****** ******
  22  ****** ****** ****** ****** ****** ****** ****** ****** ****** ******
      ****** ****** ****** ****** ****** ****** ****** ****** ****** ******
      ****** ****** ****** ****** ****** ****** ****** ****** ****** ******
  23  ****** ****** ****** ****** ****** ****** ****** ****** ****** ******
      ****** ****** ****** ****** ****** ****** ****** ****** ****** ******
      ****** ****** ****** ****** ****** ****** ****** ****** ****** ******
  24  ****** ****** ****** ****** ****** ****** ****** ****** ****** ******
      ****** ****** ****** ****** ****** ****** ****** ****** ****** ******
      ****** ****** ****** ****** ****** ****** ****** ****** ****** ******
  25  ****** ****** ****** ****** ****** ****** ****** ****** ****** ******
      ****** ****** ****** ****** ****** ****** ****** ****** ****** ******
      ****** ****** ****** ****** ****** ****** ****** ****** ****** ******

 HEAD WILL BE SAVED ON UNIT   51 AT END OF TIME STEP    1, STRESS PERIOD    2
1
  VOLUMETRIC BUDGET FOR ENTIRE MODEL AT END OF TIME STEP    1, STRESS PERIOD   2
  ------------------------------------------------------------------------------

     CUMULATIVE VOLUMES      L**3       RATES FOR THIS TIME STEP      L**3/T
     ------------------                 ------------------------

           IN:                                      IN:
           ---                                      ---
             STORAGE =    23808394.5524               STORAGE =       59474.0038
       CONSTANT HEAD =     2893616.6047         CONSTANT HEAD =       18434.7188
               WELLS =           0.0000                 WELLS =           0.0000
            RECHARGE =     6292800.0000              RECHARGE =       55200.0000
      STREAM LEAKAGE =      878811.2796        STREAM LEAKAGE =        5677.2491

            TOTAL IN =    33873622.4366              TOTAL IN =      138785.9717

          OUT:                                     OUT:
          ----                                     ----
             STORAGE =           0.0000               STORAGE =           0.0000
       CONSTANT HEAD =           0.0000         CONSTANT HEAD =           0.0000
               WELLS =     6720298.2197                 WELLS =       36722.9411
            RECHARGE =           0.0000              RECHARGE =           0.0000
      STREAM LEAKAGE =    27153325.5033        STREAM LEAKAGE =      102063.0415

           TOTAL OUT =    33873623.7230             TOTAL OUT =      138785.9826

            IN - OUT =          -1.2863              IN - OUT =      -1.0958E-02

 PERCENT DISCREPANCY =          -0.00     PERCENT DISCREPANCY =          -0.00






         TIME SUMMARY AT END OF TIME STEP    1 IN STRESS PERIOD    2
                    SECONDS     MINUTES      HOURS       DAYS        YEARS
                    -----------------------------------------------------------
   TIME STEP LENGTH 7.86240E+06 1.31040E+05  2184.0      91.000     0.24914    
 STRESS PERIOD TIME 7.86240E+06 1.31040E+05  2184.0      91.000     0.24914    
         TOTAL TIME 1.58112E+07 2.63520E+05  4392.0      183.00     0.50103    
1
1
                            STRESS PERIOD NO.    3, LENGTH =   91.00000    
                            -----------------------------------------------

                              NUMBER OF TIME STEPS =     1

                               MULTIPLIER FOR DELT =     1.500

                            INITIAL TIME STEP SIZE =   91.00000    

 WELL NO.  LAYER   ROW   COL   STRESS RATE         
 --------------------------------------------------
      1      1     19     16      -9509.    
      2      1      8     26      -9882.    
      3      1      9     16      -9755.    
      4      1      5      7      -7576.    

      4 WELLS

                 RECHARGE =   0.00000    

 REUSING STREAM SEGMENT DATA FROM LAST STRESS PERIOD
 
 SOLVING FOR HEAD 


     7 CALLS TO PCG ROUTINE FOR TIME STEP   1 IN STRESS PERIOD    3
    27 TOTAL ITERATIONS

 OUTPUT CONTROL FOR STRESS PERIOD    3   TIME STEP    1
    SAVE BUDGET
    SAVE HEAD FOR ALL LAYERS
    PRINT HEAD FOR ALL LAYERS
 UBDSV2 SAVING "STREAMFLOW OUT  " ON UNIT  50 AT TIME STEP  1, STRESS PERIOD   3



 STREAM LISTING     PERIOD      3   STEP        1

 LAYER ROW COL. STREAM  RCH.  FLOW INTO     FLOW TO   FLOW OUT OF   OVRLND.     DIRECT     STREAM       STREAM     STREAM     STREAM   STREAMBED  STREAMBED
                SEG.NO.  NO.  STRM. RCH.    AQUIFER    STRM. RCH.    RUNOFF     PRECIP       ET          HEAD       DEPTH      WIDTH   CONDCTNC.   GRADIENT

   1   13    1     1     1    1.0000E+05 -2.3083E+03   1.0231E+05  0.000E+00  0.000E+00  0.000E+00  4.84070E+01  1.457E-01  2.000E+01  2.000E+04 -1.154E-01
   1   13    2     1     2    1.0231E+05 -3.3901E+03   1.0570E+05  0.000E+00  0.000E+00  0.000E+00  4.79322E+01  1.481E-01  2.000E+01  2.000E+04 -1.695E-01
   1   14    3     1     3    1.0570E+05 -6.2169E+02   1.0632E+05  0.000E+00  0.000E+00  0.000E+00  4.74566E+01  1.498E-01  2.000E+01  2.000E+04 -3.108E-02
   1   15    4     1     4    1.0632E+05 -6.1344E+02   1.0693E+05  0.000E+00  0.000E+00  0.000E+00  4.69799E+01  1.503E-01  2.000E+01  2.000E+04 -3.067E-02
   1   16    5     1     5    1.0693E+05 -2.3495E+03   1.0928E+05  0.000E+00  0.000E+00  0.000E+00  4.65039E+01  1.516E-01  2.000E+01  2.000E+04 -1.175E-01
   1   16    6     1     6    1.0928E+05 -1.4153E+03   1.1070E+05  0.000E+00  0.000E+00  0.000E+00  4.60282E+01  1.532E-01  2.000E+01  2.000E+04 -7.077E-02
   1   16    7     1     7    1.1070E+05 -1.3572E+03   1.1206E+05  0.000E+00  0.000E+00  0.000E+00  4.55520E+01  1.543E-01  2.000E+01  2.000E+04 -6.786E-02
   1   16    8     1     8    1.1206E+05 -1.3127E+03   1.1337E+05  0.000E+00  0.000E+00  0.000E+00  4.50759E+01  1.554E-01  2.000E+01  2.000E+04 -6.563E-02
   1   16    9     1     9    1.1337E+05 -1.2481E+03   1.1462E+05  0.000E+00  0.000E+00  0.000E+00  4.45997E+01  1.565E-01  2.000E+01  2.000E+04 -6.240E-02
   1   16   10     1    10    1.1462E+05 -1.1521E+03   1.1577E+05  0.000E+00  0.000E+00  0.000E+00  4.41234E+01  1.575E-01  2.000E+01  2.000E+04 -5.760E-02
   1   16   11     1    11    1.1577E+05 -1.0296E+03   1.1680E+05  0.000E+00  0.000E+00  0.000E+00  4.36470E+01  1.584E-01  2.000E+01  2.000E+04 -5.148E-02
   1   16   12     1    12    1.1680E+05 -1.4779E+03   1.1828E+05  0.000E+00  0.000E+00  0.000E+00  4.31707E+01  1.594E-01  2.000E+01  2.000E+04 -7.390E-02
   1   15   13     1    13    1.1828E+05 -1.3801E+03   1.1966E+05  0.000E+00  0.000E+00  0.000E+00  4.26946E+01  1.605E-01  2.000E+01  2.000E+04 -6.900E-02
   1   14   14     1    14    1.1966E+05 -1.6475E+03   1.2130E+05  0.000E+00  0.000E+00  0.000E+00  4.22186E+01  1.618E-01  2.000E+01  2.000E+04 -8.238E-02
   1   13   15     1    15    1.2130E+05 -1.8277E+03   1.2313E+05  0.000E+00  0.000E+00  0.000E+00  4.17427E+01  1.632E-01  2.000E+01  2.000E+04 -9.138E-02
   1   12   16     1    16    1.2313E+05 -1.8911E+03   1.2502E+05  0.000E+00  0.000E+00  0.000E+00  4.12669E+01  1.646E-01  2.000E+01  2.000E+04 -9.455E-02
   1   12   17     1    17    1.2502E+05 -1.2178E+03   1.2624E+05  0.000E+00  0.000E+00  0.000E+00  4.07909E+01  1.659E-01  2.000E+01  2.000E+04 -6.089E-02
   1   12   18     1    18    1.2624E+05 -1.3640E+03   1.2760E+05  0.000E+00  0.000E+00  0.000E+00  4.03146E+01  1.669E-01  2.000E+01  2.000E+04 -6.820E-02
   1   12   19     1    19    1.2760E+05 -2.0549E+03   1.2966E+05  0.000E+00  0.000E+00  0.000E+00  3.98387E+01  1.682E-01  2.000E+01  2.000E+04 -1.027E-01
   1   13   20     1    20    1.2966E+05 -1.6396E+03   1.3130E+05  0.000E+00  0.000E+00  0.000E+00  3.93629E+01  1.697E-01  2.000E+01  2.000E+04 -8.198E-02
   1   14   21     1    21    1.3130E+05 -1.6067E+03   1.3291E+05  0.000E+00  0.000E+00  0.000E+00  3.88869E+01  1.710E-01  2.000E+01  2.000E+04 -8.033E-02
   1   14   22     1    22    1.3291E+05  4.9055E+03   1.2800E+05  0.000E+00  0.000E+00  0.000E+00  3.84083E+01  1.697E-01  2.000E+01  2.000E+04  2.453E-01
   1    9   30     2     1    5.0000E+04 -4.9119E+02   5.0491E+04  0.000E+00  0.000E+00  0.000E+00  4.02412E+01  1.162E-01  2.000E+01  2.000E+04 -2.456E-02
   1    9   29     2     2    5.0491E+04 -6.7840E+02   5.1170E+04  0.000E+00  0.000E+00  0.000E+00  3.99920E+01  1.170E-01  2.000E+01  2.000E+04 -3.392E-02
   1    9   28     2     3    5.1170E+04 -5.8890E+02   5.1758E+04  0.000E+00  0.000E+00  0.000E+00  3.97429E+01  1.179E-01  2.000E+01  2.000E+04 -2.944E-02
   1    9   27     2     4    5.1758E+04  6.2853E+01   5.1696E+04  0.000E+00  0.000E+00  0.000E+00  3.94933E+01  1.183E-01  2.000E+01  2.000E+04  3.143E-03
   1   10   26     2     5    5.1696E+04 -1.2993E+02   5.1826E+04  0.000E+00  0.000E+00  0.000E+00  3.92433E+01  1.183E-01  2.000E+01  2.000E+04 -6.497E-03
   1   11   25     2     6    5.1826E+04 -1.0105E+03   5.2836E+04  0.000E+00  0.000E+00  0.000E+00  3.89941E+01  1.191E-01  2.000E+01  2.000E+04 -5.053E-02
   1   12   24     2     7    5.2836E+04 -1.3481E+03   5.4184E+04  0.000E+00  0.000E+00  0.000E+00  3.87457E+01  1.207E-01  2.000E+01  2.000E+04 -6.741E-02
   1   13   23     2     8    5.4184E+04 -2.0973E+02   5.4394E+04  0.000E+00  0.000E+00  0.000E+00  3.84967E+01  1.217E-01  2.000E+01  2.000E+04 -1.049E-02
   1   14   22     2     9    5.4394E+04  1.6546E+03   5.2739E+04  0.000E+00  0.000E+00  0.000E+00  3.82458E+01  1.208E-01  2.000E+01  2.000E+04  8.273E-02
   1   14   22     3     1    1.8074E+05 -8.6761E+03   1.8942E+05  0.000E+00  0.000E+00  0.000E+00  3.77292E+01  1.737E-01  2.000E+01  2.000E+04 -4.338E-01
   1   15   23     3     2    1.8942E+05 -5.6803E+02   1.8998E+05  0.000E+00  0.000E+00  0.000E+00  3.68429E+01  1.763E-01  2.000E+01  2.000E+04 -2.840E-02
   1   15   24     3     3    1.8998E+05 -3.2160E+02   1.9030E+05  0.000E+00  0.000E+00  0.000E+00  3.59543E+01  1.765E-01  2.000E+01  2.000E+04 -1.608E-02
   1   15   25     3     4    1.9030E+05 -3.2040E+02   1.9063E+05  0.000E+00  0.000E+00  0.000E+00  3.50656E+01  1.767E-01  2.000E+01  2.000E+04 -1.602E-02
   1   15   26     3     5    1.9063E+05 -3.6264E+02   1.9099E+05  0.000E+00  0.000E+00  0.000E+00  3.41769E+01  1.769E-01  2.000E+01  2.000E+04 -1.813E-02
   1   16   27     3     6    1.9099E+05 -4.2177E+02   1.9141E+05  0.000E+00  0.000E+00  0.000E+00  3.32882E+01  1.771E-01  2.000E+01  2.000E+04 -2.109E-02
   1   17   28     3     7    1.9141E+05 -1.7930E+03   1.9320E+05  0.000E+00  0.000E+00  0.000E+00  3.23999E+01  1.777E-01  2.000E+01  2.000E+04 -8.965E-02
   1   18   29     3     8    1.9320E+05 -3.4202E+03   1.9662E+05  0.000E+00  0.000E+00  0.000E+00  3.15125E+01  1.791E-01  2.000E+01  2.000E+04 -1.710E-01
   1   18   30     3     9    1.9662E+05 -3.4783E+03   2.0010E+05  0.000E+00  0.000E+00  0.000E+00  3.06255E+01  1.810E-01  2.000E+01  2.000E+04 -1.739E-01



1
              HEAD IN LAYER   1 AT END OF TIME STEP   1 IN STRESS PERIOD    3
  ---------------------------------------------------------------------------

          1      2      3      4      5      6      7      8      9     10
         11     12     13     14     15     16     17     18     19     20
         21     22     23     24     25     26     27     28     29     30
 .........................................................................
   1  ****** ****** ****** ****** ****** ****** ****** ****** ****** ******
      ****** ****** ****** ****** ****** ****** ****** ****** ****** ******
      ****** ****** ****** ****** ****** ****** ****** ****** ****** ******
   2  ****** ****** ****** ****** ****** ****** ****** ****** ****** ******
      ****** ****** ****** ****** ****** ****** ****** ****** ****** ******
      ****** ****** ****** ****** ****** ****** ****** ****** ****** ******
   3  ****** ****** ****** ****** ****** ****** ****** ****** ****** ******
      ****** ****** ****** ****** ****** ****** ****** ****** ****** ******
      ****** ****** ****** ****** ****** ****** ****** ****** ****** ******
   4  ****** ****** ****** ****** ****** ****** ****** ****** ****** ******
      ****** ****** ****** ****** ****** ****** ****** ****** ****** ******
      ****** ****** ****** ****** ****** ****** ****** ****** ****** ******
   5  ****** ****** ****** ****** ****** ****** ****** ****** ****** ******
      ****** ****** ****** ****** ****** ****** ****** ****** ****** ******
      ****** ****** ****** ****** ****** ****** ****** ****** ****** ******
   6  ****** ****** ****** ****** ****** ****** ****** ****** ****** ******
      ****** ****** ****** ****** ****** ****** ****** ****** ****** ******
      ****** ****** ****** ****** ****** ****** ****** ****** ****** ******
   7  ****** ****** ****** ****** ****** ****** ****** ****** ****** ******
      ****** ****** ****** ****** ****** ****** ****** ****** ****** ******
      ****** ****** ****** ****** ****** ****** ****** ****** ****** ******
   8  ****** ****** ****** ****** ****** ****** ****** ****** ****** ******
      ****** ****** ****** ****** ****** ****** ****** ****** ****** ******
      ****** ****** ****** ****** ****** ****** ****** ****** ****** ******
   9  ****** ****** ****** ****** ****** ****** ****** ****** ****** ******
      ****** ****** ****** ****** ****** ****** ****** ****** ****** ******
      ****** ****** ****** ****** ****** ****** ****** ****** ****** ******
  10  ****** ****** ****** ****** ****** ****** ****** ****** ****** ******
      ****** ****** ****** ****** ****** ****** ****** ****** ****** ******
      ****** ****** ****** ****** ****** ****** ****** ****** ****** ******
  11  ****** ****** ****** ****** ****** ****** ****** ****** ****** ******
      ****** ****** ****** ****** ****** ****** ****** ****** ****** ******
      ****** ****** ****** ****** ****** ****** ****** ****** ****** ******
  12  ****** ****** ****** ****** ****** ****** ****** ****** ****** ******
      ****** ****** ****** ****** ****** ****** ****** ****** ****** ******
      ****** ****** ****** ****** ****** ****** ****** ****** ****** ******
  13  ****** ****** ****** ****** ****** ****** ****** ****** ****** ******
      ****** ****** ****** ****** ****** ****** ****** ****** ****** ******
      ****** ****** ****** ****** ****** ****** ****** ****** ****** ******
  14  ****** ****** ****** ****** ****** ****** ****** ****** ****** ******
      ****** ****** ****** ****** ****** ****** ****** ****** ****** ******
      ****** ****** ****** ****** ****** ****** ****** ****** ****** ******
  15  ****** ****** ****** ****** ****** ****** ****** ****** ****** ******
      ****** ****** ****** ****** ****** ****** ****** ****** ****** ******
      ****** ****** ****** ****** ****** ****** ****** ****** ****** ******
  16  ****** ****** ****** ****** ****** ****** ****** ****** ****** ******
      ****** ****** ****** ****** ****** ****** ****** ****** ****** ******
      ****** ****** ****** ****** ****** ****** ****** ****** ****** ******
  17  ****** ****** ****** ****** ****** ****** ****** ****** ****** ******
      ****** ****** ****** ****** ****** ****** ****** ****** ****** ******
      ****** ****** ****** ****** ****** ****** ****** ****** ****** ******
  18  ****** ****** ****** ****** ****** ****** ****** ****** ****** ******
      ****** ****** ****** ****** ****** ****** ****** ****** ****** ******
      ****** ****** ****** ****** ****** ****** ****** ****** ****** ******
  19  ****** ****** ****** ****** ****** ****** ****** ****** ****** ******
      ****** ****** ****** ****** ****** ****** ****** ****** ****** ******
      ****** ****** ****** ****** ****** ****** ****** ****** ****** ******
  20  ****** ****** ****** ****** ****** ****** ****** ****** ****** ******
      ****** ****** ****** ****** ****** ****** ****** ****** ****** ******
      ****** ****** ****** ****** ****** ****** ****** ****** ****** ******
  21  ****** ****** ****** ****** ****** ****** ****** ****** ****** ******
      ****** ****** ****** ****** ****** ****** ****** ****** ****** ******
      ****** ****** ****** ****** ****** ****** ****** ****** ****** ******
  22  ****** ****** ****** ****** ****** ****** ****** ****** ****** ******
      ****** ****** ****** ****** ****** ****** ****** ****** ****** ******
      ****** ****** ****** ****** ****** ****** ****** ****** ****** ******
  23  ****** ****** ****** ****** ****** ****** ****** ****** ****** ******
      ****** ****** ****** ****** ****** ****** ****** ****** ****** ******
      ****** ****** ****** ****** ****** ****** ****** ****** ****** ******
  24  ****** ****** ****** ****** ****** ****** ****** ****** ****** ******
      ****** ****** ****** ****** ****** ****** ****** ****** ****** ******
      ****** ****** ****** ****** ****** ****** ****** ****** ****** ******
  25  ****** ****** ****** ****** ****** ****** ****** ****** ****** ******
      ****** ****** ****** ****** ****** ****** ****** ****** ****** ******
      ****** ****** ****** ****** ****** ****** ****** ****** ****** ******

 HEAD WILL BE SAVED ON UNIT   51 AT END OF TIME STEP    1, STRESS PERIOD    3
1
  VOLUMETRIC BUDGET FOR ENTIRE MODEL AT END OF TIME STEP    1, STRESS PERIOD   3
  ------------------------------------------------------------------------------

     CUMULATIVE VOLUMES      L**3       RATES FOR THIS TIME STEP      L**3/T
     ------------------                 ------------------------

           IN:                                      IN:
           ---                                      ---
             STORAGE =    29203367.2233               STORAGE =       59285.4140
       CONSTANT HEAD =     5399632.2513         CONSTANT HEAD =       27538.6335
               WELLS =           0.0000                 WELLS =           0.0000
            RECHARGE =     6292800.0000              RECHARGE =           0.0000
      STREAM LEAKAGE =     1481504.4601        STREAM LEAKAGE =        6623.0020

            TOTAL IN =    42377303.9347              TOTAL IN =       93447.0494

          OUT:                                     OUT:
          ----                                     ----
             STORAGE =           0.0000               STORAGE =           0.0000
       CONSTANT HEAD =           0.0000         CONSTANT HEAD =           0.0000
               WELLS =    10062085.8590                 WELLS =       36722.9411
            RECHARGE =           0.0000              RECHARGE =           0.0000
      STREAM LEAKAGE =    32315220.0808        STREAM LEAKAGE =       56724.1162

           TOTAL OUT =    42377305.9398             TOTAL OUT =       93447.0573

            IN - OUT =          -2.0051              IN - OUT =      -7.8983E-03

 PERCENT DISCREPANCY =          -0.00     PERCENT DISCREPANCY =          -0.00






         TIME SUMMARY AT END OF TIME STEP    1 IN STRESS PERIOD    3
                    SECONDS     MINUTES      HOURS       DAYS        YEARS
                    -----------------------------------------------------------
   TIME STEP LENGTH 7.86240E+06 1.31040E+05  2184.0      91.000     0.24914    
 STRESS PERIOD TIME 7.86240E+06 1.31040E+05  2184.0      91.000     0.24914    
         TOTAL TIME 2.36736E+07 3.94560E+05  6576.0      274.00     0.75017    
1
1
                            STRESS PERIOD NO.    4, LENGTH =   91.00000    
                            -----------------------------------------------

                              NUMBER OF TIME STEPS =     1

                               MULTIPLIER FOR DELT =     1.500

                            INITIAL TIME STEP SIZE =   91.00000    

 WELL NO.  LAYER   ROW   COL   STRESS RATE         
 --------------------------------------------------
      1      1     19     16      -9509.    
      2      1      8     26      -9882.    
      3      1      9     16      -9755.    
      4      1      5      7      -7576.    

      4 WELLS

                 RECHARGE =  1.000000E-03

 REUSING STREAM SEGMENT DATA FROM LAST STRESS PERIOD
 
 SOLVING FOR HEAD 


     6 CALLS TO PCG ROUTINE FOR TIME STEP   1 IN STRESS PERIOD    4
    23 TOTAL ITERATIONS

 OUTPUT CONTROL FOR STRESS PERIOD    4   TIME STEP    1
    SAVE BUDGET
    SAVE HEAD FOR ALL LAYERS
    PRINT HEAD FOR ALL LAYERS
 UBDSV2 SAVING "STREAMFLOW OUT  " ON UNIT  50 AT TIME STEP  1, STRESS PERIOD   4



 STREAM LISTING     PERIOD      4   STEP        1

 LAYER ROW COL. STREAM  RCH.  FLOW INTO     FLOW TO   FLOW OUT OF   OVRLND.     DIRECT     STREAM       STREAM     STREAM     STREAM   STREAMBED  STREAMBED
                SEG.NO.  NO.  STRM. RCH.    AQUIFER    STRM. RCH.    RUNOFF     PRECIP       ET          HEAD       DEPTH      WIDTH   CONDCTNC.   GRADIENT

   1   13    1     1     1    1.0000E+05 -1.9685E+03   1.0197E+05  0.000E+00  0.000E+00  0.000E+00  4.84069E+01  1.455E-01  2.000E+01  2.000E+04 -9.842E-02
   1   13    2     1     2    1.0197E+05 -3.0005E+03   1.0497E+05  0.000E+00  0.000E+00  0.000E+00  4.79317E+01  1.476E-01  2.000E+01  2.000E+04 -1.500E-01
   1   14    3     1     3    1.0497E+05 -5.8106E+02   1.0555E+05  0.000E+00  0.000E+00  0.000E+00  4.74560E+01  1.492E-01  2.000E+01  2.000E+04 -2.905E-02
   1   15    4     1     4    1.0555E+05 -5.6598E+02   1.0612E+05  0.000E+00  0.000E+00  0.000E+00  4.69792E+01  1.497E-01  2.000E+01  2.000E+04 -2.830E-02
   1   16    5     1     5    1.0612E+05 -2.0283E+03   1.0814E+05  0.000E+00  0.000E+00  0.000E+00  4.65030E+01  1.508E-01  2.000E+01  2.000E+04 -1.014E-01
   1   16    6     1     6    1.0814E+05 -1.2520E+03   1.0940E+05  0.000E+00  0.000E+00  0.000E+00  4.60271E+01  1.521E-01  2.000E+01  2.000E+04 -6.260E-02
   1   16    7     1     7    1.0940E+05 -1.2038E+03   1.1060E+05  0.000E+00  0.000E+00  0.000E+00  4.55509E+01  1.532E-01  2.000E+01  2.000E+04 -6.019E-02
   1   16    8     1     8    1.1060E+05 -1.1623E+03   1.1176E+05  0.000E+00  0.000E+00  0.000E+00  4.50746E+01  1.541E-01  2.000E+01  2.000E+04 -5.811E-02
   1   16    9     1     9    1.1176E+05 -1.0992E+03   1.1286E+05  0.000E+00  0.000E+00  0.000E+00  4.45983E+01  1.551E-01  2.000E+01  2.000E+04 -5.496E-02
   1   16   10     1    10    1.1286E+05 -1.0054E+03   1.1387E+05  0.000E+00  0.000E+00  0.000E+00  4.41219E+01  1.560E-01  2.000E+01  2.000E+04 -5.027E-02
   1   16   11     1    11    1.1387E+05 -8.8089E+02   1.1475E+05  0.000E+00  0.000E+00  0.000E+00  4.36454E+01  1.567E-01  2.000E+01  2.000E+04 -4.404E-02
   1   16   12     1    12    1.1475E+05 -1.1635E+03   1.1591E+05  0.000E+00  0.000E+00  0.000E+00  4.31689E+01  1.576E-01  2.000E+01  2.000E+04 -5.817E-02
   1   15   13     1    13    1.1591E+05 -1.0719E+03   1.1698E+05  0.000E+00  0.000E+00  0.000E+00  4.26926E+01  1.585E-01  2.000E+01  2.000E+04 -5.359E-02
   1   14   14     1    14    1.1698E+05 -1.3039E+03   1.1829E+05  0.000E+00  0.000E+00  0.000E+00  4.22163E+01  1.595E-01  2.000E+01  2.000E+04 -6.519E-02
   1   13   15     1    15    1.1829E+05 -1.4474E+03   1.1973E+05  0.000E+00  0.000E+00  0.000E+00  4.17401E+01  1.606E-01  2.000E+01  2.000E+04 -7.237E-02
   1   12   16     1    16    1.1973E+05 -1.3930E+03   1.2113E+05  0.000E+00  0.000E+00  0.000E+00  4.12640E+01  1.617E-01  2.000E+01  2.000E+04 -6.965E-02
   1   12   17     1    17    1.2113E+05 -9.2466E+02   1.2205E+05  0.000E+00  0.000E+00  0.000E+00  4.07877E+01  1.627E-01  2.000E+01  2.000E+04 -4.623E-02
   1   12   18     1    18    1.2205E+05 -1.0957E+03   1.2315E+05  0.000E+00  0.000E+00  0.000E+00  4.03112E+01  1.635E-01  2.000E+01  2.000E+04 -5.478E-02
   1   12   19     1    19    1.2315E+05 -1.7265E+03   1.2487E+05  0.000E+00  0.000E+00  0.000E+00  3.98350E+01  1.646E-01  2.000E+01  2.000E+04 -8.632E-02
   1   13   20     1    20    1.2487E+05 -1.4304E+03   1.2630E+05  0.000E+00  0.000E+00  0.000E+00  3.93590E+01  1.658E-01  2.000E+01  2.000E+04 -7.152E-02
   1   14   21     1    21    1.2630E+05 -1.3417E+03   1.2765E+05  0.000E+00  0.000E+00  0.000E+00  3.88828E+01  1.669E-01  2.000E+01  2.000E+04 -6.708E-02
   1   14   22     1    22    1.2765E+05  4.9449E+03   1.2270E+05  0.000E+00  0.000E+00  0.000E+00  3.84041E+01  1.655E-01  2.000E+01  2.000E+04  2.472E-01
   1    9   30     2     1    5.0000E+04 -3.8364E+02   5.0384E+04  0.000E+00  0.000E+00  0.000E+00  4.02411E+01  1.161E-01  2.000E+01  2.000E+04 -1.918E-02
   1    9   29     2     2    5.0384E+04 -5.6268E+02   5.0946E+04  0.000E+00  0.000E+00  0.000E+00  3.99918E+01  1.168E-01  2.000E+01  2.000E+04 -2.813E-02
   1    9   28     2     3    5.0946E+04 -4.4974E+02   5.1396E+04  0.000E+00  0.000E+00  0.000E+00  3.97425E+01  1.175E-01  2.000E+01  2.000E+04 -2.249E-02
   1    9   27     2     4    5.1396E+04  3.7552E+02   5.1021E+04  0.000E+00  0.000E+00  0.000E+00  3.94925E+01  1.175E-01  2.000E+01  2.000E+04  1.878E-02
   1   10   26     2     5    5.1021E+04  6.1294E+01   5.0959E+04  0.000E+00  0.000E+00  0.000E+00  3.92422E+01  1.172E-01  2.000E+01  2.000E+04  3.065E-03
   1   11   25     2     6    5.0959E+04 -8.6305E+02   5.1822E+04  0.000E+00  0.000E+00  0.000E+00  3.89928E+01  1.178E-01  2.000E+01  2.000E+04 -4.315E-02
   1   12   24     2     7    5.1822E+04 -1.2187E+03   5.3041E+04  0.000E+00  0.000E+00  0.000E+00  3.87442E+01  1.192E-01  2.000E+01  2.000E+04 -6.093E-02
   1   13   23     2     8    5.3041E+04 -2.3043E+02   5.3271E+04  0.000E+00  0.000E+00  0.000E+00  3.84952E+01  1.202E-01  2.000E+01  2.000E+04 -1.152E-02
   1   14   22     2     9    5.3271E+04  1.7453E+03   5.1526E+04  0.000E+00  0.000E+00  0.000E+00  3.82442E+01  1.192E-01  2.000E+01  2.000E+04  8.727E-02
   1   14   22     3     1    1.7423E+05 -8.6278E+03   1.8286E+05  0.000E+00  0.000E+00  0.000E+00  3.77255E+01  1.700E-01  2.000E+01  2.000E+04 -4.314E-01
   1   15   23     3     2    1.8286E+05 -5.3839E+02   1.8339E+05  0.000E+00  0.000E+00  0.000E+00  3.68392E+01  1.726E-01  2.000E+01  2.000E+04 -2.692E-02
   1   15   24     3     3    1.8339E+05 -3.1866E+02   1.8371E+05  0.000E+00  0.000E+00  0.000E+00  3.59506E+01  1.728E-01  2.000E+01  2.000E+04 -1.593E-02
   1   15   25     3     4    1.8371E+05 -3.1805E+02   1.8403E+05  0.000E+00  0.000E+00  0.000E+00  3.50619E+01  1.730E-01  2.000E+01  2.000E+04 -1.590E-02
   1   15   26     3     5    1.8403E+05 -3.7085E+02   1.8440E+05  0.000E+00  0.000E+00  0.000E+00  3.41732E+01  1.732E-01  2.000E+01  2.000E+04 -1.854E-02
   1   16   27     3     6    1.8440E+05 -4.2045E+02   1.8482E+05  0.000E+00  0.000E+00  0.000E+00  3.32845E+01  1.734E-01  2.000E+01  2.000E+04 -2.102E-02
   1   17   28     3     7    1.8482E+05 -1.7226E+03   1.8654E+05  0.000E+00  0.000E+00  0.000E+00  3.23962E+01  1.740E-01  2.000E+01  2.000E+04 -8.613E-02
   1   18   29     3     8    1.8654E+05 -3.1871E+03   1.8973E+05  0.000E+00  0.000E+00  0.000E+00  3.15087E+01  1.754E-01  2.000E+01  2.000E+04 -1.594E-01
   1   18   30     3     9    1.8973E+05 -3.3611E+03   1.9309E+05  0.000E+00  0.000E+00  0.000E+00  3.06217E+01  1.772E-01  2.000E+01  2.000E+04 -1.681E-01



1
              HEAD IN LAYER   1 AT END OF TIME STEP   1 IN STRESS PERIOD    4
  ---------------------------------------------------------------------------

          1      2      3      4      5      6      7      8      9     10
         11     12     13     14     15     16     17     18     19     20
         21     22     23     24     25     26     27     28     29     30
 .........................................................................
   1  ****** ****** ****** ****** ****** ****** ****** ****** ****** ******
      ****** ****** ****** ****** ****** ****** ****** ****** ****** ******
      ****** ****** ****** ****** ****** ****** ****** ****** ****** ******
   2  ****** ****** ****** ****** ****** ****** ****** ****** ****** ******
      ****** ****** ****** ****** ****** ****** ****** ****** ****** ******
      ****** ****** ****** ****** ****** ****** ****** ****** ****** ******
   3  ****** ****** ****** ****** ****** ****** ****** ****** ****** ******
      ****** ****** ****** ****** ****** ****** ****** ****** ****** ******
      ****** ****** ****** ****** ****** ****** ****** ****** ****** ******
   4  ****** ****** ****** ****** ****** ****** ****** ****** ****** ******
      ****** ****** ****** ****** ****** ****** ****** ****** ****** ******
      ****** ****** ****** ****** ****** ****** ****** ****** ****** ******
   5  ****** ****** ****** ****** ****** ****** ****** ****** ****** ******
      ****** ****** ****** ****** ****** ****** ****** ****** ****** ******
      ****** ****** ****** ****** ****** ****** ****** ****** ****** ******
   6  ****** ****** ****** ****** ****** ****** ****** ****** ****** ******
      ****** ****** ****** ****** ****** ****** ****** ****** ****** ******
      ****** ****** ****** ****** ****** ****** ****** ****** ****** ******
   7  ****** ****** ****** ****** ****** ****** ****** ****** ****** ******
      ****** ****** ****** ****** ****** ****** ****** ****** ****** ******
      ****** ****** ****** ****** ****** ****** ****** ****** ****** ******
   8  ****** ****** ****** ****** ****** ****** ****** ****** ****** ******
      ****** ****** ****** ****** ****** ****** ****** ****** ****** ******
      ****** ****** ****** ****** ****** ****** ****** ****** ****** ******
   9  ****** ****** ****** ****** ****** ****** ****** ****** ****** ******
      ****** ****** ****** ****** ****** ****** ****** ****** ****** ******
      ****** ****** ****** ****** ****** ****** ****** ****** ****** ******
  10  ****** ****** ****** ****** ****** ****** ****** ****** ****** ******
      ****** ****** ****** ****** ****** ****** ****** ****** ****** ******
      ****** ****** ****** ****** ****** ****** ****** ****** ****** ******
  11  ****** ****** ****** ****** ****** ****** ****** ****** ****** ******
      ****** ****** ****** ****** ****** ****** ****** ****** ****** ******
      ****** ****** ****** ****** ****** ****** ****** ****** ****** ******
  12  ****** ****** ****** ****** ****** ****** ****** ****** ****** ******
      ****** ****** ****** ****** ****** ****** ****** ****** ****** ******
      ****** ****** ****** ****** ****** ****** ****** ****** ****** ******
  13  ****** ****** ****** ****** ****** ****** ****** ****** ****** ******
      ****** ****** ****** ****** ****** ****** ****** ****** ****** ******
      ****** ****** ****** ****** ****** ****** ****** ****** ****** ******
  14  ****** ****** ****** ****** ****** ****** ****** ****** ****** ******
      ****** ****** ****** ****** ****** ****** ****** ****** ****** ******
      ****** ****** ****** ****** ****** ****** ****** ****** ****** ******
  15  ****** ****** ****** ****** ****** ****** ****** ****** ****** ******
      ****** ****** ****** ****** ****** ****** ****** ****** ****** ******
      ****** ****** ****** ****** ****** ****** ****** ****** ****** ******
  16  ****** ****** ****** ****** ****** ****** ****** ****** ****** ******
      ****** ****** ****** ****** ****** ****** ****** ****** ****** ******
      ****** ****** ****** ****** ****** ****** ****** ****** ****** ******
  17  ****** ****** ****** ****** ****** ****** ****** ****** ****** ******
      ****** ****** ****** ****** ****** ****** ****** ****** ****** ******
      ****** ****** ****** ****** ****** ****** ****** ****** ****** ******
  18  ****** ****** ****** ****** ****** ****** ****** ****** ****** ******
      ****** ****** ****** ****** ****** ****** ****** ****** ****** ******
      ****** ****** ****** ****** ****** ****** ****** ****** ****** ******
  19  ****** ****** ****** ****** ****** ****** ****** ****** ****** ******
      ****** ****** ****** ****** ****** ****** ****** ****** ****** ******
      ****** ****** ****** ****** ****** ****** ****** ****** ****** ******
  20  ****** ****** ****** ****** ****** ****** ****** ****** ****** ******
      ****** ****** ****** ****** ****** ****** ****** ****** ****** ******
      ****** ****** ****** ****** ****** ****** ****** ****** ****** ******
  21  ****** ****** ****** ****** ****** ****** ****** ****** ****** ******
      ****** ****** ****** ****** ****** ****** ****** ****** ****** ******
      ****** ****** ****** ****** ****** ****** ****** ****** ****** ******
  22  ****** ****** ****** ****** ****** ****** ****** ****** ****** ******
      ****** ****** ****** ****** ****** ****** ****** ****** ****** ******
      ****** ****** ****** ****** ****** ****** ****** ****** ****** ******
  23  ****** ****** ****** ****** ****** ****** ****** ****** ****** ******
      ****** ****** ****** ****** ****** ****** ****** ****** ****** ******
      ****** ****** ****** ****** ****** ****** ****** ****** ****** ******
  24  ****** ****** ****** ****** ****** ****** ****** ****** ****** ******
      ****** ****** ****** ****** ****** ****** ****** ****** ****** ******
      ****** ****** ****** ****** ****** ****** ****** ****** ****** ******
  25  ****** ****** ****** ****** ****** ****** ****** ****** ****** ******
      ****** ****** ****** ****** ****** ****** ****** ****** ****** ******
      ****** ****** ****** ****** ****** ****** ****** ****** ****** ******

 HEAD WILL BE SAVED ON UNIT   51 AT END OF TIME STEP    1, STRESS PERIOD    4
1
  VOLUMETRIC BUDGET FOR ENTIRE MODEL AT END OF TIME STEP    1, STRESS PERIOD   4
  ------------------------------------------------------------------------------

     CUMULATIVE VOLUMES      L**3       RATES FOR THIS TIME STEP      L**3/T
     ------------------                 ------------------------

           IN:                                      IN:
           ---                                      ---
             STORAGE =    31176582.2869               STORAGE =       21683.6820
       CONSTANT HEAD =     8179183.1784         CONSTANT HEAD =       30544.5157
               WELLS =           0.0000                 WELLS =           0.0000
            RECHARGE =     8804400.0000              RECHARGE =       27600.0000
      STREAM LEAKAGE =     2130066.8004        STREAM LEAKAGE =        7127.0587

            TOTAL IN =    50290232.2657              TOTAL IN =       86955.2564

          OUT:                                     OUT:
          ----                                     ----
             STORAGE =        1154.2103               STORAGE =          12.6836
       CONSTANT HEAD =           0.0000         CONSTANT HEAD =           0.0000
               WELLS =    13403873.4983                 WELLS =       36722.9411
            RECHARGE =           0.0000              RECHARGE =           0.0000
      STREAM LEAKAGE =    36885206.6603        STREAM LEAKAGE =       50219.6327

           TOTAL OUT =    50290234.3689             TOTAL OUT =       86955.2575

            IN - OUT =          -2.1032              IN - OUT =      -1.0786E-03

 PERCENT DISCREPANCY =          -0.00     PERCENT DISCREPANCY =          -0.00






         TIME SUMMARY AT END OF TIME STEP    1 IN STRESS PERIOD    4
                    SECONDS     MINUTES      HOURS       DAYS        YEARS
                    -----------------------------------------------------------
   TIME STEP LENGTH 7.86240E+06 1.31040E+05  2184.0      91.000     0.24914    
 STRESS PERIOD TIME 7.86240E+06 1.31040E+05  2184.0      91.000     0.24914    
         TOTAL TIME 3.15360E+07 5.25600E+05  8760.0      365.00     0.99932    
1
1
                            STRESS PERIOD NO.    5, LENGTH =   92.00000    
                            -----------------------------------------------

                              NUMBER OF TIME STEPS =     1

                               MULTIPLIER FOR DELT =     1.500

                            INITIAL TIME STEP SIZE =   92.00000    

 WELL NO.  LAYER   ROW   COL   STRESS RATE         
 --------------------------------------------------
      1      1     19     16      -9509.    
      2      1      8     26      -9882.    
      3      1      9     16      -9755.    
      4      1      5      7      -7576.    

      4 WELLS

                 RECHARGE =  5.000000E-04

 REUSING STREAM SEGMENT DATA FROM LAST STRESS PERIOD
 
 SOLVING FOR HEAD 


     7 CALLS TO PCG ROUTINE FOR TIME STEP   1 IN STRESS PERIOD    5
    26 TOTAL ITERATIONS

 OUTPUT CONTROL FOR STRESS PERIOD    5   TIME STEP    1
    SAVE BUDGET
    SAVE HEAD FOR ALL LAYERS
    PRINT HEAD FOR ALL LAYERS
 UBDSV2 SAVING "STREAMFLOW OUT  " ON UNIT  50 AT TIME STEP  1, STRESS PERIOD   5



 STREAM LISTING     PERIOD      5   STEP        1

 LAYER ROW COL. STREAM  RCH.  FLOW INTO     FLOW TO   FLOW OUT OF   OVRLND.     DIRECT     STREAM       STREAM     STREAM     STREAM   STREAMBED  STREAMBED
                SEG.NO.  NO.  STRM. RCH.    AQUIFER    STRM. RCH.    RUNOFF     PRECIP       ET          HEAD       DEPTH      WIDTH   CONDCTNC.   GRADIENT

   1   13    1     1     1    1.0000E+05 -1.4766E+03   1.0148E+05  0.000E+00  0.000E+00  0.000E+00  4.84067E+01  1.453E-01  2.000E+01  2.000E+04 -7.383E-02
   1   13    2     1     2    1.0148E+05 -2.4445E+03   1.0392E+05  0.000E+00  0.000E+00  0.000E+00  4.79311E+01  1.470E-01  2.000E+01  2.000E+04 -1.222E-01
   1   14    3     1     3    1.0392E+05 -4.4861E+02   1.0437E+05  0.000E+00  0.000E+00  0.000E+00  4.74550E+01  1.482E-01  2.000E+01  2.000E+04 -2.243E-02
   1   15    4     1     4    1.0437E+05 -4.2940E+02   1.0480E+05  0.000E+00  0.000E+00  0.000E+00  4.69781E+01  1.486E-01  2.000E+01  2.000E+04 -2.147E-02
   1   16    5     1     5    1.0480E+05 -1.5852E+03   1.0638E+05  0.000E+00  0.000E+00  0.000E+00  4.65017E+01  1.495E-01  2.000E+01  2.000E+04 -7.926E-02
   1   16    6     1     6    1.0638E+05 -9.8959E+02   1.0737E+05  0.000E+00  0.000E+00  0.000E+00  4.60255E+01  1.505E-01  2.000E+01  2.000E+04 -4.948E-02
   1   16    7     1     7    1.0737E+05 -9.5119E+02   1.0833E+05  0.000E+00  0.000E+00  0.000E+00  4.55491E+01  1.514E-01  2.000E+01  2.000E+04 -4.756E-02
   1   16    8     1     8    1.0833E+05 -9.1293E+02   1.0924E+05  0.000E+00  0.000E+00  0.000E+00  4.50726E+01  1.521E-01  2.000E+01  2.000E+04 -4.565E-02
   1   16    9     1     9    1.0924E+05 -8.5278E+02   1.1009E+05  0.000E+00  0.000E+00  0.000E+00  4.45961E+01  1.529E-01  2.000E+01  2.000E+04 -4.264E-02
   1   16   10     1    10    1.1009E+05 -7.6263E+02   1.1085E+05  0.000E+00  0.000E+00  0.000E+00  4.41195E+01  1.536E-01  2.000E+01  2.000E+04 -3.813E-02
   1   16   11     1    11    1.1085E+05 -6.3785E+02   1.1149E+05  0.000E+00  0.000E+00  0.000E+00  4.36428E+01  1.541E-01  2.000E+01  2.000E+04 -3.189E-02
   1   16   12     1    12    1.1149E+05 -7.2366E+02   1.1221E+05  0.000E+00  0.000E+00  0.000E+00  4.31661E+01  1.547E-01  2.000E+01  2.000E+04 -3.618E-02
   1   15   13     1    13    1.1221E+05 -5.9833E+02   1.1281E+05  0.000E+00  0.000E+00  0.000E+00  4.26893E+01  1.553E-01  2.000E+01  2.000E+04 -2.992E-02
   1   14   14     1    14    1.1281E+05 -7.9235E+02   1.1361E+05  0.000E+00  0.000E+00  0.000E+00  4.22126E+01  1.558E-01  2.000E+01  2.000E+04 -3.962E-02
   1   13   15     1    15    1.1361E+05 -9.0966E+02   1.1452E+05  0.000E+00  0.000E+00  0.000E+00  4.17361E+01  1.565E-01  2.000E+01  2.000E+04 -4.548E-02
   1   12   16     1    16    1.1452E+05 -7.9330E+02   1.1531E+05  0.000E+00  0.000E+00  0.000E+00  4.12595E+01  1.572E-01  2.000E+01  2.000E+04 -3.966E-02
   1   12   17     1    17    1.1531E+05 -5.3197E+02   1.1584E+05  0.000E+00  0.000E+00  0.000E+00  4.07828E+01  1.578E-01  2.000E+01  2.000E+04 -2.660E-02
   1   12   18     1    18    1.1584E+05 -7.2583E+02   1.1657E+05  0.000E+00  0.000E+00  0.000E+00  4.03060E+01  1.583E-01  2.000E+01  2.000E+04 -3.629E-02
   1   12   19     1    19    1.1657E+05 -1.2802E+03   1.1785E+05  0.000E+00  0.000E+00  0.000E+00  3.98296E+01  1.591E-01  2.000E+01  2.000E+04 -6.401E-02
   1   13   20     1    20    1.1785E+05 -1.0532E+03   1.1890E+05  0.000E+00  0.000E+00  0.000E+00  3.93532E+01  1.601E-01  2.000E+01  2.000E+04 -5.266E-02
   1   14   21     1    21    1.1890E+05 -9.4498E+02   1.1984E+05  0.000E+00  0.000E+00  0.000E+00  3.88768E+01  1.609E-01  2.000E+01  2.000E+04 -4.725E-02
   1   14   22     1    22    1.1984E+05  5.0259E+03   1.1482E+05  0.000E+00  0.000E+00  0.000E+00  3.83978E+01  1.592E-01  2.000E+01  2.000E+04  2.513E-01
   1    9   30     2     1    5.0000E+04 -1.4242E+02   5.0142E+04  0.000E+00  0.000E+00  0.000E+00  4.02410E+01  1.160E-01  2.000E+01  2.000E+04 -7.121E-03
   1    9   29     2     2    5.0142E+04 -3.1724E+02   5.0460E+04  0.000E+00  0.000E+00  0.000E+00  3.99913E+01  1.163E-01  2.000E+01  2.000E+04 -1.586E-02
   1    9   28     2     3    5.0460E+04 -1.9061E+02   5.0650E+04  0.000E+00  0.000E+00  0.000E+00  3.97416E+01  1.166E-01  2.000E+01  2.000E+04 -9.530E-03
   1    9   27     2     4    5.0650E+04  7.8961E+02   4.9861E+04  0.000E+00  0.000E+00  0.000E+00  3.94912E+01  1.162E-01  2.000E+01  2.000E+04  3.948E-02
   1   10   26     2     5    4.9861E+04  4.2105E+02   4.9440E+04  0.000E+00  0.000E+00  0.000E+00  3.92404E+01  1.154E-01  2.000E+01  2.000E+04  2.105E-02
   1   11   25     2     6    4.9440E+04 -5.3273E+02   4.9972E+04  0.000E+00  0.000E+00  0.000E+00  3.89905E+01  1.155E-01  2.000E+01  2.000E+04 -2.664E-02
   1   12   24     2     7    4.9972E+04 -9.1551E+02   5.0888E+04  0.000E+00  0.000E+00  0.000E+00  3.87415E+01  1.165E-01  2.000E+01  2.000E+04 -4.578E-02
   1   13   23     2     8    5.0888E+04 -1.5900E+02   5.1047E+04  0.000E+00  0.000E+00  0.000E+00  3.84922E+01  1.172E-01  2.000E+01  2.000E+04 -7.950E-03
   1   14   22     2     9    5.1047E+04  1.8891E+03   4.9158E+04  0.000E+00  0.000E+00  0.000E+00  3.82410E+01  1.160E-01  2.000E+01  2.000E+04  9.446E-02
   1   14   22     3     1    1.6398E+05 -8.5397E+03   1.7252E+05  0.000E+00  0.000E+00  0.000E+00  3.77196E+01  1.640E-01  2.000E+01  2.000E+04 -4.270E-01
   1   15   23     3     2    1.7252E+05 -4.3634E+02   1.7295E+05  0.000E+00  0.000E+00  0.000E+00  3.68333E+01  1.666E-01  2.000E+01  2.000E+04 -2.182E-02
   1   15   24     3     3    1.7295E+05 -2.4493E+02   1.7320E+05  0.000E+00  0.000E+00  0.000E+00  3.59446E+01  1.668E-01  2.000E+01  2.000E+04 -1.225E-02
   1   15   25     3     4    1.7320E+05 -2.4531E+02   1.7344E+05  0.000E+00  0.000E+00  0.000E+00  3.50558E+01  1.670E-01  2.000E+01  2.000E+04 -1.227E-02
   1   15   26     3     5    1.7344E+05 -2.9785E+02   1.7374E+05  0.000E+00  0.000E+00  0.000E+00  3.41671E+01  1.671E-01  2.000E+01  2.000E+04 -1.489E-02
   1   16   27     3     6    1.7374E+05 -3.2830E+02   1.7407E+05  0.000E+00  0.000E+00  0.000E+00  3.32784E+01  1.673E-01  2.000E+01  2.000E+04 -1.641E-02
   1   17   28     3     7    1.7407E+05 -1.4485E+03   1.7552E+05  0.000E+00  0.000E+00  0.000E+00  3.23900E+01  1.678E-01  2.000E+01  2.000E+04 -7.243E-02
   1   18   29     3     8    1.7552E+05 -2.7995E+03   1.7832E+05  0.000E+00  0.000E+00  0.000E+00  3.15024E+01  1.690E-01  2.000E+01  2.000E+04 -1.400E-01
   1   18   30     3     9    1.7832E+05 -3.0955E+03   1.8141E+05  0.000E+00  0.000E+00  0.000E+00  3.06152E+01  1.707E-01  2.000E+01  2.000E+04 -1.548E-01



1
              HEAD IN LAYER   1 AT END OF TIME STEP   1 IN STRESS PERIOD    5
  ---------------------------------------------------------------------------

          1      2      3      4      5      6      7      8      9     10
         11     12     13     14     15     16     17     18     19     20
         21     22     23     24     25     26     27     28     29     30
 .........................................................................
   1  ****** ****** ****** ****** ****** ****** ****** ****** ****** ******
      ****** ****** ****** ****** ****** ****** ****** ****** ****** ******
      ****** ****** ****** ****** ****** ****** ****** ****** ****** ******
   2  ****** ****** ****** ****** ****** ****** ****** ****** ****** ******
      ****** ****** ****** ****** ****** ****** ****** ****** ****** ******
      ****** ****** ****** ****** ****** ****** ****** ****** ****** ******
   3  ****** ****** ****** ****** ****** ****** ****** ****** ****** ******
      ****** ****** ****** ****** ****** ****** ****** ****** ****** ******
      ****** ****** ****** ****** ****** ****** ****** ****** ****** ******
   4  ****** ****** ****** ****** ****** ****** ****** ****** ****** ******
      ****** ****** ****** ****** ****** ****** ****** ****** ****** ******
      ****** ****** ****** ****** ****** ****** ****** ****** ****** ******
   5  ****** ****** ****** ****** ****** ****** ****** ****** ****** ******
      ****** ****** ****** ****** ****** ****** ****** ****** ****** ******
      ****** ****** ****** ****** ****** ****** ****** ****** ****** ******
   6  ****** ****** ****** ****** ****** ****** ****** ****** ****** ******
      ****** ****** ****** ****** ****** ****** ****** ****** ****** ******
      ****** ****** ****** ****** ****** ****** ****** ****** ****** ******
   7  ****** ****** ****** ****** ****** ****** ****** ****** ****** ******
      ****** ****** ****** ****** ****** ****** ****** ****** ****** ******
      ****** ****** ****** ****** ****** ****** ****** ****** ****** ******
   8  ****** ****** ****** ****** ****** ****** ****** ****** ****** ******
      ****** ****** ****** ****** ****** ****** ****** ****** ****** ******
      ****** ****** ****** ****** ****** ****** ****** ****** ****** ******
   9  ****** ****** ****** ****** ****** ****** ****** ****** ****** ******
      ****** ****** ****** ****** ****** ****** ****** ****** ****** ******
      ****** ****** ****** ****** ****** ****** ****** ****** ****** ******
  10  ****** ****** ****** ****** ****** ****** ****** ****** ****** ******
      ****** ****** ****** ****** ****** ****** ****** ****** ****** ******
      ****** ****** ****** ****** ****** ****** ****** ****** ****** ******
  11  ****** ****** ****** ****** ****** ****** ****** ****** ****** ******
      ****** ****** ****** ****** ****** ****** ****** ****** ****** ******
      ****** ****** ****** ****** ****** ****** ****** ****** ****** ******
  12  ****** ****** ****** ****** ****** ****** ****** ****** ****** ******
      ****** ****** ****** ****** ****** ****** ****** ****** ****** ******
      ****** ****** ****** ****** ****** ****** ****** ****** ****** ******
  13  ****** ****** ****** ****** ****** ****** ****** ****** ****** ******
      ****** ****** ****** ****** ****** ****** ****** ****** ****** ******
      ****** ****** ****** ****** ****** ****** ****** ****** ****** ******
  14  ****** ****** ****** ****** ****** ****** ****** ****** ****** ******
      ****** ****** ****** ****** ****** ****** ****** ****** ****** ******
      ****** ****** ****** ****** ****** ****** ****** ****** ****** ******
  15  ****** ****** ****** ****** ****** ****** ****** ****** ****** ******
      ****** ****** ****** ****** ****** ****** ****** ****** ****** ******
      ****** ****** ****** ****** ****** ****** ****** ****** ****** ******
  16  ****** ****** ****** ****** ****** ****** ****** ****** ****** ******
      ****** ****** ****** ****** ****** ****** ****** ****** ****** ******
      ****** ****** ****** ****** ****** ****** ****** ****** ****** ******
  17  ****** ****** ****** ****** ****** ****** ****** ****** ****** ******
      ****** ****** ****** ****** ****** ****** ****** ****** ****** ******
      ****** ****** ****** ****** ****** ****** ****** ****** ****** ******
  18  ****** ****** ****** ****** ****** ****** ****** ****** ****** ******
      ****** ****** ****** ****** ****** ****** ****** ****** ****** ******
      ****** ****** ****** ****** ****** ****** ****** ****** ****** ******
  19  ****** ****** ****** ****** ****** ****** ****** ****** ****** ******
      ****** ****** ****** ****** ****** ****** ****** ****** ****** ******
      ****** ****** ****** ****** ****** ****** ****** ****** ****** ******
  20  ****** ****** ****** ****** ****** ****** ****** ****** ****** ******
      ****** ****** ****** ****** ****** ****** ****** ****** ****** ******
      ****** ****** ****** ****** ****** ****** ****** ****** ****** ******
  21  ****** ****** ****** ****** ****** ****** ****** ****** ****** ******
      ****** ****** ****** ****** ****** ****** ****** ****** ****** ******
      ****** ****** ****** ****** ****** ****** ****** ****** ****** ******
  22  ****** ****** ****** ****** ****** ****** ****** ****** ****** ******
      ****** ****** ****** ****** ****** ****** ****** ****** ****** ******
      ****** ****** ****** ****** ****** ****** ****** ****** ****** ******
  23  ****** ****** ****** ****** ****** ****** ****** ****** ****** ******
      ****** ****** ****** ****** ****** ****** ****** ****** ****** ******
      ****** ****** ****** ****** ****** ****** ****** ****** ****** ******
  24  ****** ****** ****** ****** ****** ****** ****** ****** ****** ******
      ****** ****** ****** ****** ****** ****** ****** ****** ****** ******
      ****** ****** ****** ****** ****** ****** ****** ****** ****** ******
  25  ****** ****** ****** ****** ****** ****** ****** ****** ****** ******
      ****** ****** ****** ****** ****** ****** ****** ****** ****** ******
      ****** ****** ****** ****** ****** ****** ****** ****** ****** ******

 HEAD WILL BE SAVED ON UNIT   51 AT END OF TIME STEP    1, STRESS PERIOD    5
1
  VOLUMETRIC BUDGET FOR ENTIRE MODEL AT END OF TIME STEP    1, STRESS PERIOD   5
  ------------------------------------------------------------------------------

     CUMULATIVE VOLUMES      L**3       RATES FOR THIS TIME STEP      L**3/T
     ------------------                 ------------------------

           IN:                                      IN:
           ---                                      ---
             STORAGE =    33070056.1554               STORAGE =       20581.2377
       CONSTANT HEAD =    11284572.4506         CONSTANT HEAD =       33754.2312
               WELLS =           0.0000                 WELLS =           0.0000
            RECHARGE =    10074000.0000              RECHARGE =       13800.0000
      STREAM LEAKAGE =     2877630.7047        STREAM LEAKAGE =        8125.6946

            TOTAL IN =    57306259.3107              TOTAL IN =       76261.1635

          OUT:                                     OUT:
          ----                                     ----
             STORAGE =        1154.2103               STORAGE =           0.0000
       CONSTANT HEAD =           0.0000         CONSTANT HEAD =           0.0000
               WELLS =    16782384.0786                 WELLS =       36722.9411
            RECHARGE =           0.0000              RECHARGE =           0.0000
      STREAM LEAKAGE =    40522723.4524        STREAM LEAKAGE =       39538.2260

           TOTAL OUT =    57306261.7414             TOTAL OUT =       76261.1671

            IN - OUT =          -2.4306              IN - OUT =      -3.5586E-03

 PERCENT DISCREPANCY =          -0.00     PERCENT DISCREPANCY =          -0.00






         TIME SUMMARY AT END OF TIME STEP    1 IN STRESS PERIOD    5
                    SECONDS     MINUTES      HOURS       DAYS        YEARS
                    -----------------------------------------------------------
   TIME STEP LENGTH 7.94880E+06 1.32480E+05  2208.0      92.000     0.25188    
 STRESS PERIOD TIME 7.94880E+06 1.32480E+05  2208.0      92.000     0.25188    
         TOTAL TIME 3.94848E+07 6.58080E+05  10968.      457.00      1.2512    
1
1
                            STRESS PERIOD NO.    6, LENGTH =   91.00000    
                            -----------------------------------------------

                              NUMBER OF TIME STEPS =     1

                               MULTIPLIER FOR DELT =     1.500

                            INITIAL TIME STEP SIZE =   91.00000    

 WELL NO.  LAYER   ROW   COL   STRESS RATE         
 --------------------------------------------------
      1      1     19     16      -9509.    
      2      1      8     26      -9882.    
      3      1      9     16      -9755.    
      4      1      5      7      -7576.    

      4 WELLS

                 RECHARGE =  2.000000E-03

 REUSING STREAM SEGMENT DATA FROM LAST STRESS PERIOD
 
 SOLVING FOR HEAD 


     7 CALLS TO PCG ROUTINE FOR TIME STEP   1 IN STRESS PERIOD    6
    26 TOTAL ITERATIONS

 OUTPUT CONTROL FOR STRESS PERIOD    6   TIME STEP    1
    SAVE BUDGET
    SAVE HEAD FOR ALL LAYERS
    PRINT HEAD FOR ALL LAYERS
 UBDSV2 SAVING "STREAMFLOW OUT  " ON UNIT  50 AT TIME STEP  1, STRESS PERIOD   6



 STREAM LISTING     PERIOD      6   STEP        1

 LAYER ROW COL. STREAM  RCH.  FLOW INTO     FLOW TO   FLOW OUT OF   OVRLND.     DIRECT     STREAM       STREAM     STREAM     STREAM   STREAMBED  STREAMBED
                SEG.NO.  NO.  STRM. RCH.    AQUIFER    STRM. RCH.    RUNOFF     PRECIP       ET          HEAD       DEPTH      WIDTH   CONDCTNC.   GRADIENT

   1   13    1     1     1    1.0000E+05 -1.7368E+03   1.0174E+05  0.000E+00  0.000E+00  0.000E+00  4.84068E+01  1.454E-01  2.000E+01  2.000E+04 -8.684E-02
   1   13    2     1     2    1.0174E+05 -2.7267E+03   1.0446E+05  0.000E+00  0.000E+00  0.000E+00  4.79314E+01  1.473E-01  2.000E+01  2.000E+04 -1.363E-01
   1   14    3     1     3    1.0446E+05 -5.9549E+02   1.0506E+05  0.000E+00  0.000E+00  0.000E+00  4.74556E+01  1.487E-01  2.000E+01  2.000E+04 -2.977E-02
   1   15    4     1     4    1.0506E+05 -5.8955E+02   1.0565E+05  0.000E+00  0.000E+00  0.000E+00  4.69788E+01  1.492E-01  2.000E+01  2.000E+04 -2.948E-02
   1   16    5     1     5    1.0565E+05 -2.0738E+03   1.0772E+05  0.000E+00  0.000E+00  0.000E+00  4.65027E+01  1.504E-01  2.000E+01  2.000E+04 -1.037E-01
   1   16    6     1     6    1.0772E+05 -1.2737E+03   1.0900E+05  0.000E+00  0.000E+00  0.000E+00  4.60268E+01  1.518E-01  2.000E+01  2.000E+04 -6.369E-02
   1   16    7     1     7    1.0900E+05 -1.2196E+03   1.1022E+05  0.000E+00  0.000E+00  0.000E+00  4.55506E+01  1.528E-01  2.000E+01  2.000E+04 -6.098E-02
   1   16    8     1     8    1.1022E+05 -1.1767E+03   1.1139E+05  0.000E+00  0.000E+00  0.000E+00  4.50743E+01  1.538E-01  2.000E+01  2.000E+04 -5.884E-02
   1   16    9     1     9    1.1139E+05 -1.1165E+03   1.1251E+05  0.000E+00  0.000E+00  0.000E+00  4.45980E+01  1.548E-01  2.000E+01  2.000E+04 -5.582E-02
   1   16   10     1    10    1.1251E+05 -1.0286E+03   1.1354E+05  0.000E+00  0.000E+00  0.000E+00  4.41216E+01  1.557E-01  2.000E+01  2.000E+04 -5.143E-02
   1   16   11     1    11    1.1354E+05 -9.0781E+02   1.1445E+05  0.000E+00  0.000E+00  0.000E+00  4.36451E+01  1.565E-01  2.000E+01  2.000E+04 -4.539E-02
   1   16   12     1    12    1.1445E+05 -1.1558E+03   1.1560E+05  0.000E+00  0.000E+00  0.000E+00  4.31687E+01  1.573E-01  2.000E+01  2.000E+04 -5.779E-02
   1   15   13     1    13    1.1560E+05 -1.0309E+03   1.1663E+05  0.000E+00  0.000E+00  0.000E+00  4.26923E+01  1.582E-01  2.000E+01  2.000E+04 -5.155E-02
   1   14   14     1    14    1.1663E+05 -1.2124E+03   1.1784E+05  0.000E+00  0.000E+00  0.000E+00  4.22160E+01  1.591E-01  2.000E+01  2.000E+04 -6.062E-02
   1   13   15     1    15    1.1784E+05 -1.3039E+03   1.1915E+05  0.000E+00  0.000E+00  0.000E+00  4.17397E+01  1.602E-01  2.000E+01  2.000E+04 -6.520E-02
   1   12   16     1    16    1.1915E+05 -1.1302E+03   1.2028E+05  0.000E+00  0.000E+00  0.000E+00  4.12634E+01  1.611E-01  2.000E+01  2.000E+04 -5.651E-02
   1   12   17     1    17    1.2028E+05 -8.2083E+02   1.2110E+05  0.000E+00  0.000E+00  0.000E+00  4.07869E+01  1.619E-01  2.000E+01  2.000E+04 -4.104E-02
   1   12   18     1    18    1.2110E+05 -1.0225E+03   1.2212E+05  0.000E+00  0.000E+00  0.000E+00  4.03104E+01  1.627E-01  2.000E+01  2.000E+04 -5.112E-02
   1   12   19     1    19    1.2212E+05 -1.6506E+03   1.2377E+05  0.000E+00  0.000E+00  0.000E+00  3.98342E+01  1.637E-01  2.000E+01  2.000E+04 -8.253E-02
   1   13   20     1    20    1.2377E+05 -1.4627E+03   1.2524E+05  0.000E+00  0.000E+00  0.000E+00  3.93582E+01  1.650E-01  2.000E+01  2.000E+04 -7.313E-02
   1   14   21     1    21    1.2524E+05 -1.3479E+03   1.2658E+05  0.000E+00  0.000E+00  0.000E+00  3.88820E+01  1.661E-01  2.000E+01  2.000E+04 -6.739E-02
   1   14   22     1    22    1.2658E+05  4.9188E+03   1.2166E+05  0.000E+00  0.000E+00  0.000E+00  3.84033E+01  1.647E-01  2.000E+01  2.000E+04  2.459E-01
   1    9   30     2     1    5.0000E+04 -5.0073E+02   5.0501E+04  0.000E+00  0.000E+00  0.000E+00  4.02412E+01  1.162E-01  2.000E+01  2.000E+04 -2.504E-02
   1    9   29     2     2    5.0501E+04 -6.7077E+02   5.1172E+04  0.000E+00  0.000E+00  0.000E+00  3.99920E+01  1.170E-01  2.000E+01  2.000E+04 -3.354E-02
   1    9   28     2     3    5.1172E+04 -5.3627E+02   5.1708E+04  0.000E+00  0.000E+00  0.000E+00  3.97429E+01  1.179E-01  2.000E+01  2.000E+04 -2.681E-02
   1    9   27     2     4    5.1708E+04  3.5837E+02   5.1349E+04  0.000E+00  0.000E+00  0.000E+00  3.94930E+01  1.180E-01  2.000E+01  2.000E+04  1.792E-02
   1   10   26     2     5    5.1349E+04 -3.6782E+01   5.1386E+04  0.000E+00  0.000E+00  0.000E+00  3.92428E+01  1.178E-01  2.000E+01  2.000E+04 -1.839E-03
   1   11   25     2     6    5.1386E+04 -9.7661E+02   5.2363E+04  0.000E+00  0.000E+00  0.000E+00  3.89935E+01  1.185E-01  2.000E+01  2.000E+04 -4.883E-02
   1   12   24     2     7    5.2363E+04 -1.3146E+03   5.3677E+04  0.000E+00  0.000E+00  0.000E+00  3.87450E+01  1.200E-01  2.000E+01  2.000E+04 -6.573E-02
   1   13   23     2     8    5.3677E+04 -2.9512E+02   5.3972E+04  0.000E+00  0.000E+00  0.000E+00  3.84961E+01  1.211E-01  2.000E+01  2.000E+04 -1.476E-02
   1   14   22     2     9    5.3972E+04  1.7549E+03   5.2218E+04  0.000E+00  0.000E+00  0.000E+00  3.82451E+01  1.201E-01  2.000E+01  2.000E+04  8.774E-02
   1   14   22     3     1    1.7388E+05 -8.6411E+03   1.8252E+05  0.000E+00  0.000E+00  0.000E+00  3.77253E+01  1.698E-01  2.000E+01  2.000E+04 -4.321E-01
   1   15   23     3     2    1.8252E+05 -5.7222E+02   1.8310E+05  0.000E+00  0.000E+00  0.000E+00  3.68391E+01  1.724E-01  2.000E+01  2.000E+04 -2.861E-02
   1   15   24     3     3    1.8310E+05 -3.6623E+02   1.8346E+05  0.000E+00  0.000E+00  0.000E+00  3.59504E+01  1.727E-01  2.000E+01  2.000E+04 -1.831E-02
   1   15   25     3     4    1.8346E+05 -3.7125E+02   1.8383E+05  0.000E+00  0.000E+00  0.000E+00  3.50617E+01  1.729E-01  2.000E+01  2.000E+04 -1.856E-02
   1   15   26     3     5    1.8383E+05 -4.4896E+02   1.8428E+05  0.000E+00  0.000E+00  0.000E+00  3.41731E+01  1.731E-01  2.000E+01  2.000E+04 -2.245E-02
   1   16   27     3     6    1.8428E+05 -4.9650E+02   1.8478E+05  0.000E+00  0.000E+00  0.000E+00  3.32845E+01  1.734E-01  2.000E+01  2.000E+04 -2.482E-02
   1   17   28     3     7    1.8478E+05 -1.9095E+03   1.8669E+05  0.000E+00  0.000E+00  0.000E+00  3.23963E+01  1.740E-01  2.000E+01  2.000E+04 -9.547E-02
   1   18   29     3     8    1.8669E+05 -3.2353E+03   1.8992E+05  0.000E+00  0.000E+00  0.000E+00  3.15088E+01  1.755E-01  2.000E+01  2.000E+04 -1.618E-01
   1   18   30     3     9    1.8992E+05 -3.4495E+03   1.9337E+05  0.000E+00  0.000E+00  0.000E+00  3.06218E+01  1.773E-01  2.000E+01  2.000E+04 -1.725E-01



1
              HEAD IN LAYER   1 AT END OF TIME STEP   1 IN STRESS PERIOD    6
  ---------------------------------------------------------------------------

          1      2      3      4      5      6      7      8      9     10
         11     12     13     14     15     16     17     18     19     20
         21     22     23     24     25     26     27     28     29     30
 .........................................................................
   1  ****** ****** ****** ****** ****** ****** ****** ****** ****** ******
      ****** ****** ****** ****** ****** ****** ****** ****** ****** ******
      ****** ****** ****** ****** ****** ****** ****** ****** ****** ******
   2  ****** ****** ****** ****** ****** ****** ****** ****** ****** ******
      ****** ****** ****** ****** ****** ****** ****** ****** ****** ******
      ****** ****** ****** ****** ****** ****** ****** ****** ****** ******
   3  ****** ****** ****** ****** ****** ****** ****** ****** ****** ******
      ****** ****** ****** ****** ****** ****** ****** ****** ****** ******
      ****** ****** ****** ****** ****** ****** ****** ****** ****** ******
   4  ****** ****** ****** ****** ****** ****** ****** ****** ****** ******
      ****** ****** ****** ****** ****** ****** ****** ****** ****** ******
      ****** ****** ****** ****** ****** ****** ****** ****** ****** ******
   5  ****** ****** ****** ****** ****** ****** ****** ****** ****** ******
      ****** ****** ****** ****** ****** ****** ****** ****** ****** ******
      ****** ****** ****** ****** ****** ****** ****** ****** ****** ******
   6  ****** ****** ****** ****** ****** ****** ****** ****** ****** ******
      ****** ****** ****** ****** ****** ****** ****** ****** ****** ******
      ****** ****** ****** ****** ****** ****** ****** ****** ****** ******
   7  ****** ****** ****** ****** ****** ****** ****** ****** ****** ******
      ****** ****** ****** ****** ****** ****** ****** ****** ****** ******
      ****** ****** ****** ****** ****** ****** ****** ****** ****** ******
   8  ****** ****** ****** ****** ****** ****** ****** ****** ****** ******
      ****** ****** ****** ****** ****** ****** ****** ****** ****** ******
      ****** ****** ****** ****** ****** ****** ****** ****** ****** ******
   9  ****** ****** ****** ****** ****** ****** ****** ****** ****** ******
      ****** ****** ****** ****** ****** ****** ****** ****** ****** ******
      ****** ****** ****** ****** ****** ****** ****** ****** ****** ******
  10  ****** ****** ****** ****** ****** ****** ****** ****** ****** ******
      ****** ****** ****** ****** ****** ****** ****** ****** ****** ******
      ****** ****** ****** ****** ****** ****** ****** ****** ****** ******
  11  ****** ****** ****** ****** ****** ****** ****** ****** ****** ******
      ****** ****** ****** ****** ****** ****** ****** ****** ****** ******
      ****** ****** ****** ****** ****** ****** ****** ****** ****** ******
  12  ****** ****** ****** ****** ****** ****** ****** ****** ****** ******
      ****** ****** ****** ****** ****** ****** ****** ****** ****** ******
      ****** ****** ****** ****** ****** ****** ****** ****** ****** ******
  13  ****** ****** ****** ****** ****** ****** ****** ****** ****** ******
      ****** ****** ****** ****** ****** ****** ****** ****** ****** ******
      ****** ****** ****** ****** ****** ****** ****** ****** ****** ******
  14  ****** ****** ****** ****** ****** ****** ****** ****** ****** ******
      ****** ****** ****** ****** ****** ****** ****** ****** ****** ******
      ****** ****** ****** ****** ****** ****** ****** ****** ****** ******
  15  ****** ****** ****** ****** ****** ****** ****** ****** ****** ******
      ****** ****** ****** ****** ****** ****** ****** ****** ****** ******
      ****** ****** ****** ****** ****** ****** ****** ****** ****** ******
  16  ****** ****** ****** ****** ****** ****** ****** ****** ****** ******
      ****** ****** ****** ****** ****** ****** ****** ****** ****** ******
      ****** ****** ****** ****** ****** ****** ****** ****** ****** ******
  17  ****** ****** ****** ****** ****** ****** ****** ****** ****** ******
      ****** ****** ****** ****** ****** ****** ****** ****** ****** ******
      ****** ****** ****** ****** ****** ****** ****** ****** ****** ******
  18  ****** ****** ****** ****** ****** ****** ****** ****** ****** ******
      ****** ****** ****** ****** ****** ****** ****** ****** ****** ******
      ****** ****** ****** ****** ****** ****** ****** ****** ****** ******
  19  ****** ****** ****** ****** ****** ****** ****** ****** ****** ******
      ****** ****** ****** ****** ****** ****** ****** ****** ****** ******
      ****** ****** ****** ****** ****** ****** ****** ****** ****** ******
  20  ****** ****** ****** ****** ****** ****** ****** ****** ****** ******
      ****** ****** ****** ****** ****** ****** ****** ****** ****** ******
      ****** ****** ****** ****** ****** ****** ****** ****** ****** ******
  21  ****** ****** ****** ****** ****** ****** ****** ****** ****** ******
      ****** ****** ****** ****** ****** ****** ****** ****** ****** ******
      ****** ****** ****** ****** ****** ****** ****** ****** ****** ******
  22  ****** ****** ****** ****** ****** ****** ****** ****** ****** ******
      ****** ****** ****** ****** ****** ****** ****** ****** ****** ******
      ****** ****** ****** ****** ****** ****** ****** ****** ****** ******
  23  ****** ****** ****** ****** ****** ****** ****** ****** ****** ******
      ****** ****** ****** ****** ****** ****** ****** ****** ****** ******
      ****** ****** ****** ****** ****** ****** ****** ****** ****** ******
  24  ****** ****** ****** ****** ****** ****** ****** ****** ****** ******
      ****** ****** ****** ****** ****** ****** ****** ****** ****** ******
      ****** ****** ****** ****** ****** ****** ****** ****** ****** ******
  25  ****** ****** ****** ****** ****** ****** ****** ****** ****** ******
      ****** ****** ****** ****** ****** ****** ****** ****** ****** ******
      ****** ****** ****** ****** ****** ****** ****** ****** ****** ******

 HEAD WILL BE SAVED ON UNIT   51 AT END OF TIME STEP    1, STRESS PERIOD    6
1
  VOLUMETRIC BUDGET FOR ENTIRE MODEL AT END OF TIME STEP    1, STRESS PERIOD   6
  ------------------------------------------------------------------------------

     CUMULATIVE VOLUMES      L**3       RATES FOR THIS TIME STEP      L**3/T
     ------------------                 ------------------------

           IN:                                      IN:
           ---                                      ---
             STORAGE =    33100602.4641               STORAGE =         335.6737
       CONSTANT HEAD =    14200706.4655         CONSTANT HEAD =       32045.4287
               WELLS =           0.0000                 WELLS =           0.0000
            RECHARGE =    15097200.0000              RECHARGE =       55200.0000
      STREAM LEAKAGE =     3517546.5718        STREAM LEAKAGE =        7032.0425

            TOTAL IN =    65916055.5013              TOTAL IN =       94613.1450

          OUT:                                     OUT:
          ----                                     ----
             STORAGE =      682365.3800               STORAGE =        7485.8370
       CONSTANT HEAD =           0.0000         CONSTANT HEAD =           0.0000
               WELLS =    20124171.7179                 WELLS =       36722.9411
            RECHARGE =           0.0000              RECHARGE =           0.0000
      STREAM LEAKAGE =    45109520.5741        STREAM LEAKAGE =       50404.3640

           TOTAL OUT =    65916057.6721             TOTAL OUT =       94613.1421

            IN - OUT =          -2.1707              IN - OUT =       2.8563E-03

 PERCENT DISCREPANCY =          -0.00     PERCENT DISCREPANCY =           0.00






         TIME SUMMARY AT END OF TIME STEP    1 IN STRESS PERIOD    6
                    SECONDS     MINUTES      HOURS       DAYS        YEARS
                    -----------------------------------------------------------
   TIME STEP LENGTH 7.86240E+06 1.31040E+05  2184.0      91.000     0.24914    
 STRESS PERIOD TIME 7.86240E+06 1.31040E+05  2184.0      91.000     0.24914    
         TOTAL TIME 4.73472E+07 7.89120E+05  13152.      548.00      1.5003    
1
1
                            STRESS PERIOD NO.    7, LENGTH =   91.00000    
                            -----------------------------------------------

                              NUMBER OF TIME STEPS =     1

                               MULTIPLIER FOR DELT =     1.500

                            INITIAL TIME STEP SIZE =   91.00000    

 WELL NO.  LAYER   ROW   COL   STRESS RATE         
 --------------------------------------------------
      1      1     19     16      -9509.    
      2      1      8     26      -9882.    
      3      1      9     16      -9755.    
      4      1      5      7      -7576.    

      4 WELLS

                 RECHARGE =   0.00000    

 REUSING STREAM SEGMENT DATA FROM LAST STRESS PERIOD
 
 SOLVING FOR HEAD 


     7 CALLS TO PCG ROUTINE FOR TIME STEP   1 IN STRESS PERIOD    7
    26 TOTAL ITERATIONS

 OUTPUT CONTROL FOR STRESS PERIOD    7   TIME STEP    1
    SAVE BUDGET
    SAVE HEAD FOR ALL LAYERS
    PRINT HEAD FOR ALL LAYERS
 UBDSV2 SAVING "STREAMFLOW OUT  " ON UNIT  50 AT TIME STEP  1, STRESS PERIOD   7



 STREAM LISTING     PERIOD      7   STEP        1

 LAYER ROW COL. STREAM  RCH.  FLOW INTO     FLOW TO   FLOW OUT OF   OVRLND.     DIRECT     STREAM       STREAM     STREAM     STREAM   STREAMBED  STREAMBED
                SEG.NO.  NO.  STRM. RCH.    AQUIFER    STRM. RCH.    RUNOFF     PRECIP       ET          HEAD       DEPTH      WIDTH   CONDCTNC.   GRADIENT

   1   13    1     1     1    1.0000E+05 -1.0319E+03   1.0103E+05  0.000E+00  0.000E+00  0.000E+00  4.84065E+01  1.451E-01  2.000E+01  2.000E+04 -5.160E-02
   1   13    2     1     2    1.0103E+05 -1.9365E+03   1.0297E+05  0.000E+00  0.000E+00  0.000E+00  4.79305E+01  1.464E-01  2.000E+01  2.000E+04 -9.683E-02
   1   14    3     1     3    1.0297E+05 -3.3740E+02   1.0331E+05  0.000E+00  0.000E+00  0.000E+00  4.74542E+01  1.474E-01  2.000E+01  2.000E+04 -1.687E-02
   1   15    4     1     4    1.0331E+05 -3.2201E+02   1.0363E+05  0.000E+00  0.000E+00  0.000E+00  4.69772E+01  1.476E-01  2.000E+01  2.000E+04 -1.610E-02
   1   16    5     1     5    1.0363E+05 -1.3153E+03   1.0494E+05  0.000E+00  0.000E+00  0.000E+00  4.65006E+01  1.483E-01  2.000E+01  2.000E+04 -6.577E-02
   1   16    6     1     6    1.0494E+05 -8.1420E+02   1.0576E+05  0.000E+00  0.000E+00  0.000E+00  4.60242E+01  1.492E-01  2.000E+01  2.000E+04 -4.071E-02
   1   16    7     1     7    1.0576E+05 -7.7813E+02   1.0654E+05  0.000E+00  0.000E+00  0.000E+00  4.55477E+01  1.499E-01  2.000E+01  2.000E+04 -3.891E-02
   1   16    8     1     8    1.0654E+05 -7.4122E+02   1.0728E+05  0.000E+00  0.000E+00  0.000E+00  4.50710E+01  1.506E-01  2.000E+01  2.000E+04 -3.706E-02
   1   16    9     1     9    1.0728E+05 -6.8445E+02   1.0796E+05  0.000E+00  0.000E+00  0.000E+00  4.45943E+01  1.512E-01  2.000E+01  2.000E+04 -3.422E-02
   1   16   10     1    10    1.0796E+05 -5.9970E+02   1.0856E+05  0.000E+00  0.000E+00  0.000E+00  4.41176E+01  1.517E-01  2.000E+01  2.000E+04 -2.999E-02
   1   16   11     1    11    1.0856E+05 -4.7851E+02   1.0904E+05  0.000E+00  0.000E+00  0.000E+00  4.36408E+01  1.522E-01  2.000E+01  2.000E+04 -2.393E-02
   1   16   12     1    12    1.0904E+05 -4.3197E+02   1.0947E+05  0.000E+00  0.000E+00  0.000E+00  4.31639E+01  1.525E-01  2.000E+01  2.000E+04 -2.160E-02
   1   15   13     1    13    1.0947E+05 -2.4810E+02   1.0972E+05  0.000E+00  0.000E+00  0.000E+00  4.26869E+01  1.528E-01  2.000E+01  2.000E+04 -1.240E-02
   1   14   14     1    14    1.0972E+05 -3.9644E+02   1.1012E+05  0.000E+00  0.000E+00  0.000E+00  4.22099E+01  1.531E-01  2.000E+01  2.000E+04 -1.982E-02
   1   13   15     1    15    1.1012E+05 -4.8150E+02   1.1060E+05  0.000E+00  0.000E+00  0.000E+00  4.17330E+01  1.535E-01  2.000E+01  2.000E+04 -2.408E-02
   1   12   16     1    16    1.1060E+05 -3.0634E+02   1.1090E+05  0.000E+00  0.000E+00  0.000E+00  4.12561E+01  1.538E-01  2.000E+01  2.000E+04 -1.532E-02
   1   12   17     1    17    1.1090E+05 -2.2858E+02   1.1113E+05  0.000E+00  0.000E+00  0.000E+00  4.07790E+01  1.540E-01  2.000E+01  2.000E+04 -1.143E-02
   1   12   18     1    18    1.1113E+05 -4.4699E+02   1.1158E+05  0.000E+00  0.000E+00  0.000E+00  4.03020E+01  1.543E-01  2.000E+01  2.000E+04 -2.235E-02
   1   12   19     1    19    1.1158E+05 -9.4850E+02   1.1253E+05  0.000E+00  0.000E+00  0.000E+00  3.98253E+01  1.549E-01  2.000E+01  2.000E+04 -4.742E-02
   1   13   20     1    20    1.1253E+05 -7.8606E+02   1.1331E+05  0.000E+00  0.000E+00  0.000E+00  3.93488E+01  1.556E-01  2.000E+01  2.000E+04 -3.930E-02
   1   14   21     1    21    1.1331E+05 -6.8280E+02   1.1400E+05  0.000E+00  0.000E+00  0.000E+00  3.88721E+01  1.562E-01  2.000E+01  2.000E+04 -3.414E-02
   1   14   22     1    22    1.1400E+05  5.0769E+03   1.0892E+05  0.000E+00  0.000E+00  0.000E+00  3.83930E+01  1.544E-01  2.000E+01  2.000E+04  2.538E-01
   1    9   30     2     1    5.0000E+04  1.6189E+01   4.9984E+04  0.000E+00  0.000E+00  0.000E+00  4.02409E+01  1.159E-01  2.000E+01  2.000E+04  8.094E-04
   1    9   29     2     2    4.9984E+04 -1.5535E+02   5.0139E+04  0.000E+00  0.000E+00  0.000E+00  3.99910E+01  1.160E-01  2.000E+01  2.000E+04 -7.768E-03
   1    9   28     2     3    5.0139E+04 -1.8762E+01   5.0158E+04  0.000E+00  0.000E+00  0.000E+00  3.97411E+01  1.161E-01  2.000E+01  2.000E+04 -9.381E-04
   1    9   27     2     4    5.0158E+04  1.0648E+03   4.9093E+04  0.000E+00  0.000E+00  0.000E+00  3.94903E+01  1.153E-01  2.000E+01  2.000E+04  5.324E-02
   1   10   26     2     5    4.9093E+04  6.7007E+02   4.8423E+04  0.000E+00  0.000E+00  0.000E+00  3.92391E+01  1.141E-01  2.000E+01  2.000E+04  3.350E-02
   1   11   25     2     6    4.8423E+04 -2.9884E+02   4.8722E+04  0.000E+00  0.000E+00  0.000E+00  3.89889E+01  1.139E-01  2.000E+01  2.000E+04 -1.494E-02
   1   12   24     2     7    4.8722E+04 -6.9596E+02   4.9418E+04  0.000E+00  0.000E+00  0.000E+00  3.87396E+01  1.146E-01  2.000E+01  2.000E+04 -3.480E-02
   1   13   23     2     8    4.9418E+04 -1.0213E+02   4.9520E+04  0.000E+00  0.000E+00  0.000E+00  3.84901E+01  1.151E-01  2.000E+01  2.000E+04 -5.107E-03
   1   14   22     2     9    4.9520E+04  1.9925E+03   4.7527E+04  0.000E+00  0.000E+00  0.000E+00  3.82388E+01  1.138E-01  2.000E+01  2.000E+04  9.963E-02
   1   14   22     3     1    1.5645E+05 -8.4814E+03   1.6493E+05  0.000E+00  0.000E+00  0.000E+00  3.77151E+01  1.595E-01  2.000E+01  2.000E+04 -4.241E-01
   1   15   23     3     2    1.6493E+05 -3.6548E+02   1.6529E+05  0.000E+00  0.000E+00  0.000E+00  3.68288E+01  1.622E-01  2.000E+01  2.000E+04 -1.827E-02
   1   15   24     3     3    1.6529E+05 -1.9252E+02   1.6549E+05  0.000E+00  0.000E+00  0.000E+00  3.59401E+01  1.623E-01  2.000E+01  2.000E+04 -9.626E-03
   1   15   25     3     4    1.6549E+05 -1.9450E+02   1.6568E+05  0.000E+00  0.000E+00  0.000E+00  3.50513E+01  1.624E-01  2.000E+01  2.000E+04 -9.725E-03
   1   15   26     3     5    1.6568E+05 -2.4776E+02   1.6593E+05  0.000E+00  0.000E+00  0.000E+00  3.41626E+01  1.626E-01  2.000E+01  2.000E+04 -1.239E-02
   1   16   27     3     6    1.6593E+05 -2.6415E+02   1.6619E+05  0.000E+00  0.000E+00  0.000E+00  3.32738E+01  1.627E-01  2.000E+01  2.000E+04 -1.321E-02
   1   17   28     3     7    1.6619E+05 -1.2679E+03   1.6746E+05  0.000E+00  0.000E+00  0.000E+00  3.23854E+01  1.632E-01  2.000E+01  2.000E+04 -6.340E-02
   1   18   29     3     8    1.6746E+05 -2.5487E+03   1.7001E+05  0.000E+00  0.000E+00  0.000E+00  3.14976E+01  1.643E-01  2.000E+01  2.000E+04 -1.274E-01
   1   18   30     3     9    1.7001E+05 -2.9207E+03   1.7293E+05  0.000E+00  0.000E+00  0.000E+00  3.06103E+01  1.659E-01  2.000E+01  2.000E+04 -1.460E-01



1
              HEAD IN LAYER   1 AT END OF TIME STEP   1 IN STRESS PERIOD    7
  ---------------------------------------------------------------------------

          1      2      3      4      5      6      7      8      9     10
         11     12     13     14     15     16     17     18     19     20
         21     22     23     24     25     26     27     28     29     30
 .........................................................................
   1  ****** ****** ****** ****** ****** ****** ****** ****** ****** ******
      ****** ****** ****** ****** ****** ****** ****** ****** ****** ******
      ****** ****** ****** ****** ****** ****** ****** ****** ****** ******
   2  ****** ****** ****** ****** ****** ****** ****** ****** ****** ******
      ****** ****** ****** ****** ****** ****** ****** ****** ****** ******
      ****** ****** ****** ****** ****** ****** ****** ****** ****** ******
   3  ****** ****** ****** ****** ****** ****** ****** ****** ****** ******
      ****** ****** ****** ****** ****** ****** ****** ****** ****** ******
      ****** ****** ****** ****** ****** ****** ****** ****** ****** ******
   4  ****** ****** ****** ****** ****** ****** ****** ****** ****** ******
      ****** ****** ****** ****** ****** ****** ****** ****** ****** ******
      ****** ****** ****** ****** ****** ****** ****** ****** ****** ******
   5  ****** ****** ****** ****** ****** ****** ****** ****** ****** ******
      ****** ****** ****** ****** ****** ****** ****** ****** ****** ******
      ****** ****** ****** ****** ****** ****** ****** ****** ****** ******
   6  ****** ****** ****** ****** ****** ****** ****** ****** ****** ******
      ****** ****** ****** ****** ****** ****** ****** ****** ****** ******
      ****** ****** ****** ****** ****** ****** ****** ****** ****** ******
   7  ****** ****** ****** ****** ****** ****** ****** ****** ****** ******
      ****** ****** ****** ****** ****** ****** ****** ****** ****** ******
      ****** ****** ****** ****** ****** ****** ****** ****** ****** ******
   8  ****** ****** ****** ****** ****** ****** ****** ****** ****** ******
      ****** ****** ****** ****** ****** ****** ****** ****** ****** ******
      ****** ****** ****** ****** ****** ****** ****** ****** ****** ******
   9  ****** ****** ****** ****** ****** ****** ****** ****** ****** ******
      ****** ****** ****** ****** ****** ****** ****** ****** ****** ******
      ****** ****** ****** ****** ****** ****** ****** ****** ****** ******
  10  ****** ****** ****** ****** ****** ****** ****** ****** ****** ******
      ****** ****** ****** ****** ****** ****** ****** ****** ****** ******
      ****** ****** ****** ****** ****** ****** ****** ****** ****** ******
  11  ****** ****** ****** ****** ****** ****** ****** ****** ****** ******
      ****** ****** ****** ****** ****** ****** ****** ****** ****** ******
      ****** ****** ****** ****** ****** ****** ****** ****** ****** ******
  12  ****** ****** ****** ****** ****** ****** ****** ****** ****** ******
      ****** ****** ****** ****** ****** ****** ****** ****** ****** ******
      ****** ****** ****** ****** ****** ****** ****** ****** ****** ******
  13  ****** ****** ****** ****** ****** ****** ****** ****** ****** ******
      ****** ****** ****** ****** ****** ****** ****** ****** ****** ******
      ****** ****** ****** ****** ****** ****** ****** ****** ****** ******
  14  ****** ****** ****** ****** ****** ****** ****** ****** ****** ******
      ****** ****** ****** ****** ****** ****** ****** ****** ****** ******
      ****** ****** ****** ****** ****** ****** ****** ****** ****** ******
  15  ****** ****** ****** ****** ****** ****** ****** ****** ****** ******
      ****** ****** ****** ****** ****** ****** ****** ****** ****** ******
      ****** ****** ****** ****** ****** ****** ****** ****** ****** ******
  16  ****** ****** ****** ****** ****** ****** ****** ****** ****** ******
      ****** ****** ****** ****** ****** ****** ****** ****** ****** ******
      ****** ****** ****** ****** ****** ****** ****** ****** ****** ******
  17  ****** ****** ****** ****** ****** ****** ****** ****** ****** ******
      ****** ****** ****** ****** ****** ****** ****** ****** ****** ******
      ****** ****** ****** ****** ****** ****** ****** ****** ****** ******
  18  ****** ****** ****** ****** ****** ****** ****** ****** ****** ******
      ****** ****** ****** ****** ****** ****** ****** ****** ****** ******
      ****** ****** ****** ****** ****** ****** ****** ****** ****** ******
  19  ****** ****** ****** ****** ****** ****** ****** ****** ****** ******
      ****** ****** ****** ****** ****** ****** ****** ****** ****** ******
      ****** ****** ****** ****** ****** ****** ****** ****** ****** ******
  20  ****** ****** ****** ****** ****** ****** ****** ****** ****** ******
      ****** ****** ****** ****** ****** ****** ****** ****** ****** ******
      ****** ****** ****** ****** ****** ****** ****** ****** ****** ******
  21  ****** ****** ****** ****** ****** ****** ****** ****** ****** ******
      ****** ****** ****** ****** ****** ****** ****** ****** ****** ******
      ****** ****** ****** ****** ****** ****** ****** ****** ****** ******
  22  ****** ****** ****** ****** ****** ****** ****** ****** ****** ******
      ****** ****** ****** ****** ****** ****** ****** ****** ****** ******
      ****** ****** ****** ****** ****** ****** ****** ****** ****** ******
  23  ****** ****** ****** ****** ****** ****** ****** ****** ****** ******
      ****** ****** ****** ****** ****** ****** ****** ****** ****** ******
      ****** ****** ****** ****** ****** ****** ****** ****** ****** ******
  24  ****** ****** ****** ****** ****** ****** ****** ****** ****** ******
      ****** ****** ****** ****** ****** ****** ****** ****** ****** ******
      ****** ****** ****** ****** ****** ****** ****** ****** ****** ******
  25  ****** ****** ****** ****** ****** ****** ****** ****** ****** ******
      ****** ****** ****** ****** ****** ****** ****** ****** ****** ******
      ****** ****** ****** ****** ****** ****** ****** ****** ****** ******

 HEAD WILL BE SAVED ON UNIT   51 AT END OF TIME STEP    1, STRESS PERIOD    7
1
  VOLUMETRIC BUDGET FOR ENTIRE MODEL AT END OF TIME STEP    1, STRESS PERIOD   7
  ------------------------------------------------------------------------------

     CUMULATIVE VOLUMES      L**3       RATES FOR THIS TIME STEP      L**3/T
     ------------------                 ------------------------

           IN:                                      IN:
           ---                                      ---
             STORAGE =    35243021.8976               STORAGE =       23543.0707
       CONSTANT HEAD =    17486745.0719         CONSTANT HEAD =       36110.3144
               WELLS =           0.0000                 WELLS =           0.0000
            RECHARGE =    15097200.0000              RECHARGE =           0.0000
      STREAM LEAKAGE =     4320211.3992        STREAM LEAKAGE =        8820.4926

            TOTAL IN =    72147178.3688              TOTAL IN =       68473.8777

          OUT:                                     OUT:
          ----                                     ----
             STORAGE =      682365.3800               STORAGE =           0.0000
       CONSTANT HEAD =           0.0000         CONSTANT HEAD =           0.0000
               WELLS =    23465959.3572                 WELLS =       36722.9411
            RECHARGE =           0.0000              RECHARGE =           0.0000
      STREAM LEAKAGE =    47998856.3260        STREAM LEAKAGE =       31750.9423

           TOTAL OUT =    72147181.0633             TOTAL OUT =       68473.8834

            IN - OUT =          -2.6945              IN - OUT =      -5.7556E-03

 PERCENT DISCREPANCY =          -0.00     PERCENT DISCREPANCY =          -0.00






         TIME SUMMARY AT END OF TIME STEP    1 IN STRESS PERIOD    7
                    SECONDS     MINUTES      HOURS       DAYS        YEARS
                    -----------------------------------------------------------
   TIME STEP LENGTH 7.86240E+06 1.31040E+05  2184.0      91.000     0.24914    
 STRESS PERIOD TIME 7.86240E+06 1.31040E+05  2184.0      91.000     0.24914    
         TOTAL TIME 5.52096E+07 9.20160E+05  15336.      639.00      1.7495    
1
1
                            STRESS PERIOD NO.    8, LENGTH =   91.00000    
                            -----------------------------------------------

                              NUMBER OF TIME STEPS =     1

                               MULTIPLIER FOR DELT =     1.500

                            INITIAL TIME STEP SIZE =   91.00000    

 WELL NO.  LAYER   ROW   COL   STRESS RATE         
 --------------------------------------------------
      1      1     19     16      -9509.    
      2      1      8     26      -9882.    
      3      1      9     16      -9755.    
      4      1      5      7      -7576.    

      4 WELLS

                 RECHARGE =  1.000000E-03

 REUSING STREAM SEGMENT DATA FROM LAST STRESS PERIOD
 
 SOLVING FOR HEAD 


     6 CALLS TO PCG ROUTINE FOR TIME STEP   1 IN STRESS PERIOD    8
    22 TOTAL ITERATIONS

 OUTPUT CONTROL FOR STRESS PERIOD    8   TIME STEP    1
    SAVE BUDGET
    SAVE HEAD FOR ALL LAYERS
    PRINT HEAD FOR ALL LAYERS
 UBDSV2 SAVING "STREAMFLOW OUT  " ON UNIT  50 AT TIME STEP  1, STRESS PERIOD   8



 STREAM LISTING     PERIOD      8   STEP        1

 LAYER ROW COL. STREAM  RCH.  FLOW INTO     FLOW TO   FLOW OUT OF   OVRLND.     DIRECT     STREAM       STREAM     STREAM     STREAM   STREAMBED  STREAMBED
                SEG.NO.  NO.  STRM. RCH.    AQUIFER    STRM. RCH.    RUNOFF     PRECIP       ET          HEAD       DEPTH      WIDTH   CONDCTNC.   GRADIENT

   1   13    1     1     1    1.0000E+05 -1.0775E+03   1.0108E+05  0.000E+00  0.000E+00  0.000E+00  4.84065E+01  1.451E-01  2.000E+01  2.000E+04 -5.388E-02
   1   13    2     1     2    1.0108E+05 -1.9771E+03   1.0305E+05  0.000E+00  0.000E+00  0.000E+00  4.79305E+01  1.464E-01  2.000E+01  2.000E+04 -9.885E-02
   1   14    3     1     3    1.0305E+05 -3.9677E+02   1.0345E+05  0.000E+00  0.000E+00  0.000E+00  4.74543E+01  1.475E-01  2.000E+01  2.000E+04 -1.984E-02
   1   15    4     1     4    1.0345E+05 -3.8697E+02   1.0384E+05  0.000E+00  0.000E+00  0.000E+00  4.69773E+01  1.478E-01  2.000E+01  2.000E+04 -1.935E-02
   1   16    5     1     5    1.0384E+05 -1.4857E+03   1.0532E+05  0.000E+00  0.000E+00  0.000E+00  4.65009E+01  1.486E-01  2.000E+01  2.000E+04 -7.428E-02
   1   16    6     1     6    1.0532E+05 -9.1741E+02   1.0624E+05  0.000E+00  0.000E+00  0.000E+00  4.60246E+01  1.496E-01  2.000E+01  2.000E+04 -4.587E-02
   1   16    7     1     7    1.0624E+05 -8.7606E+02   1.0712E+05  0.000E+00  0.000E+00  0.000E+00  4.55481E+01  1.504E-01  2.000E+01  2.000E+04 -4.380E-02
   1   16    8     1     8    1.0712E+05 -8.3838E+02   1.0796E+05  0.000E+00  0.000E+00  0.000E+00  4.50716E+01  1.511E-01  2.000E+01  2.000E+04 -4.192E-02
   1   16    9     1     9    1.0796E+05 -7.8314E+02   1.0874E+05  0.000E+00  0.000E+00  0.000E+00  4.45950E+01  1.518E-01  2.000E+01  2.000E+04 -3.916E-02
   1   16   10     1    10    1.0874E+05 -7.0154E+02   1.0944E+05  0.000E+00  0.000E+00  0.000E+00  4.41183E+01  1.524E-01  2.000E+01  2.000E+04 -3.508E-02
   1   16   11     1    11    1.0944E+05 -5.8416E+02   1.1002E+05  0.000E+00  0.000E+00  0.000E+00  4.36416E+01  1.529E-01  2.000E+01  2.000E+04 -2.921E-02
   1   16   12     1    12    1.1002E+05 -5.8812E+02   1.1061E+05  0.000E+00  0.000E+00  0.000E+00  4.31648E+01  1.534E-01  2.000E+01  2.000E+04 -2.941E-02
   1   15   13     1    13    1.1061E+05 -4.0550E+02   1.1102E+05  0.000E+00  0.000E+00  0.000E+00  4.26879E+01  1.538E-01  2.000E+01  2.000E+04 -2.028E-02
   1   14   14     1    14    1.1102E+05 -5.4268E+02   1.1156E+05  0.000E+00  0.000E+00  0.000E+00  4.22111E+01  1.542E-01  2.000E+01  2.000E+04 -2.713E-02
   1   13   15     1    15    1.1156E+05 -6.1141E+02   1.1217E+05  0.000E+00  0.000E+00  0.000E+00  4.17343E+01  1.547E-01  2.000E+01  2.000E+04 -3.057E-02
   1   12   16     1    16    1.1217E+05 -3.9214E+02   1.1256E+05  0.000E+00  0.000E+00  0.000E+00  4.12574E+01  1.551E-01  2.000E+01  2.000E+04 -1.961E-02
   1   12   17     1    17    1.1256E+05 -3.2700E+02   1.1289E+05  0.000E+00  0.000E+00  0.000E+00  4.07804E+01  1.554E-01  2.000E+01  2.000E+04 -1.635E-02
   1   12   18     1    18    1.1289E+05 -5.5432E+02   1.1345E+05  0.000E+00  0.000E+00  0.000E+00  4.03035E+01  1.558E-01  2.000E+01  2.000E+04 -2.772E-02
   1   12   19     1    19    1.1345E+05 -1.0850E+03   1.1453E+05  0.000E+00  0.000E+00  0.000E+00  3.98269E+01  1.565E-01  2.000E+01  2.000E+04 -5.425E-02
   1   13   20     1    20    1.1453E+05 -9.5841E+02   1.1549E+05  0.000E+00  0.000E+00  0.000E+00  3.93505E+01  1.573E-01  2.000E+01  2.000E+04 -4.792E-02
   1   14   21     1    21    1.1549E+05 -8.3837E+02   1.1633E+05  0.000E+00  0.000E+00  0.000E+00  3.88740E+01  1.580E-01  2.000E+01  2.000E+04 -4.192E-02
   1   14   22     1    22    1.1633E+05  5.0287E+03   1.1130E+05  0.000E+00  0.000E+00  0.000E+00  3.83950E+01  1.563E-01  2.000E+01  2.000E+04  2.514E-01
   1    9   30     2     1    5.0000E+04 -1.4439E+02   5.0144E+04  0.000E+00  0.000E+00  0.000E+00  4.02410E+01  1.160E-01  2.000E+01  2.000E+04 -7.219E-03
   1    9   29     2     2    5.0144E+04 -3.1291E+02   5.0457E+04  0.000E+00  0.000E+00  0.000E+00  3.99913E+01  1.163E-01  2.000E+01  2.000E+04 -1.565E-02
   1    9   28     2     3    5.0457E+04 -1.7016E+02   5.0627E+04  0.000E+00  0.000E+00  0.000E+00  3.97416E+01  1.166E-01  2.000E+01  2.000E+04 -8.508E-03
   1    9   27     2     4    5.0627E+04  8.9417E+02   4.9733E+04  0.000E+00  0.000E+00  0.000E+00  3.94911E+01  1.161E-01  2.000E+01  2.000E+04  4.471E-02
   1   10   26     2     5    4.9733E+04  4.7125E+02   4.9262E+04  0.000E+00  0.000E+00  0.000E+00  3.92402E+01  1.152E-01  2.000E+01  2.000E+04  2.356E-02
   1   11   25     2     6    4.9262E+04 -4.9642E+02   4.9758E+04  0.000E+00  0.000E+00  0.000E+00  3.89902E+01  1.152E-01  2.000E+01  2.000E+04 -2.482E-02
   1   12   24     2     7    4.9758E+04 -8.7471E+02   5.0633E+04  0.000E+00  0.000E+00  0.000E+00  3.87411E+01  1.161E-01  2.000E+01  2.000E+04 -4.374E-02
   1   13   23     2     8    5.0633E+04 -1.7542E+02   5.0809E+04  0.000E+00  0.000E+00  0.000E+00  3.84919E+01  1.169E-01  2.000E+01  2.000E+04 -8.771E-03
   1   14   22     2     9    5.0809E+04  1.9422E+03   4.8866E+04  0.000E+00  0.000E+00  0.000E+00  3.82406E+01  1.156E-01  2.000E+01  2.000E+04  9.711E-02
   1   14   22     3     1    1.6017E+05 -8.5242E+03   1.6869E+05  0.000E+00  0.000E+00  0.000E+00  3.77173E+01  1.618E-01  2.000E+01  2.000E+04 -4.262E-01
   1   15   23     3     2    1.6869E+05 -4.2934E+02   1.6912E+05  0.000E+00  0.000E+00  0.000E+00  3.68311E+01  1.644E-01  2.000E+01  2.000E+04 -2.147E-02
   1   15   24     3     3    1.6912E+05 -2.5286E+02   1.6937E+05  0.000E+00  0.000E+00  0.000E+00  3.59424E+01  1.646E-01  2.000E+01  2.000E+04 -1.264E-02
   1   15   25     3     4    1.6937E+05 -2.5660E+02   1.6963E+05  0.000E+00  0.000E+00  0.000E+00  3.50536E+01  1.647E-01  2.000E+01  2.000E+04 -1.283E-02
   1   15   26     3     5    1.6963E+05 -3.2232E+02   1.6995E+05  0.000E+00  0.000E+00  0.000E+00  3.41649E+01  1.649E-01  2.000E+01  2.000E+04 -1.612E-02
   1   16   27     3     6    1.6995E+05 -3.4582E+02   1.7030E+05  0.000E+00  0.000E+00  0.000E+00  3.32762E+01  1.651E-01  2.000E+01  2.000E+04 -1.729E-02
   1   17   28     3     7    1.7030E+05 -1.4711E+03   1.7177E+05  0.000E+00  0.000E+00  0.000E+00  3.23879E+01  1.656E-01  2.000E+01  2.000E+04 -7.355E-02
   1   18   29     3     8    1.7177E+05 -2.7130E+03   1.7448E+05  0.000E+00  0.000E+00  0.000E+00  3.15002E+01  1.668E-01  2.000E+01  2.000E+04 -1.357E-01
   1   18   30     3     9    1.7448E+05 -3.0667E+03   1.7755E+05  0.000E+00  0.000E+00  0.000E+00  3.06130E+01  1.685E-01  2.000E+01  2.000E+04 -1.533E-01



1
              HEAD IN LAYER   1 AT END OF TIME STEP   1 IN STRESS PERIOD    8
  ---------------------------------------------------------------------------

          1      2      3      4      5      6      7      8      9     10
         11     12     13     14     15     16     17     18     19     20
         21     22     23     24     25     26     27     28     29     30
 .........................................................................
   1  ****** ****** ****** ****** ****** ****** ****** ****** ****** ******
      ****** ****** ****** ****** ****** ****** ****** ****** ****** ******
      ****** ****** ****** ****** ****** ****** ****** ****** ****** ******
   2  ****** ****** ****** ****** ****** ****** ****** ****** ****** ******
      ****** ****** ****** ****** ****** ****** ****** ****** ****** ******
      ****** ****** ****** ****** ****** ****** ****** ****** ****** ******
   3  ****** ****** ****** ****** ****** ****** ****** ****** ****** ******
      ****** ****** ****** ****** ****** ****** ****** ****** ****** ******
      ****** ****** ****** ****** ****** ****** ****** ****** ****** ******
   4  ****** ****** ****** ****** ****** ****** ****** ****** ****** ******
      ****** ****** ****** ****** ****** ****** ****** ****** ****** ******
      ****** ****** ****** ****** ****** ****** ****** ****** ****** ******
   5  ****** ****** ****** ****** ****** ****** ****** ****** ****** ******
      ****** ****** ****** ****** ****** ****** ****** ****** ****** ******
      ****** ****** ****** ****** ****** ****** ****** ****** ****** ******
   6  ****** ****** ****** ****** ****** ****** ****** ****** ****** ******
      ****** ****** ****** ****** ****** ****** ****** ****** ****** ******
      ****** ****** ****** ****** ****** ****** ****** ****** ****** ******
   7  ****** ****** ****** ****** ****** ****** ****** ****** ****** ******
      ****** ****** ****** ****** ****** ****** ****** ****** ****** ******
      ****** ****** ****** ****** ****** ****** ****** ****** ****** ******
   8  ****** ****** ****** ****** ****** ****** ****** ****** ****** ******
      ****** ****** ****** ****** ****** ****** ****** ****** ****** ******
      ****** ****** ****** ****** ****** ****** ****** ****** ****** ******
   9  ****** ****** ****** ****** ****** ****** ****** ****** ****** ******
      ****** ****** ****** ****** ****** ****** ****** ****** ****** ******
      ****** ****** ****** ****** ****** ****** ****** ****** ****** ******
  10  ****** ****** ****** ****** ****** ****** ****** ****** ****** ******
      ****** ****** ****** ****** ****** ****** ****** ****** ****** ******
      ****** ****** ****** ****** ****** ****** ****** ****** ****** ******
  11  ****** ****** ****** ****** ****** ****** ****** ****** ****** ******
      ****** ****** ****** ****** ****** ****** ****** ****** ****** ******
      ****** ****** ****** ****** ****** ****** ****** ****** ****** ******
  12  ****** ****** ****** ****** ****** ****** ****** ****** ****** ******
      ****** ****** ****** ****** ****** ****** ****** ****** ****** ******
      ****** ****** ****** ****** ****** ****** ****** ****** ****** ******
  13  ****** ****** ****** ****** ****** ****** ****** ****** ****** ******
      ****** ****** ****** ****** ****** ****** ****** ****** ****** ******
      ****** ****** ****** ****** ****** ****** ****** ****** ****** ******
  14  ****** ****** ****** ****** ****** ****** ****** ****** ****** ******
      ****** ****** ****** ****** ****** ****** ****** ****** ****** ******
      ****** ****** ****** ****** ****** ****** ****** ****** ****** ******
  15  ****** ****** ****** ****** ****** ****** ****** ****** ****** ******
      ****** ****** ****** ****** ****** ****** ****** ****** ****** ******
      ****** ****** ****** ****** ****** ****** ****** ****** ****** ******
  16  ****** ****** ****** ****** ****** ****** ****** ****** ****** ******
      ****** ****** ****** ****** ****** ****** ****** ****** ****** ******
      ****** ****** ****** ****** ****** ****** ****** ****** ****** ******
  17  ****** ****** ****** ****** ****** ****** ****** ****** ****** ******
      ****** ****** ****** ****** ****** ****** ****** ****** ****** ******
      ****** ****** ****** ****** ****** ****** ****** ****** ****** ******
  18  ****** ****** ****** ****** ****** ****** ****** ****** ****** ******
      ****** ****** ****** ****** ****** ****** ****** ****** ****** ******
      ****** ****** ****** ****** ****** ****** ****** ****** ****** ******
  19  ****** ****** ****** ****** ****** ****** ****** ****** ****** ******
      ****** ****** ****** ****** ****** ****** ****** ****** ****** ******
      ****** ****** ****** ****** ****** ****** ****** ****** ****** ******
  20  ****** ****** ****** ****** ****** ****** ****** ****** ****** ******
      ****** ****** ****** ****** ****** ****** ****** ****** ****** ******
      ****** ****** ****** ****** ****** ****** ****** ****** ****** ******
  21  ****** ****** ****** ****** ****** ****** ****** ****** ****** ******
      ****** ****** ****** ****** ****** ****** ****** ****** ****** ******
      ****** ****** ****** ****** ****** ****** ****** ****** ****** ******
  22  ****** ****** ****** ****** ****** ****** ****** ****** ****** ******
      ****** ****** ****** ****** ****** ****** ****** ****** ****** ******
      ****** ****** ****** ****** ****** ****** ****** ****** ****** ******
  23  ****** ****** ****** ****** ****** ****** ****** ****** ****** ******
      ****** ****** ****** ****** ****** ****** ****** ****** ****** ******
      ****** ****** ****** ****** ****** ****** ****** ****** ****** ******
  24  ****** ****** ****** ****** ****** ****** ****** ****** ****** ******
      ****** ****** ****** ****** ****** ****** ****** ****** ****** ******
      ****** ****** ****** ****** ****** ****** ****** ****** ****** ******
  25  ****** ****** ****** ****** ****** ****** ****** ****** ****** ******
      ****** ****** ****** ****** ****** ****** ****** ****** ****** ******
      ****** ****** ****** ****** ****** ****** ****** ****** ****** ******

 HEAD WILL BE SAVED ON UNIT   51 AT END OF TIME STEP    1, STRESS PERIOD    8
1
  VOLUMETRIC BUDGET FOR ENTIRE MODEL AT END OF TIME STEP    1, STRESS PERIOD   8
  ------------------------------------------------------------------------------

     CUMULATIVE VOLUMES      L**3       RATES FOR THIS TIME STEP      L**3/T
     ------------------                 ------------------------

           IN:                                      IN:
           ---                                      ---
             STORAGE =    35445227.1810               STORAGE =        2222.0361
       CONSTANT HEAD =    20754815.7877         CONSTANT HEAD =       35912.8650
               WELLS =           0.0000                 WELLS =           0.0000
            RECHARGE =    17608800.0000              RECHARGE =       27600.0000
      STREAM LEAKAGE =     5078815.1944        STREAM LEAKAGE =        8336.3054

            TOTAL IN =    78887658.1631              TOTAL IN =       74071.2065

          OUT:                                     OUT:
          ----                                     ----
             STORAGE =      815652.6901               STORAGE =        1464.6957
       CONSTANT HEAD =           0.0000         CONSTANT HEAD =           0.0000
               WELLS =    26807746.9965                 WELLS =       36722.9411
            RECHARGE =           0.0000              RECHARGE =           0.0000
      STREAM LEAKAGE =    51264260.5038        STREAM LEAKAGE =       35883.5624

           TOTAL OUT =    78887660.1904             TOTAL OUT =       74071.1992

            IN - OUT =          -2.0274              IN - OUT =       7.3305E-03

 PERCENT DISCREPANCY =          -0.00     PERCENT DISCREPANCY =           0.00






         TIME SUMMARY AT END OF TIME STEP    1 IN STRESS PERIOD    8
                    SECONDS     MINUTES      HOURS       DAYS        YEARS
                    -----------------------------------------------------------
   TIME STEP LENGTH 7.86240E+06 1.31040E+05  2184.0      91.000     0.24914    
 STRESS PERIOD TIME 7.86240E+06 1.31040E+05  2184.0      91.000     0.24914    
         TOTAL TIME 6.30720E+07 1.05120E+06  17520.      730.00      1.9986    
1
1
                            STRESS PERIOD NO.    9, LENGTH =   92.00000    
                            -----------------------------------------------

                              NUMBER OF TIME STEPS =     1

                               MULTIPLIER FOR DELT =     1.500

                            INITIAL TIME STEP SIZE =   92.00000    

 WELL NO.  LAYER   ROW   COL   STRESS RATE         
 --------------------------------------------------
      1      1     19     16      -9509.    
      2      1      8     26      -9882.    
      3      1      9     16      -9755.    
      4      1      5      7      -7576.    

      4 WELLS

                 RECHARGE =  5.000000E-04

 REUSING STREAM SEGMENT DATA FROM LAST STRESS PERIOD
 
 SOLVING FOR HEAD 


     6 CALLS TO PCG ROUTINE FOR TIME STEP   1 IN STRESS PERIOD    9
    23 TOTAL ITERATIONS

 OUTPUT CONTROL FOR STRESS PERIOD    9   TIME STEP    1
    SAVE BUDGET
    SAVE HEAD FOR ALL LAYERS
    PRINT HEAD FOR ALL LAYERS
 UBDSV2 SAVING "STREAMFLOW OUT  " ON UNIT  50 AT TIME STEP  1, STRESS PERIOD   9



 STREAM LISTING     PERIOD      9   STEP        1

 LAYER ROW COL. STREAM  RCH.  FLOW INTO     FLOW TO   FLOW OUT OF   OVRLND.     DIRECT     STREAM       STREAM     STREAM     STREAM   STREAMBED  STREAMBED
                SEG.NO.  NO.  STRM. RCH.    AQUIFER    STRM. RCH.    RUNOFF     PRECIP       ET          HEAD       DEPTH      WIDTH   CONDCTNC.   GRADIENT

   1   13    1     1     1    1.0000E+05 -8.4285E+02   1.0084E+05  0.000E+00  0.000E+00  0.000E+00  4.84064E+01  1.450E-01  2.000E+01  2.000E+04 -4.214E-02
   1   13    2     1     2    1.0084E+05 -1.7105E+03   1.0255E+05  0.000E+00  0.000E+00  0.000E+00  4.79302E+01  1.461E-01  2.000E+01  2.000E+04 -8.552E-02
   1   14    3     1     3    1.0255E+05 -3.2241E+02   1.0288E+05  0.000E+00  0.000E+00  0.000E+00  4.74538E+01  1.470E-01  2.000E+01  2.000E+04 -1.612E-02
   1   15    4     1     4    1.0288E+05 -3.1231E+02   1.0319E+05  0.000E+00  0.000E+00  0.000E+00  4.69768E+01  1.473E-01  2.000E+01  2.000E+04 -1.562E-02
   1   16    5     1     5    1.0319E+05 -1.2909E+03   1.0448E+05  0.000E+00  0.000E+00  0.000E+00  4.65002E+01  1.480E-01  2.000E+01  2.000E+04 -6.454E-02
   1   16    6     1     6    1.0448E+05 -7.9474E+02   1.0527E+05  0.000E+00  0.000E+00  0.000E+00  4.60238E+01  1.488E-01  2.000E+01  2.000E+04 -3.974E-02
   1   16    7     1     7    1.0527E+05 -7.5689E+02   1.0603E+05  0.000E+00  0.000E+00  0.000E+00  4.55472E+01  1.495E-01  2.000E+01  2.000E+04 -3.784E-02
   1   16    8     1     8    1.0603E+05 -7.2081E+02   1.0675E+05  0.000E+00  0.000E+00  0.000E+00  4.50706E+01  1.501E-01  2.000E+01  2.000E+04 -3.604E-02
   1   16    9     1     9    1.0675E+05 -6.6749E+02   1.0742E+05  0.000E+00  0.000E+00  0.000E+00  4.45939E+01  1.507E-01  2.000E+01  2.000E+04 -3.337E-02
   1   16   10     1    10    1.0742E+05 -5.8842E+02   1.0801E+05  0.000E+00  0.000E+00  0.000E+00  4.41172E+01  1.512E-01  2.000E+01  2.000E+04 -2.942E-02
   1   16   11     1    11    1.0801E+05 -4.7267E+02   1.0848E+05  0.000E+00  0.000E+00  0.000E+00  4.36403E+01  1.517E-01  2.000E+01  2.000E+04 -2.363E-02
   1   16   12     1    12    1.0848E+05 -3.9642E+02   1.0888E+05  0.000E+00  0.000E+00  0.000E+00  4.31634E+01  1.521E-01  2.000E+01  2.000E+04 -1.982E-02
   1   15   13     1    13    1.0888E+05 -1.8842E+02   1.0906E+05  0.000E+00  0.000E+00  0.000E+00  4.26864E+01  1.523E-01  2.000E+01  2.000E+04 -9.421E-03
   1   14   14     1    14    1.0906E+05 -3.0928E+02   1.0937E+05  0.000E+00  0.000E+00  0.000E+00  4.22093E+01  1.525E-01  2.000E+01  2.000E+04 -1.546E-02
   1   13   15     1    15    1.0937E+05 -3.6983E+02   1.0974E+05  0.000E+00  0.000E+00  0.000E+00  4.17323E+01  1.528E-01  2.000E+01  2.000E+04 -1.849E-02
   1   12   16     1    16    1.0974E+05 -1.3827E+02   1.0988E+05  0.000E+00  0.000E+00  0.000E+00  4.12553E+01  1.530E-01  2.000E+01  2.000E+04 -6.913E-03
   1   12   17     1    17    1.0988E+05 -1.5585E+02   1.1004E+05  0.000E+00  0.000E+00  0.000E+00  4.07781E+01  1.531E-01  2.000E+01  2.000E+04 -7.793E-03
   1   12   18     1    18    1.1004E+05 -3.9215E+02   1.1043E+05  0.000E+00  0.000E+00  0.000E+00  4.03011E+01  1.534E-01  2.000E+01  2.000E+04 -1.961E-02
   1   12   19     1    19    1.1043E+05 -8.9007E+02   1.1132E+05  0.000E+00  0.000E+00  0.000E+00  3.98243E+01  1.539E-01  2.000E+01  2.000E+04 -4.450E-02
   1   13   20     1    20    1.1132E+05 -7.8138E+02   1.1210E+05  0.000E+00  0.000E+00  0.000E+00  3.93478E+01  1.546E-01  2.000E+01  2.000E+04 -3.907E-02
   1   14   21     1    21    1.1210E+05 -6.6525E+02   1.1277E+05  0.000E+00  0.000E+00  0.000E+00  3.88711E+01  1.552E-01  2.000E+01  2.000E+04 -3.326E-02
   1   14   22     1    22    1.1277E+05  5.0667E+03   1.0770E+05  0.000E+00  0.000E+00  0.000E+00  3.83920E+01  1.534E-01  2.000E+01  2.000E+04  2.533E-01
   1    9   30     2     1    5.0000E+04 -1.9454E+01   5.0019E+04  0.000E+00  0.000E+00  0.000E+00  4.02409E+01  1.159E-01  2.000E+01  2.000E+04 -9.727E-04
   1    9   29     2     2    5.0019E+04 -1.8762E+02   5.0207E+04  0.000E+00  0.000E+00  0.000E+00  3.99910E+01  1.160E-01  2.000E+01  2.000E+04 -9.381E-03
   1    9   28     2     3    5.0207E+04 -4.2585E+01   5.0250E+04  0.000E+00  0.000E+00  0.000E+00  3.97412E+01  1.162E-01  2.000E+01  2.000E+04 -2.129E-03
   1    9   27     2     4    5.0250E+04  1.0753E+03   4.9174E+04  0.000E+00  0.000E+00  0.000E+00  3.94905E+01  1.155E-01  2.000E+01  2.000E+04  5.377E-02
   1   10   26     2     5    4.9174E+04  6.4886E+02   4.8525E+04  0.000E+00  0.000E+00  0.000E+00  3.92393E+01  1.143E-01  2.000E+01  2.000E+04  3.244E-02
   1   11   25     2     6    4.8525E+04 -3.2645E+02   4.8852E+04  0.000E+00  0.000E+00  0.000E+00  3.89890E+01  1.140E-01  2.000E+01  2.000E+04 -1.632E-02
   1   12   24     2     7    4.8852E+04 -7.1810E+02   4.9570E+04  0.000E+00  0.000E+00  0.000E+00  3.87398E+01  1.148E-01  2.000E+01  2.000E+04 -3.591E-02
   1   13   23     2     8    4.9570E+04 -1.2770E+02   4.9698E+04  0.000E+00  0.000E+00  0.000E+00  3.84904E+01  1.154E-01  2.000E+01  2.000E+04 -6.385E-03
   1   14   22     2     9    4.9698E+04  2.0076E+03   4.7690E+04  0.000E+00  0.000E+00  0.000E+00  3.82390E+01  1.140E-01  2.000E+01  2.000E+04  1.004E-01
   1   14   22     3     1    1.5539E+05 -8.4837E+03   1.6387E+05  0.000E+00  0.000E+00  0.000E+00  3.77145E+01  1.589E-01  2.000E+01  2.000E+04 -4.242E-01
   1   15   23     3     2    1.6387E+05 -3.7667E+02   1.6425E+05  0.000E+00  0.000E+00  0.000E+00  3.68282E+01  1.615E-01  2.000E+01  2.000E+04 -1.883E-02
   1   15   24     3     3    1.6425E+05 -2.0980E+02   1.6446E+05  0.000E+00  0.000E+00  0.000E+00  3.59395E+01  1.617E-01  2.000E+01  2.000E+04 -1.049E-02
   1   15   25     3     4    1.6446E+05 -2.1330E+02   1.6467E+05  0.000E+00  0.000E+00  0.000E+00  3.50507E+01  1.618E-01  2.000E+01  2.000E+04 -1.066E-02
   1   15   26     3     5    1.6467E+05 -2.7471E+02   1.6495E+05  0.000E+00  0.000E+00  0.000E+00  3.41620E+01  1.620E-01  2.000E+01  2.000E+04 -1.374E-02
   1   16   27     3     6    1.6495E+05 -2.8979E+02   1.6524E+05  0.000E+00  0.000E+00  0.000E+00  3.32733E+01  1.622E-01  2.000E+01  2.000E+04 -1.449E-02
   1   17   28     3     7    1.6524E+05 -1.3175E+03   1.6656E+05  0.000E+00  0.000E+00  0.000E+00  3.23849E+01  1.626E-01  2.000E+01  2.000E+04 -6.587E-02
   1   18   29     3     8    1.6656E+05 -2.5368E+03   1.6909E+05  0.000E+00  0.000E+00  0.000E+00  3.14971E+01  1.638E-01  2.000E+01  2.000E+04 -1.268E-01
   1   18   30     3     9    1.6909E+05 -2.9344E+03   1.7203E+05  0.000E+00  0.000E+00  0.000E+00  3.06098E+01  1.654E-01  2.000E+01  2.000E+04 -1.467E-01



1
              HEAD IN LAYER   1 AT END OF TIME STEP   1 IN STRESS PERIOD    9
  ---------------------------------------------------------------------------

          1      2      3      4      5      6      7      8      9     10
         11     12     13     14     15     16     17     18     19     20
         21     22     23     24     25     26     27     28     29     30
 .........................................................................
   1  ****** ****** ****** ****** ****** ****** ****** ****** ****** ******
      ****** ****** ****** ****** ****** ****** ****** ****** ****** ******
      ****** ****** ****** ****** ****** ****** ****** ****** ****** ******
   2  ****** ****** ****** ****** ****** ****** ****** ****** ****** ******
      ****** ****** ****** ****** ****** ****** ****** ****** ****** ******
      ****** ****** ****** ****** ****** ****** ****** ****** ****** ******
   3  ****** ****** ****** ****** ****** ****** ****** ****** ****** ******
      ****** ****** ****** ****** ****** ****** ****** ****** ****** ******
      ****** ****** ****** ****** ****** ****** ****** ****** ****** ******
   4  ****** ****** ****** ****** ****** ****** ****** ****** ****** ******
      ****** ****** ****** ****** ****** ****** ****** ****** ****** ******
      ****** ****** ****** ****** ****** ****** ****** ****** ****** ******
   5  ****** ****** ****** ****** ****** ****** ****** ****** ****** ******
      ****** ****** ****** ****** ****** ****** ****** ****** ****** ******
      ****** ****** ****** ****** ****** ****** ****** ****** ****** ******
   6  ****** ****** ****** ****** ****** ****** ****** ****** ****** ******
      ****** ****** ****** ****** ****** ****** ****** ****** ****** ******
      ****** ****** ****** ****** ****** ****** ****** ****** ****** ******
   7  ****** ****** ****** ****** ****** ****** ****** ****** ****** ******
      ****** ****** ****** ****** ****** ****** ****** ****** ****** ******
      ****** ****** ****** ****** ****** ****** ****** ****** ****** ******
   8  ****** ****** ****** ****** ****** ****** ****** ****** ****** ******
      ****** ****** ****** ****** ****** ****** ****** ****** ****** ******
      ****** ****** ****** ****** ****** ****** ****** ****** ****** ******
   9  ****** ****** ****** ****** ****** ****** ****** ****** ****** ******
      ****** ****** ****** ****** ****** ****** ****** ****** ****** ******
      ****** ****** ****** ****** ****** ****** ****** ****** ****** ******
  10  ****** ****** ****** ****** ****** ****** ****** ****** ****** ******
      ****** ****** ****** ****** ****** ****** ****** ****** ****** ******
      ****** ****** ****** ****** ****** ****** ****** ****** ****** ******
  11  ****** ****** ****** ****** ****** ****** ****** ****** ****** ******
      ****** ****** ****** ****** ****** ****** ****** ****** ****** ******
      ****** ****** ****** ****** ****** ****** ****** ****** ****** ******
  12  ****** ****** ****** ****** ****** ****** ****** ****** ****** ******
      ****** ****** ****** ****** ****** ****** ****** ****** ****** ******
      ****** ****** ****** ****** ****** ****** ****** ****** ****** ******
  13  ****** ****** ****** ****** ****** ****** ****** ****** ****** ******
      ****** ****** ****** ****** ****** ****** ****** ****** ****** ******
      ****** ****** ****** ****** ****** ****** ****** ****** ****** ******
  14  ****** ****** ****** ****** ****** ****** ****** ****** ****** ******
      ****** ****** ****** ****** ****** ****** ****** ****** ****** ******
      ****** ****** ****** ****** ****** ****** ****** ****** ****** ******
  15  ****** ****** ****** ****** ****** ****** ****** ****** ****** ******
      ****** ****** ****** ****** ****** ****** ****** ****** ****** ******
      ****** ****** ****** ****** ****** ****** ****** ****** ****** ******
  16  ****** ****** ****** ****** ****** ****** ****** ****** ****** ******
      ****** ****** ****** ****** ****** ****** ****** ****** ****** ******
      ****** ****** ****** ****** ****** ****** ****** ****** ****** ******
  17  ****** ****** ****** ****** ****** ****** ****** ****** ****** ******
      ****** ****** ****** ****** ****** ****** ****** ****** ****** ******
      ****** ****** ****** ****** ****** ****** ****** ****** ****** ******
  18  ****** ****** ****** ****** ****** ****** ****** ****** ****** ******
      ****** ****** ****** ****** ****** ****** ****** ****** ****** ******
      ****** ****** ****** ****** ****** ****** ****** ****** ****** ******
  19  ****** ****** ****** ****** ****** ****** ****** ****** ****** ******
      ****** ****** ****** ****** ****** ****** ****** ****** ****** ******
      ****** ****** ****** ****** ****** ****** ****** ****** ****** ******
  20  ****** ****** ****** ****** ****** ****** ****** ****** ****** ******
      ****** ****** ****** ****** ****** ****** ****** ****** ****** ******
      ****** ****** ****** ****** ****** ****** ****** ****** ****** ******
  21  ****** ****** ****** ****** ****** ****** ****** ****** ****** ******
      ****** ****** ****** ****** ****** ****** ****** ****** ****** ******
      ****** ****** ****** ****** ****** ****** ****** ****** ****** ******
  22  ****** ****** ****** ****** ****** ****** ****** ****** ****** ******
      ****** ****** ****** ****** ****** ****** ****** ****** ****** ******
      ****** ****** ****** ****** ****** ****** ****** ****** ****** ******
  23  ****** ****** ****** ****** ****** ****** ****** ****** ****** ******
      ****** ****** ****** ****** ****** ****** ****** ****** ****** ******
      ****** ****** ****** ****** ****** ****** ****** ****** ****** ******
  24  ****** ****** ****** ****** ****** ****** ****** ****** ****** ******
      ****** ****** ****** ****** ****** ****** ****** ****** ****** ******
      ****** ****** ****** ****** ****** ****** ****** ****** ****** ******
  25  ****** ****** ****** ****** ****** ****** ****** ****** ****** ******
      ****** ****** ****** ****** ****** ****** ****** ****** ****** ******
      ****** ****** ****** ****** ****** ****** ****** ****** ****** ******

 HEAD WILL BE SAVED ON UNIT   51 AT END OF TIME STEP    1, STRESS PERIOD    9
1
  VOLUMETRIC BUDGET FOR ENTIRE MODEL AT END OF TIME STEP    1, STRESS PERIOD   9
  ------------------------------------------------------------------------------

     CUMULATIVE VOLUMES      L**3       RATES FOR THIS TIME STEP      L**3/T
     ------------------                 ------------------------

           IN:                                      IN:
           ---                                      ---
             STORAGE =    36162988.5795               STORAGE =        7801.7543
       CONSTANT HEAD =    24172436.5630         CONSTANT HEAD =       37148.0519
               WELLS =           0.0000                 WELLS =           0.0000
            RECHARGE =    18878400.0000              RECHARGE =       13800.0000
      STREAM LEAKAGE =     5888280.5158        STREAM LEAKAGE =        8798.5361

            TOTAL IN =    85102105.6583              TOTAL IN =       67548.3423

          OUT:                                     OUT:
          ----                                     ----
             STORAGE =      815652.6901               STORAGE =           0.0000
       CONSTANT HEAD =           0.0000         CONSTANT HEAD =           0.0000
               WELLS =    30186257.5769                 WELLS =       36722.9411
            RECHARGE =           0.0000              RECHARGE =           0.0000
      STREAM LEAKAGE =    54100197.4979        STREAM LEAKAGE =       30825.4021

           TOTAL OUT =    85102107.7649             TOTAL OUT =       67548.3432

            IN - OUT =          -2.1065              IN - OUT =      -8.6020E-04

 PERCENT DISCREPANCY =          -0.00     PERCENT DISCREPANCY =          -0.00






         TIME SUMMARY AT END OF TIME STEP    1 IN STRESS PERIOD    9
                    SECONDS     MINUTES      HOURS       DAYS        YEARS
                    -----------------------------------------------------------
   TIME STEP LENGTH 7.94880E+06 1.32480E+05  2208.0      92.000     0.25188    
 STRESS PERIOD TIME 7.94880E+06 1.32480E+05  2208.0      92.000     0.25188    
         TOTAL TIME 7.10208E+07 1.18368E+06  19728.      822.00      2.2505    
1
1
                            STRESS PERIOD NO.   10, LENGTH =   91.00000    
                            -----------------------------------------------

                              NUMBER OF TIME STEPS =     1

                               MULTIPLIER FOR DELT =     1.500

                            INITIAL TIME STEP SIZE =   91.00000    

 WELL NO.  LAYER   ROW   COL   STRESS RATE         
 --------------------------------------------------
      1      1     19     16      -9509.    
      2      1      8     26      -9882.    
      3      1      9     16      -9755.    
      4      1      5      7      -7576.    

      4 WELLS

                 RECHARGE =  2.000000E-03

 REUSING STREAM SEGMENT DATA FROM LAST STRESS PERIOD
 
 SOLVING FOR HEAD 


     7 CALLS TO PCG ROUTINE FOR TIME STEP   1 IN STRESS PERIOD   10
    26 TOTAL ITERATIONS

 OUTPUT CONTROL FOR STRESS PERIOD   10   TIME STEP    1
    SAVE BUDGET
    SAVE HEAD FOR ALL LAYERS
    PRINT HEAD FOR ALL LAYERS
 UBDSV2 SAVING "STREAMFLOW OUT  " ON UNIT  50 AT TIME STEP  1, STRESS PERIOD  10



 STREAM LISTING     PERIOD     10   STEP        1

 LAYER ROW COL. STREAM  RCH.  FLOW INTO     FLOW TO   FLOW OUT OF   OVRLND.     DIRECT     STREAM       STREAM     STREAM     STREAM   STREAMBED  STREAMBED
                SEG.NO.  NO.  STRM. RCH.    AQUIFER    STRM. RCH.    RUNOFF     PRECIP       ET          HEAD       DEPTH      WIDTH   CONDCTNC.   GRADIENT

   1   13    1     1     1    1.0000E+05 -1.2809E+03   1.0128E+05  0.000E+00  0.000E+00  0.000E+00  4.84066E+01  1.452E-01  2.000E+01  2.000E+04 -6.404E-02
   1   13    2     1     2    1.0128E+05 -2.1949E+03   1.0348E+05  0.000E+00  0.000E+00  0.000E+00  4.79308E+01  1.467E-01  2.000E+01  2.000E+04 -1.097E-01
   1   14    3     1     3    1.0348E+05 -5.0634E+02   1.0398E+05  0.000E+00  0.000E+00  0.000E+00  4.74547E+01  1.479E-01  2.000E+01  2.000E+04 -2.532E-02
   1   15    4     1     4    1.0398E+05 -5.0965E+02   1.0449E+05  0.000E+00  0.000E+00  0.000E+00  4.69778E+01  1.483E-01  2.000E+01  2.000E+04 -2.548E-02
   1   16    5     1     5    1.0449E+05 -1.9082E+03   1.0640E+05  0.000E+00  0.000E+00  0.000E+00  4.65016E+01  1.493E-01  2.000E+01  2.000E+04 -9.541E-02
   1   16    6     1     6    1.0640E+05 -1.1550E+03   1.0756E+05  0.000E+00  0.000E+00  0.000E+00  4.60256E+01  1.506E-01  2.000E+01  2.000E+04 -5.775E-02
   1   16    7     1     7    1.0756E+05 -1.0992E+03   1.0865E+05  0.000E+00  0.000E+00  0.000E+00  4.55493E+01  1.516E-01  2.000E+01  2.000E+04 -5.496E-02
   1   16    8     1     8    1.0865E+05 -1.0577E+03   1.0971E+05  0.000E+00  0.000E+00  0.000E+00  4.50729E+01  1.525E-01  2.000E+01  2.000E+04 -5.289E-02
   1   16    9     1     9    1.0971E+05 -1.0031E+03   1.1072E+05  0.000E+00  0.000E+00  0.000E+00  4.45965E+01  1.533E-01  2.000E+01  2.000E+04 -5.016E-02
   1   16   10     1    10    1.1072E+05 -9.2462E+02   1.1164E+05  0.000E+00  0.000E+00  0.000E+00  4.41201E+01  1.541E-01  2.000E+01  2.000E+04 -4.623E-02
   1   16   11     1    11    1.1164E+05 -8.1282E+02   1.1245E+05  0.000E+00  0.000E+00  0.000E+00  4.36435E+01  1.549E-01  2.000E+01  2.000E+04 -4.064E-02
   1   16   12     1    12    1.1245E+05 -9.6355E+02   1.1342E+05  0.000E+00  0.000E+00  0.000E+00  4.31670E+01  1.556E-01  2.000E+01  2.000E+04 -4.818E-02
   1   15   13     1    13    1.1342E+05 -7.6962E+02   1.1419E+05  0.000E+00  0.000E+00  0.000E+00  4.26904E+01  1.563E-01  2.000E+01  2.000E+04 -3.848E-02
   1   14   14     1    14    1.1419E+05 -8.9564E+02   1.1508E+05  0.000E+00  0.000E+00  0.000E+00  4.22138E+01  1.570E-01  2.000E+01  2.000E+04 -4.478E-02
   1   13   15     1    15    1.1508E+05 -9.4456E+02   1.1603E+05  0.000E+00  0.000E+00  0.000E+00  4.17373E+01  1.578E-01  2.000E+01  2.000E+04 -4.723E-02
   1   12   16     1    16    1.1603E+05 -6.8869E+02   1.1671E+05  0.000E+00  0.000E+00  0.000E+00  4.12607E+01  1.584E-01  2.000E+01  2.000E+04 -3.443E-02
   1   12   17     1    17    1.1671E+05 -5.7566E+02   1.1729E+05  0.000E+00  0.000E+00  0.000E+00  4.07839E+01  1.589E-01  2.000E+01  2.000E+04 -2.878E-02
   1   12   18     1    18    1.1729E+05 -8.0884E+02   1.1810E+05  0.000E+00  0.000E+00  0.000E+00  4.03072E+01  1.595E-01  2.000E+01  2.000E+04 -4.044E-02
   1   12   19     1    19    1.1810E+05 -1.4032E+03   1.1950E+05  0.000E+00  0.000E+00  0.000E+00  3.98309E+01  1.604E-01  2.000E+01  2.000E+04 -7.016E-02
   1   13   20     1    20    1.1950E+05 -1.3003E+03   1.2080E+05  0.000E+00  0.000E+00  0.000E+00  3.93547E+01  1.615E-01  2.000E+01  2.000E+04 -6.501E-02
   1   14   21     1    21    1.2080E+05 -1.1893E+03   1.2199E+05  0.000E+00  0.000E+00  0.000E+00  3.88784E+01  1.625E-01  2.000E+01  2.000E+04 -5.946E-02
   1   14   22     1    22    1.2199E+05  4.9394E+03   1.1705E+05  0.000E+00  0.000E+00  0.000E+00  3.83996E+01  1.610E-01  2.000E+01  2.000E+04  2.470E-01
   1    9   30     2     1    5.0000E+04 -4.3264E+02   5.0433E+04  0.000E+00  0.000E+00  0.000E+00  4.02412E+01  1.162E-01  2.000E+01  2.000E+04 -2.163E-02
   1    9   29     2     2    5.0433E+04 -5.9842E+02   5.1031E+04  0.000E+00  0.000E+00  0.000E+00  3.99919E+01  1.169E-01  2.000E+01  2.000E+04 -2.992E-02
   1    9   28     2     3    5.1031E+04 -4.5233E+02   5.1483E+04  0.000E+00  0.000E+00  0.000E+00  3.97426E+01  1.176E-01  2.000E+01  2.000E+04 -2.262E-02
   1    9   27     2     4    5.1483E+04  5.2543E+02   5.0958E+04  0.000E+00  0.000E+00  0.000E+00  3.94926E+01  1.176E-01  2.000E+01  2.000E+04  2.627E-02
   1   10   26     2     5    5.0958E+04  9.8605E+01   5.0859E+04  0.000E+00  0.000E+00  0.000E+00  3.92421E+01  1.171E-01  2.000E+01  2.000E+04  4.930E-03
   1   11   25     2     6    5.0859E+04 -8.5226E+02   5.1712E+04  0.000E+00  0.000E+00  0.000E+00  3.89926E+01  1.176E-01  2.000E+01  2.000E+04 -4.261E-02
   1   12   24     2     7    5.1712E+04 -1.1937E+03   5.2905E+04  0.000E+00  0.000E+00  0.000E+00  3.87440E+01  1.190E-01  2.000E+01  2.000E+04 -5.969E-02
   1   13   23     2     8    5.2905E+04 -2.7598E+02   5.3181E+04  0.000E+00  0.000E+00  0.000E+00  3.84950E+01  1.200E-01  2.000E+01  2.000E+04 -1.380E-02
   1   14   22     2     9    5.3181E+04  1.8267E+03   5.1355E+04  0.000E+00  0.000E+00  0.000E+00  3.82440E+01  1.190E-01  2.000E+01  2.000E+04  9.134E-02
   1   14   22     3     1    1.6841E+05 -8.6098E+03   1.7702E+05  0.000E+00  0.000E+00  0.000E+00  3.77222E+01  1.666E-01  2.000E+01  2.000E+04 -4.305E-01
   1   15   23     3     2    1.7702E+05 -5.3913E+02   1.7756E+05  0.000E+00  0.000E+00  0.000E+00  3.68359E+01  1.692E-01  2.000E+01  2.000E+04 -2.696E-02
   1   15   24     3     3    1.7756E+05 -3.4694E+02   1.7790E+05  0.000E+00  0.000E+00  0.000E+00  3.59473E+01  1.695E-01  2.000E+01  2.000E+04 -1.735E-02
   1   15   25     3     4    1.7790E+05 -3.5385E+02   1.7826E+05  0.000E+00  0.000E+00  0.000E+00  3.50586E+01  1.697E-01  2.000E+01  2.000E+04 -1.769E-02
   1   15   26     3     5    1.7826E+05 -4.3693E+02   1.7869E+05  0.000E+00  0.000E+00  0.000E+00  3.41699E+01  1.699E-01  2.000E+01  2.000E+04 -2.185E-02
   1   16   27     3     6    1.7869E+05 -4.7561E+02   1.7917E+05  0.000E+00  0.000E+00  0.000E+00  3.32813E+01  1.702E-01  2.000E+01  2.000E+04 -2.378E-02
   1   17   28     3     7    1.7917E+05 -1.8380E+03   1.8101E+05  0.000E+00  0.000E+00  0.000E+00  3.23931E+01  1.708E-01  2.000E+01  2.000E+04 -9.190E-02
   1   18   29     3     8    1.8101E+05 -3.0880E+03   1.8410E+05  0.000E+00  0.000E+00  0.000E+00  3.15056E+01  1.722E-01  2.000E+01  2.000E+04 -1.544E-01
   1   18   30     3     9    1.8410E+05 -3.3596E+03   1.8745E+05  0.000E+00  0.000E+00  0.000E+00  3.06185E+01  1.741E-01  2.000E+01  2.000E+04 -1.680E-01



1
              HEAD IN LAYER   1 AT END OF TIME STEP   1 IN STRESS PERIOD   10
  ---------------------------------------------------------------------------

          1      2      3      4      5      6      7      8      9     10
         11     12     13     14     15     16     17     18     19     20
         21     22     23     24     25     26     27     28     29     30
 .........................................................................
   1  ****** ****** ****** ****** ****** ****** ****** ****** ****** ******
      ****** ****** ****** ****** ****** ****** ****** ****** ****** ******
      ****** ****** ****** ****** ****** ****** ****** ****** ****** ******
   2  ****** ****** ****** ****** ****** ****** ****** ****** ****** ******
      ****** ****** ****** ****** ****** ****** ****** ****** ****** ******
      ****** ****** ****** ****** ****** ****** ****** ****** ****** ******
   3  ****** ****** ****** ****** ****** ****** ****** ****** ****** ******
      ****** ****** ****** ****** ****** ****** ****** ****** ****** ******
      ****** ****** ****** ****** ****** ****** ****** ****** ****** ******
   4  ****** ****** ****** ****** ****** ****** ****** ****** ****** ******
      ****** ****** ****** ****** ****** ****** ****** ****** ****** ******
      ****** ****** ****** ****** ****** ****** ****** ****** ****** ******
   5  ****** ****** ****** ****** ****** ****** ****** ****** ****** ******
      ****** ****** ****** ****** ****** ****** ****** ****** ****** ******
      ****** ****** ****** ****** ****** ****** ****** ****** ****** ******
   6  ****** ****** ****** ****** ****** ****** ****** ****** ****** ******
      ****** ****** ****** ****** ****** ****** ****** ****** ****** ******
      ****** ****** ****** ****** ****** ****** ****** ****** ****** ******
   7  ****** ****** ****** ****** ****** ****** ****** ****** ****** ******
      ****** ****** ****** ****** ****** ****** ****** ****** ****** ******
      ****** ****** ****** ****** ****** ****** ****** ****** ****** ******
   8  ****** ****** ****** ****** ****** ****** ****** ****** ****** ******
      ****** ****** ****** ****** ****** ****** ****** ****** ****** ******
      ****** ****** ****** ****** ****** ****** ****** ****** ****** ******
   9  ****** ****** ****** ****** ****** ****** ****** ****** ****** ******
      ****** ****** ****** ****** ****** ****** ****** ****** ****** ******
      ****** ****** ****** ****** ****** ****** ****** ****** ****** ******
  10  ****** ****** ****** ****** ****** ****** ****** ****** ****** ******
      ****** ****** ****** ****** ****** ****** ****** ****** ****** ******
      ****** ****** ****** ****** ****** ****** ****** ****** ****** ******
  11  ****** ****** ****** ****** ****** ****** ****** ****** ****** ******
      ****** ****** ****** ****** ****** ****** ****** ****** ****** ******
      ****** ****** ****** ****** ****** ****** ****** ****** ****** ******
  12  ****** ****** ****** ****** ****** ****** ****** ****** ****** ******
      ****** ****** ****** ****** ****** ****** ****** ****** ****** ******
      ****** ****** ****** ****** ****** ****** ****** ****** ****** ******
  13  ****** ****** ****** ****** ****** ****** ****** ****** ****** ******
      ****** ****** ****** ****** ****** ****** ****** ****** ****** ******
      ****** ****** ****** ****** ****** ****** ****** ****** ****** ******
  14  ****** ****** ****** ****** ****** ****** ****** ****** ****** ******
      ****** ****** ****** ****** ****** ****** ****** ****** ****** ******
      ****** ****** ****** ****** ****** ****** ****** ****** ****** ******
  15  ****** ****** ****** ****** ****** ****** ****** ****** ****** ******
      ****** ****** ****** ****** ****** ****** ****** ****** ****** ******
      ****** ****** ****** ****** ****** ****** ****** ****** ****** ******
  16  ****** ****** ****** ****** ****** ****** ****** ****** ****** ******
      ****** ****** ****** ****** ****** ****** ****** ****** ****** ******
      ****** ****** ****** ****** ****** ****** ****** ****** ****** ******
  17  ****** ****** ****** ****** ****** ****** ****** ****** ****** ******
      ****** ****** ****** ****** ****** ****** ****** ****** ****** ******
      ****** ****** ****** ****** ****** ****** ****** ****** ****** ******
  18  ****** ****** ****** ****** ****** ****** ****** ****** ****** ******
      ****** ****** ****** ****** ****** ****** ****** ****** ****** ******
      ****** ****** ****** ****** ****** ****** ****** ****** ****** ******
  19  ****** ****** ****** ****** ****** ****** ****** ****** ****** ******
      ****** ****** ****** ****** ****** ****** ****** ****** ****** ******
      ****** ****** ****** ****** ****** ****** ****** ****** ****** ******
  20  ****** ****** ****** ****** ****** ****** ****** ****** ****** ******
      ****** ****** ****** ****** ****** ****** ****** ****** ****** ******
      ****** ****** ****** ****** ****** ****** ****** ****** ****** ******
  21  ****** ****** ****** ****** ****** ****** ****** ****** ****** ******
      ****** ****** ****** ****** ****** ****** ****** ****** ****** ******
      ****** ****** ****** ****** ****** ****** ****** ****** ****** ******
  22  ****** ****** ****** ****** ****** ****** ****** ****** ****** ******
      ****** ****** ****** ****** ****** ****** ****** ****** ****** ******
      ****** ****** ****** ****** ****** ****** ****** ****** ****** ******
  23  ****** ****** ****** ****** ****** ****** ****** ****** ****** ******
      ****** ****** ****** ****** ****** ****** ****** ****** ****** ******
      ****** ****** ****** ****** ****** ****** ****** ****** ****** ******
  24  ****** ****** ****** ****** ****** ****** ****** ****** ****** ******
      ****** ****** ****** ****** ****** ****** ****** ****** ****** ******
      ****** ****** ****** ****** ****** ****** ****** ****** ****** ******
  25  ****** ****** ****** ****** ****** ****** ****** ****** ****** ******
      ****** ****** ****** ****** ****** ****** ****** ****** ****** ******
      ****** ****** ****** ****** ****** ****** ****** ****** ****** ******

 HEAD WILL BE SAVED ON UNIT   51 AT END OF TIME STEP    1, STRESS PERIOD   10
1
  VOLUMETRIC BUDGET FOR ENTIRE MODEL AT END OF TIME STEP    1, STRESS PERIOD  10
  ------------------------------------------------------------------------------

     CUMULATIVE VOLUMES      L**3       RATES FOR THIS TIME STEP      L**3/T
     ------------------                 ------------------------

           IN:                                      IN:
           ---                                      ---
             STORAGE =    36162988.5795               STORAGE =           0.0000
       CONSTANT HEAD =    27288522.6497         CONSTANT HEAD =       34242.7042
               WELLS =           0.0000                 WELLS =           0.0000
            RECHARGE =    23901600.0000              RECHARGE =       55200.0000
      STREAM LEAKAGE =     6560787.7747        STREAM LEAKAGE =        7390.1897

            TOTAL IN =    93913899.0039              TOTAL IN =       96832.8939

          OUT:                                     OUT:
          ----                                     ----
             STORAGE =     2204762.8015               STORAGE =       15264.9463
       CONSTANT HEAD =           0.0000         CONSTANT HEAD =           0.0000
               WELLS =    33528045.2162                 WELLS =       36722.9411
            RECHARGE =           0.0000              RECHARGE =           0.0000
      STREAM LEAKAGE =    58181092.7349        STREAM LEAKAGE =       44845.0026

           TOTAL OUT =    93913900.7527             TOTAL OUT =       96832.8900

            IN - OUT =          -1.7488              IN - OUT =       3.9308E-03

 PERCENT DISCREPANCY =          -0.00     PERCENT DISCREPANCY =           0.00






         TIME SUMMARY AT END OF TIME STEP    1 IN STRESS PERIOD   10
                    SECONDS     MINUTES      HOURS       DAYS        YEARS
                    -----------------------------------------------------------
   TIME STEP LENGTH 7.86240E+06 1.31040E+05  2184.0      91.000     0.24914    
 STRESS PERIOD TIME 7.86240E+06 1.31040E+05  2184.0      91.000     0.24914    
         TOTAL TIME 7.88832E+07 1.31472E+06  21912.      913.00      2.4997    
1
1
                            STRESS PERIOD NO.   11, LENGTH =   91.00000    
                            -----------------------------------------------

                              NUMBER OF TIME STEPS =     1

                               MULTIPLIER FOR DELT =     1.500

                            INITIAL TIME STEP SIZE =   91.00000    

 WELL NO.  LAYER   ROW   COL   STRESS RATE         
 --------------------------------------------------
      1      1     19     16      -9509.    
      2      1      8     26      -9882.    
      3      1      9     16      -9755.    
      4      1      5      7      -7576.    

      4 WELLS

                 RECHARGE =   0.00000    

 REUSING STREAM SEGMENT DATA FROM LAST STRESS PERIOD
 
 SOLVING FOR HEAD 


     7 CALLS TO PCG ROUTINE FOR TIME STEP   1 IN STRESS PERIOD   11
    26 TOTAL ITERATIONS

 OUTPUT CONTROL FOR STRESS PERIOD   11   TIME STEP    1
    SAVE BUDGET
    SAVE HEAD FOR ALL LAYERS
    PRINT HEAD FOR ALL LAYERS
 UBDSV2 SAVING "STREAMFLOW OUT  " ON UNIT  50 AT TIME STEP  1, STRESS PERIOD  11



 STREAM LISTING     PERIOD     11   STEP        1

 LAYER ROW COL. STREAM  RCH.  FLOW INTO     FLOW TO   FLOW OUT OF   OVRLND.     DIRECT     STREAM       STREAM     STREAM     STREAM   STREAMBED  STREAMBED
                SEG.NO.  NO.  STRM. RCH.    AQUIFER    STRM. RCH.    RUNOFF     PRECIP       ET          HEAD       DEPTH      WIDTH   CONDCTNC.   GRADIENT

   1   13    1     1     1    1.0000E+05 -7.0271E+02   1.0070E+05  0.000E+00  0.000E+00  0.000E+00  4.84063E+01  1.450E-01  2.000E+01  2.000E+04 -3.514E-02
   1   13    2     1     2    1.0070E+05 -1.5504E+03   1.0225E+05  0.000E+00  0.000E+00  0.000E+00  4.79300E+01  1.459E-01  2.000E+01  2.000E+04 -7.752E-02
   1   14    3     1     3    1.0225E+05 -2.7353E+02   1.0253E+05  0.000E+00  0.000E+00  0.000E+00  4.74535E+01  1.467E-01  2.000E+01  2.000E+04 -1.368E-02
   1   15    4     1     4    1.0253E+05 -2.6621E+02   1.0279E+05  0.000E+00  0.000E+00  0.000E+00  4.69765E+01  1.469E-01  2.000E+01  2.000E+04 -1.331E-02
   1   16    5     1     5    1.0279E+05 -1.2193E+03   1.0401E+05  0.000E+00  0.000E+00  0.000E+00  4.64999E+01  1.476E-01  2.000E+01  2.000E+04 -6.096E-02
   1   16    6     1     6    1.0401E+05 -7.3931E+02   1.0475E+05  0.000E+00  0.000E+00  0.000E+00  4.60234E+01  1.484E-01  2.000E+01  2.000E+04 -3.697E-02
   1   16    7     1     7    1.0475E+05 -7.0097E+02   1.0545E+05  0.000E+00  0.000E+00  0.000E+00  4.55468E+01  1.490E-01  2.000E+01  2.000E+04 -3.505E-02
   1   16    8     1     8    1.0545E+05 -6.6505E+02   1.0612E+05  0.000E+00  0.000E+00  0.000E+00  4.50701E+01  1.496E-01  2.000E+01  2.000E+04 -3.325E-02
   1   16    9     1     9    1.0612E+05 -6.1284E+02   1.0673E+05  0.000E+00  0.000E+00  0.000E+00  4.45933E+01  1.502E-01  2.000E+01  2.000E+04 -3.064E-02
   1   16   10     1    10    1.0673E+05 -5.3573E+02   1.0727E+05  0.000E+00  0.000E+00  0.000E+00  4.41166E+01  1.506E-01  2.000E+01  2.000E+04 -2.679E-02
   1   16   11     1    11    1.0727E+05 -4.2249E+02   1.0769E+05  0.000E+00  0.000E+00  0.000E+00  4.36397E+01  1.510E-01  2.000E+01  2.000E+04 -2.112E-02
   1   16   12     1    12    1.0769E+05 -3.1631E+02   1.0800E+05  0.000E+00  0.000E+00  0.000E+00  4.31627E+01  1.514E-01  2.000E+01  2.000E+04 -1.582E-02
   1   15   13     1    13    1.0800E+05 -7.7361E+01   1.0808E+05  0.000E+00  0.000E+00  0.000E+00  4.26856E+01  1.515E-01  2.000E+01  2.000E+04 -3.868E-03
   1   14   14     1    14    1.0808E+05 -1.8418E+02   1.0827E+05  0.000E+00  0.000E+00  0.000E+00  4.22085E+01  1.516E-01  2.000E+01  2.000E+04 -9.209E-03
   1   13   15     1    15    1.0827E+05 -2.3751E+02   1.0850E+05  0.000E+00  0.000E+00  0.000E+00  4.17314E+01  1.518E-01  2.000E+01  2.000E+04 -1.188E-02
   1   12   16     1    16    1.0850E+05 -3.1060E+00   1.0851E+05  0.000E+00  0.000E+00  0.000E+00  4.12542E+01  1.519E-01  2.000E+01  2.000E+04 -1.553E-04
   1   12   17     1    17    1.0851E+05 -6.4878E+01   1.0857E+05  0.000E+00  0.000E+00  0.000E+00  4.07769E+01  1.519E-01  2.000E+01  2.000E+04 -3.244E-03
   1   12   18     1    18    1.0857E+05 -3.0651E+02   1.0888E+05  0.000E+00  0.000E+00  0.000E+00  4.02998E+01  1.521E-01  2.000E+01  2.000E+04 -1.533E-02
   1   12   19     1    19    1.0888E+05 -7.8682E+02   1.0967E+05  0.000E+00  0.000E+00  0.000E+00  3.98230E+01  1.526E-01  2.000E+01  2.000E+04 -3.934E-02
   1   13   20     1    20    1.0967E+05 -6.8644E+02   1.1035E+05  0.000E+00  0.000E+00  0.000E+00  3.93464E+01  1.532E-01  2.000E+01  2.000E+04 -3.432E-02
   1   14   21     1    21    1.1035E+05 -5.9184E+02   1.1094E+05  0.000E+00  0.000E+00  0.000E+00  3.88696E+01  1.537E-01  2.000E+01  2.000E+04 -2.959E-02
   1   14   22     1    22    1.1094E+05  5.0861E+03   1.0586E+05  0.000E+00  0.000E+00  0.000E+00  3.83905E+01  1.518E-01  2.000E+01  2.000E+04  2.543E-01
   1    9   30     2     1    5.0000E+04  5.6132E+01   4.9944E+04  0.000E+00  0.000E+00  0.000E+00  4.02408E+01  1.158E-01  2.000E+01  2.000E+04  2.807E-03
   1    9   29     2     2    4.9944E+04 -1.1263E+02   5.0056E+04  0.000E+00  0.000E+00  0.000E+00  3.99909E+01  1.159E-01  2.000E+01  2.000E+04 -5.631E-03
   1    9   28     2     3    5.0056E+04  3.1456E+01   5.0025E+04  0.000E+00  0.000E+00  0.000E+00  3.97409E+01  1.159E-01  2.000E+01  2.000E+04  1.573E-03
   1    9   27     2     4    5.0025E+04  1.1673E+03   4.8858E+04  0.000E+00  0.000E+00  0.000E+00  3.94901E+01  1.151E-01  2.000E+01  2.000E+04  5.836E-02
   1   10   26     2     5    4.8858E+04  7.5454E+02   4.8103E+04  0.000E+00  0.000E+00  0.000E+00  3.92387E+01  1.137E-01  2.000E+01  2.000E+04  3.773E-02
   1   11   25     2     6    4.8103E+04 -2.2023E+02   4.8323E+04  0.000E+00  0.000E+00  0.000E+00  3.89884E+01  1.134E-01  2.000E+01  2.000E+04 -1.101E-02
   1   12   24     2     7    4.8323E+04 -6.1866E+02   4.8942E+04  0.000E+00  0.000E+00  0.000E+00  3.87390E+01  1.140E-01  2.000E+01  2.000E+04 -3.093E-02
   1   13   23     2     8    4.8942E+04 -8.9856E+01   4.9032E+04  0.000E+00  0.000E+00  0.000E+00  3.84895E+01  1.145E-01  2.000E+01  2.000E+04 -4.493E-03
   1   14   22     2     9    4.9032E+04  2.0385E+03   4.6994E+04  0.000E+00  0.000E+00  0.000E+00  3.82381E+01  1.131E-01  2.000E+01  2.000E+04  1.019E-01
   1   14   22     3     1    1.5285E+05 -8.4642E+03   1.6132E+05  0.000E+00  0.000E+00  0.000E+00  3.77129E+01  1.574E-01  2.000E+01  2.000E+04 -4.232E-01
   1   15   23     3     2    1.6132E+05 -3.4708E+02   1.6166E+05  0.000E+00  0.000E+00  0.000E+00  3.68267E+01  1.600E-01  2.000E+01  2.000E+04 -1.735E-02
   1   15   24     3     3    1.6166E+05 -1.8182E+02   1.6184E+05  0.000E+00  0.000E+00  0.000E+00  3.59380E+01  1.602E-01  2.000E+01  2.000E+04 -9.091E-03
   1   15   25     3     4    1.6184E+05 -1.8490E+02   1.6203E+05  0.000E+00  0.000E+00  0.000E+00  3.50492E+01  1.603E-01  2.000E+01  2.000E+04 -9.245E-03
   1   15   26     3     5    1.6203E+05 -2.4125E+02   1.6227E+05  0.000E+00  0.000E+00  0.000E+00  3.41604E+01  1.604E-01  2.000E+01  2.000E+04 -1.206E-02
   1   16   27     3     6    1.6227E+05 -2.5262E+02   1.6252E+05  0.000E+00  0.000E+00  0.000E+00  3.32717E+01  1.606E-01  2.000E+01  2.000E+04 -1.263E-02
   1   17   28     3     7    1.6252E+05 -1.2283E+03   1.6375E+05  0.000E+00  0.000E+00  0.000E+00  3.23832E+01  1.610E-01  2.000E+01  2.000E+04 -6.141E-02
   1   18   29     3     8    1.6375E+05 -2.4661E+03   1.6622E+05  0.000E+00  0.000E+00  0.000E+00  3.14954E+01  1.621E-01  2.000E+01  2.000E+04 -1.233E-01
   1   18   30     3     9    1.6622E+05 -2.8704E+03   1.6909E+05  0.000E+00  0.000E+00  0.000E+00  3.06081E+01  1.637E-01  2.000E+01  2.000E+04 -1.435E-01



1
              HEAD IN LAYER   1 AT END OF TIME STEP   1 IN STRESS PERIOD   11
  ---------------------------------------------------------------------------

          1      2      3      4      5      6      7      8      9     10
         11     12     13     14     15     16     17     18     19     20
         21     22     23     24     25     26     27     28     29     30
 .........................................................................
   1  ****** ****** ****** ****** ****** ****** ****** ****** ****** ******
      ****** ****** ****** ****** ****** ****** ****** ****** ****** ******
      ****** ****** ****** ****** ****** ****** ****** ****** ****** ******
   2  ****** ****** ****** ****** ****** ****** ****** ****** ****** ******
      ****** ****** ****** ****** ****** ****** ****** ****** ****** ******
      ****** ****** ****** ****** ****** ****** ****** ****** ****** ******
   3  ****** ****** ****** ****** ****** ****** ****** ****** ****** ******
      ****** ****** ****** ****** ****** ****** ****** ****** ****** ******
      ****** ****** ****** ****** ****** ****** ****** ****** ****** ******
   4  ****** ****** ****** ****** ****** ****** ****** ****** ****** ******
      ****** ****** ****** ****** ****** ****** ****** ****** ****** ******
      ****** ****** ****** ****** ****** ****** ****** ****** ****** ******
   5  ****** ****** ****** ****** ****** ****** ****** ****** ****** ******
      ****** ****** ****** ****** ****** ****** ****** ****** ****** ******
      ****** ****** ****** ****** ****** ****** ****** ****** ****** ******
   6  ****** ****** ****** ****** ****** ****** ****** ****** ****** ******
      ****** ****** ****** ****** ****** ****** ****** ****** ****** ******
      ****** ****** ****** ****** ****** ****** ****** ****** ****** ******
   7  ****** ****** ****** ****** ****** ****** ****** ****** ****** ******
      ****** ****** ****** ****** ****** ****** ****** ****** ****** ******
      ****** ****** ****** ****** ****** ****** ****** ****** ****** ******
   8  ****** ****** ****** ****** ****** ****** ****** ****** ****** ******
      ****** ****** ****** ****** ****** ****** ****** ****** ****** ******
      ****** ****** ****** ****** ****** ****** ****** ****** ****** ******
   9  ****** ****** ****** ****** ****** ****** ****** ****** ****** ******
      ****** ****** ****** ****** ****** ****** ****** ****** ****** ******
      ****** ****** ****** ****** ****** ****** ****** ****** ****** ******
  10  ****** ****** ****** ****** ****** ****** ****** ****** ****** ******
      ****** ****** ****** ****** ****** ****** ****** ****** ****** ******
      ****** ****** ****** ****** ****** ****** ****** ****** ****** ******
  11  ****** ****** ****** ****** ****** ****** ****** ****** ****** ******
      ****** ****** ****** ****** ****** ****** ****** ****** ****** ******
      ****** ****** ****** ****** ****** ****** ****** ****** ****** ******
  12  ****** ****** ****** ****** ****** ****** ****** ****** ****** ******
      ****** ****** ****** ****** ****** ****** ****** ****** ****** ******
      ****** ****** ****** ****** ****** ****** ****** ****** ****** ******
  13  ****** ****** ****** ****** ****** ****** ****** ****** ****** ******
      ****** ****** ****** ****** ****** ****** ****** ****** ****** ******
      ****** ****** ****** ****** ****** ****** ****** ****** ****** ******
  14  ****** ****** ****** ****** ****** ****** ****** ****** ****** ******
      ****** ****** ****** ****** ****** ****** ****** ****** ****** ******
      ****** ****** ****** ****** ****** ****** ****** ****** ****** ******
  15  ****** ****** ****** ****** ****** ****** ****** ****** ****** ******
      ****** ****** ****** ****** ****** ****** ****** ****** ****** ******
      ****** ****** ****** ****** ****** ****** ****** ****** ****** ******
  16  ****** ****** ****** ****** ****** ****** ****** ****** ****** ******
      ****** ****** ****** ****** ****** ****** ****** ****** ****** ******
      ****** ****** ****** ****** ****** ****** ****** ****** ****** ******
  17  ****** ****** ****** ****** ****** ****** ****** ****** ****** ******
      ****** ****** ****** ****** ****** ****** ****** ****** ****** ******
      ****** ****** ****** ****** ****** ****** ****** ****** ****** ******
  18  ****** ****** ****** ****** ****** ****** ****** ****** ****** ******
      ****** ****** ****** ****** ****** ****** ****** ****** ****** ******
      ****** ****** ****** ****** ****** ****** ****** ****** ****** ******
  19  ****** ****** ****** ****** ****** ****** ****** ****** ****** ******
      ****** ****** ****** ****** ****** ****** ****** ****** ****** ******
      ****** ****** ****** ****** ****** ****** ****** ****** ****** ******
  20  ****** ****** ****** ****** ****** ****** ****** ****** ****** ******
      ****** ****** ****** ****** ****** ****** ****** ****** ****** ******
      ****** ****** ****** ****** ****** ****** ****** ****** ****** ******
  21  ****** ****** ****** ****** ****** ****** ****** ****** ****** ******
      ****** ****** ****** ****** ****** ****** ****** ****** ****** ******
      ****** ****** ****** ****** ****** ****** ****** ****** ****** ******
  22  ****** ****** ****** ****** ****** ****** ****** ****** ****** ******
      ****** ****** ****** ****** ****** ****** ****** ****** ****** ******
      ****** ****** ****** ****** ****** ****** ****** ****** ****** ******
  23  ****** ****** ****** ****** ****** ****** ****** ****** ****** ******
      ****** ****** ****** ****** ****** ****** ****** ****** ****** ******
      ****** ****** ****** ****** ****** ****** ****** ****** ****** ******
  24  ****** ****** ****** ****** ****** ****** ****** ****** ****** ******
      ****** ****** ****** ****** ****** ****** ****** ****** ****** ******
      ****** ****** ****** ****** ****** ****** ****** ****** ****** ******
  25  ****** ****** ****** ****** ****** ****** ****** ****** ****** ******
      ****** ****** ****** ****** ****** ****** ****** ****** ****** ******
      ****** ****** ****** ****** ****** ****** ****** ****** ****** ******

 HEAD WILL BE SAVED ON UNIT   51 AT END OF TIME STEP    1, STRESS PERIOD   11
1
  VOLUMETRIC BUDGET FOR ENTIRE MODEL AT END OF TIME STEP    1, STRESS PERIOD  11
  ------------------------------------------------------------------------------

     CUMULATIVE VOLUMES      L**3       RATES FOR THIS TIME STEP      L**3/T
     ------------------                 ------------------------

           IN:                                      IN:
           ---                                      ---
             STORAGE =    37823560.4450               STORAGE =       18248.0425
       CONSTANT HEAD =    30706712.6527         CONSTANT HEAD =       37562.5275
               WELLS =           0.0000                 WELLS =           0.0000
            RECHARGE =    23901600.0000              RECHARGE =           0.0000
      STREAM LEAKAGE =     7391975.1170        STREAM LEAKAGE =        9133.9268

            TOTAL IN =    99823848.2147              TOTAL IN =       64944.4968

          OUT:                                     OUT:
          ----                                     ----
             STORAGE =     2204762.8015               STORAGE =           0.0000
       CONSTANT HEAD =           0.0000         CONSTANT HEAD =           0.0000
               WELLS =    36869832.8555                 WELLS =       36722.9411
            RECHARGE =           0.0000              RECHARGE =           0.0000
      STREAM LEAKAGE =    60749254.7723        STREAM LEAKAGE =       28221.5609

           TOTAL OUT =    99823850.4294             TOTAL OUT =       64944.5019

            IN - OUT =          -2.2147              IN - OUT =      -5.1191E-03

 PERCENT DISCREPANCY =          -0.00     PERCENT DISCREPANCY =          -0.00






         TIME SUMMARY AT END OF TIME STEP    1 IN STRESS PERIOD   11
                    SECONDS     MINUTES      HOURS       DAYS        YEARS
                    -----------------------------------------------------------
   TIME STEP LENGTH 7.86240E+06 1.31040E+05  2184.0      91.000     0.24914    
 STRESS PERIOD TIME 7.86240E+06 1.31040E+05  2184.0      91.000     0.24914    
         TOTAL TIME 8.67456E+07 1.44576E+06  24096.      1004.0      2.7488    
1
1
                            STRESS PERIOD NO.   12, LENGTH =   91.00000    
                            -----------------------------------------------

                              NUMBER OF TIME STEPS =     1

                               MULTIPLIER FOR DELT =     1.500

                            INITIAL TIME STEP SIZE =   91.00000    

 WELL NO.  LAYER   ROW   COL   STRESS RATE         
 --------------------------------------------------
      1      1     19     16      -9509.    
      2      1      8     26      -9882.    
      3      1      9     16      -9755.    
      4      1      5      7      -7576.    

      4 WELLS

                 RECHARGE =  1.000000E-03

 REUSING STREAM SEGMENT DATA FROM LAST STRESS PERIOD
 
 SOLVING FOR HEAD 


     7 CALLS TO PCG ROUTINE FOR TIME STEP   1 IN STRESS PERIOD   12
    24 TOTAL ITERATIONS

 OUTPUT CONTROL FOR STRESS PERIOD   12   TIME STEP    1
    SAVE BUDGET
    SAVE HEAD FOR ALL LAYERS
    PRINT HEAD FOR ALL LAYERS
 UBDSV2 SAVING "STREAMFLOW OUT  " ON UNIT  50 AT TIME STEP  1, STRESS PERIOD  12



 STREAM LISTING     PERIOD     12   STEP        1

 LAYER ROW COL. STREAM  RCH.  FLOW INTO     FLOW TO   FLOW OUT OF   OVRLND.     DIRECT     STREAM       STREAM     STREAM     STREAM   STREAMBED  STREAMBED
                SEG.NO.  NO.  STRM. RCH.    AQUIFER    STRM. RCH.    RUNOFF     PRECIP       ET          HEAD       DEPTH      WIDTH   CONDCTNC.   GRADIENT

   1   13    1     1     1    1.0000E+05 -8.3939E+02   1.0084E+05  0.000E+00  0.000E+00  0.000E+00  4.84064E+01  1.450E-01  2.000E+01  2.000E+04 -4.197E-02
   1   13    2     1     2    1.0084E+05 -1.6965E+03   1.0254E+05  0.000E+00  0.000E+00  0.000E+00  4.79302E+01  1.461E-01  2.000E+01  2.000E+04 -8.482E-02
   1   14    3     1     3    1.0254E+05 -3.5067E+02   1.0289E+05  0.000E+00  0.000E+00  0.000E+00  4.74538E+01  1.470E-01  2.000E+01  2.000E+04 -1.753E-02
   1   15    4     1     4    1.0289E+05 -3.4742E+02   1.0323E+05  0.000E+00  0.000E+00  0.000E+00  4.69768E+01  1.473E-01  2.000E+01  2.000E+04 -1.737E-02
   1   16    5     1     5    1.0323E+05 -1.4282E+03   1.0466E+05  0.000E+00  0.000E+00  0.000E+00  4.65003E+01  1.481E-01  2.000E+01  2.000E+04 -7.141E-02
   1   16    6     1     6    1.0466E+05 -8.6872E+02   1.0553E+05  0.000E+00  0.000E+00  0.000E+00  4.60240E+01  1.490E-01  2.000E+01  2.000E+04 -4.344E-02
   1   16    7     1     7    1.0553E+05 -8.2520E+02   1.0636E+05  0.000E+00  0.000E+00  0.000E+00  4.55475E+01  1.498E-01  2.000E+01  2.000E+04 -4.126E-02
   1   16    8     1     8    1.0636E+05 -7.8827E+02   1.0714E+05  0.000E+00  0.000E+00  0.000E+00  4.50709E+01  1.504E-01  2.000E+01  2.000E+04 -3.941E-02
   1   16    9     1     9    1.0714E+05 -7.3662E+02   1.0788E+05  0.000E+00  0.000E+00  0.000E+00  4.45943E+01  1.511E-01  2.000E+01  2.000E+04 -3.683E-02
   1   16   10     1    10    1.0788E+05 -6.6106E+02   1.0854E+05  0.000E+00  0.000E+00  0.000E+00  4.41176E+01  1.517E-01  2.000E+01  2.000E+04 -3.305E-02
   1   16   11     1    11    1.0854E+05 -5.5031E+02   1.0909E+05  0.000E+00  0.000E+00  0.000E+00  4.36408E+01  1.522E-01  2.000E+01  2.000E+04 -2.752E-02
   1   16   12     1    12    1.0909E+05 -5.1687E+02   1.0961E+05  0.000E+00  0.000E+00  0.000E+00  4.31640E+01  1.526E-01  2.000E+01  2.000E+04 -2.584E-02
   1   15   13     1    13    1.0961E+05 -2.9161E+02   1.0990E+05  0.000E+00  0.000E+00  0.000E+00  4.26871E+01  1.530E-01  2.000E+01  2.000E+04 -1.458E-02
   1   14   14     1    14    1.0990E+05 -3.9796E+02   1.1030E+05  0.000E+00  0.000E+00  0.000E+00  4.22101E+01  1.532E-01  2.000E+01  2.000E+04 -1.990E-02
   1   13   15     1    15    1.1030E+05 -4.4316E+02   1.1074E+05  0.000E+00  0.000E+00  0.000E+00  4.17331E+01  1.536E-01  2.000E+01  2.000E+04 -2.216E-02
   1   12   16     1    16    1.1074E+05 -1.8086E+02   1.1092E+05  0.000E+00  0.000E+00  0.000E+00  4.12561E+01  1.539E-01  2.000E+01  2.000E+04 -9.043E-03
   1   12   17     1    17    1.1092E+05 -2.1553E+02   1.1114E+05  0.000E+00  0.000E+00  0.000E+00  4.07790E+01  1.540E-01  2.000E+01  2.000E+04 -1.078E-02
   1   12   18     1    18    1.1114E+05 -4.5985E+02   1.1160E+05  0.000E+00  0.000E+00  0.000E+00  4.03020E+01  1.543E-01  2.000E+01  2.000E+04 -2.299E-02
   1   12   19     1    19    1.1160E+05 -9.7663E+02   1.1257E+05  0.000E+00  0.000E+00  0.000E+00  3.98254E+01  1.549E-01  2.000E+01  2.000E+04 -4.883E-02
   1   13   20     1    20    1.1257E+05 -8.9569E+02   1.1347E+05  0.000E+00  0.000E+00  0.000E+00  3.93489E+01  1.557E-01  2.000E+01  2.000E+04 -4.478E-02
   1   14   21     1    21    1.1347E+05 -7.8549E+02   1.1426E+05  0.000E+00  0.000E+00  0.000E+00  3.88723E+01  1.564E-01  2.000E+01  2.000E+04 -3.927E-02
   1   14   22     1    22    1.1426E+05  5.0328E+03   1.0922E+05  0.000E+00  0.000E+00  0.000E+00  3.83933E+01  1.546E-01  2.000E+01  2.000E+04  2.516E-01
   1    9   30     2     1    5.0000E+04 -1.1979E+02   5.0120E+04  0.000E+00  0.000E+00  0.000E+00  4.02409E+01  1.159E-01  2.000E+01  2.000E+04 -5.989E-03
   1    9   29     2     2    5.0120E+04 -2.8646E+02   5.0406E+04  0.000E+00  0.000E+00  0.000E+00  3.99912E+01  1.162E-01  2.000E+01  2.000E+04 -1.432E-02
   1    9   28     2     3    5.0406E+04 -1.3873E+02   5.0545E+04  0.000E+00  0.000E+00  0.000E+00  3.97415E+01  1.165E-01  2.000E+01  2.000E+04 -6.937E-03
   1    9   27     2     4    5.0545E+04  9.5957E+02   4.9585E+04  0.000E+00  0.000E+00  0.000E+00  3.94910E+01  1.160E-01  2.000E+01  2.000E+04  4.798E-02
   1   10   26     2     5    4.9585E+04  5.2602E+02   4.9059E+04  0.000E+00  0.000E+00  0.000E+00  3.92399E+01  1.149E-01  2.000E+01  2.000E+04  2.630E-02
   1   11   25     2     6    4.9059E+04 -4.4487E+02   4.9504E+04  0.000E+00  0.000E+00  0.000E+00  3.89899E+01  1.149E-01  2.000E+01  2.000E+04 -2.224E-02
   1   12   24     2     7    4.9504E+04 -8.2357E+02   5.0328E+04  0.000E+00  0.000E+00  0.000E+00  3.87407E+01  1.157E-01  2.000E+01  2.000E+04 -4.118E-02
   1   13   23     2     8    5.0328E+04 -1.6728E+02   5.0495E+04  0.000E+00  0.000E+00  0.000E+00  3.84914E+01  1.164E-01  2.000E+01  2.000E+04 -8.364E-03
   1   14   22     2     9    5.0495E+04  1.9714E+03   4.8524E+04  0.000E+00  0.000E+00  0.000E+00  3.82402E+01  1.152E-01  2.000E+01  2.000E+04  9.857E-02
   1   14   22     3     1    1.5775E+05 -8.5145E+03   1.6626E+05  0.000E+00  0.000E+00  0.000E+00  3.77159E+01  1.603E-01  2.000E+01  2.000E+04 -4.257E-01
   1   15   23     3     2    1.6626E+05 -4.1909E+02   1.6668E+05  0.000E+00  0.000E+00  0.000E+00  3.68296E+01  1.630E-01  2.000E+01  2.000E+04 -2.095E-02
   1   15   24     3     3    1.6668E+05 -2.4689E+02   1.6693E+05  0.000E+00  0.000E+00  0.000E+00  3.59409E+01  1.632E-01  2.000E+01  2.000E+04 -1.234E-02
   1   15   25     3     4    1.6693E+05 -2.5125E+02   1.6718E+05  0.000E+00  0.000E+00  0.000E+00  3.50522E+01  1.633E-01  2.000E+01  2.000E+04 -1.256E-02
   1   15   26     3     5    1.6718E+05 -3.1872E+02   1.6750E+05  0.000E+00  0.000E+00  0.000E+00  3.41635E+01  1.635E-01  2.000E+01  2.000E+04 -1.594E-02
   1   16   27     3     6    1.6750E+05 -3.3939E+02   1.6784E+05  0.000E+00  0.000E+00  0.000E+00  3.32748E+01  1.637E-01  2.000E+01  2.000E+04 -1.697E-02
   1   17   28     3     7    1.6784E+05 -1.4490E+03   1.6929E+05  0.000E+00  0.000E+00  0.000E+00  3.23864E+01  1.642E-01  2.000E+01  2.000E+04 -7.245E-02
   1   18   29     3     8    1.6929E+05 -2.6667E+03   1.7195E+05  0.000E+00  0.000E+00  0.000E+00  3.14987E+01  1.654E-01  2.000E+01  2.000E+04 -1.333E-01
   1   18   30     3     9    1.7195E+05 -3.0385E+03   1.7499E+05  0.000E+00  0.000E+00  0.000E+00  3.06115E+01  1.670E-01  2.000E+01  2.000E+04 -1.519E-01



1
              HEAD IN LAYER   1 AT END OF TIME STEP   1 IN STRESS PERIOD   12
  ---------------------------------------------------------------------------

          1      2      3      4      5      6      7      8      9     10
         11     12     13     14     15     16     17     18     19     20
         21     22     23     24     25     26     27     28     29     30
 .........................................................................
   1  ****** ****** ****** ****** ****** ****** ****** ****** ****** ******
      ****** ****** ****** ****** ****** ****** ****** ****** ****** ******
      ****** ****** ****** ****** ****** ****** ****** ****** ****** ******
   2  ****** ****** ****** ****** ****** ****** ****** ****** ****** ******
      ****** ****** ****** ****** ****** ****** ****** ****** ****** ******
      ****** ****** ****** ****** ****** ****** ****** ****** ****** ******
   3  ****** ****** ****** ****** ****** ****** ****** ****** ****** ******
      ****** ****** ****** ****** ****** ****** ****** ****** ****** ******
      ****** ****** ****** ****** ****** ****** ****** ****** ****** ******
   4  ****** ****** ****** ****** ****** ****** ****** ****** ****** ******
      ****** ****** ****** ****** ****** ****** ****** ****** ****** ******
      ****** ****** ****** ****** ****** ****** ****** ****** ****** ******
   5  ****** ****** ****** ****** ****** ****** ****** ****** ****** ******
      ****** ****** ****** ****** ****** ****** ****** ****** ****** ******
      ****** ****** ****** ****** ****** ****** ****** ****** ****** ******
   6  ****** ****** ****** ****** ****** ****** ****** ****** ****** ******
      ****** ****** ****** ****** ****** ****** ****** ****** ****** ******
      ****** ****** ****** ****** ****** ****** ****** ****** ****** ******
   7  ****** ****** ****** ****** ****** ****** ****** ****** ****** ******
      ****** ****** ****** ****** ****** ****** ****** ****** ****** ******
      ****** ****** ****** ****** ****** ****** ****** ****** ****** ******
   8  ****** ****** ****** ****** ****** ****** ****** ****** ****** ******
      ****** ****** ****** ****** ****** ****** ****** ****** ****** ******
      ****** ****** ****** ****** ****** ****** ****** ****** ****** ******
   9  ****** ****** ****** ****** ****** ****** ****** ****** ****** ******
      ****** ****** ****** ****** ****** ****** ****** ****** ****** ******
      ****** ****** ****** ****** ****** ****** ****** ****** ****** ******
  10  ****** ****** ****** ****** ****** ****** ****** ****** ****** ******
      ****** ****** ****** ****** ****** ****** ****** ****** ****** ******
      ****** ****** ****** ****** ****** ****** ****** ****** ****** ******
  11  ****** ****** ****** ****** ****** ****** ****** ****** ****** ******
      ****** ****** ****** ****** ****** ****** ****** ****** ****** ******
      ****** ****** ****** ****** ****** ****** ****** ****** ****** ******
  12  ****** ****** ****** ****** ****** ****** ****** ****** ****** ******
      ****** ****** ****** ****** ****** ****** ****** ****** ****** ******
      ****** ****** ****** ****** ****** ****** ****** ****** ****** ******
  13  ****** ****** ****** ****** ****** ****** ****** ****** ****** ******
      ****** ****** ****** ****** ****** ****** ****** ****** ****** ******
      ****** ****** ****** ****** ****** ****** ****** ****** ****** ******
  14  ****** ****** ****** ****** ****** ****** ****** ****** ****** ******
      ****** ****** ****** ****** ****** ****** ****** ****** ****** ******
      ****** ****** ****** ****** ****** ****** ****** ****** ****** ******
  15  ****** ****** ****** ****** ****** ****** ****** ****** ****** ******
      ****** ****** ****** ****** ****** ****** ****** ****** ****** ******
      ****** ****** ****** ****** ****** ****** ****** ****** ****** ******
  16  ****** ****** ****** ****** ****** ****** ****** ****** ****** ******
      ****** ****** ****** ****** ****** ****** ****** ****** ****** ******
      ****** ****** ****** ****** ****** ****** ****** ****** ****** ******
  17  ****** ****** ****** ****** ****** ****** ****** ****** ****** ******
      ****** ****** ****** ****** ****** ****** ****** ****** ****** ******
      ****** ****** ****** ****** ****** ****** ****** ****** ****** ******
  18  ****** ****** ****** ****** ****** ****** ****** ****** ****** ******
      ****** ****** ****** ****** ****** ****** ****** ****** ****** ******
      ****** ****** ****** ****** ****** ****** ****** ****** ****** ******
  19  ****** ****** ****** ****** ****** ****** ****** ****** ****** ******
      ****** ****** ****** ****** ****** ****** ****** ****** ****** ******
      ****** ****** ****** ****** ****** ****** ****** ****** ****** ******
  20  ****** ****** ****** ****** ****** ****** ****** ****** ****** ******
      ****** ****** ****** ****** ****** ****** ****** ****** ****** ******
      ****** ****** ****** ****** ****** ****** ****** ****** ****** ******
  21  ****** ****** ****** ****** ****** ****** ****** ****** ****** ******
      ****** ****** ****** ****** ****** ****** ****** ****** ****** ******
      ****** ****** ****** ****** ****** ****** ****** ****** ****** ******
  22  ****** ****** ****** ****** ****** ****** ****** ****** ****** ******
      ****** ****** ****** ****** ****** ****** ****** ****** ****** ******
      ****** ****** ****** ****** ****** ****** ****** ****** ****** ******
  23  ****** ****** ****** ****** ****** ****** ****** ****** ****** ******
      ****** ****** ****** ****** ****** ****** ****** ****** ****** ******
      ****** ****** ****** ****** ****** ****** ****** ****** ****** ******
  24  ****** ****** ****** ****** ****** ****** ****** ****** ****** ******
      ****** ****** ****** ****** ****** ****** ****** ****** ****** ******
      ****** ****** ****** ****** ****** ****** ****** ****** ****** ******
  25  ****** ****** ****** ****** ****** ****** ****** ****** ****** ******
      ****** ****** ****** ****** ****** ****** ****** ****** ****** ******
      ****** ****** ****** ****** ****** ****** ****** ****** ****** ******

 HEAD WILL BE SAVED ON UNIT   51 AT END OF TIME STEP    1, STRESS PERIOD   12
1
  VOLUMETRIC BUDGET FOR ENTIRE MODEL AT END OF TIME STEP    1, STRESS PERIOD  12
  ------------------------------------------------------------------------------

     CUMULATIVE VOLUMES      L**3       RATES FOR THIS TIME STEP      L**3/T
     ------------------                 ------------------------

           IN:                                      IN:
           ---                                      ---
             STORAGE =    37831238.7058               STORAGE =          84.3765
       CONSTANT HEAD =    34063784.2273         CONSTANT HEAD =       36890.8964
               WELLS =           0.0000                 WELLS =           0.0000
            RECHARGE =    26413200.0000              RECHARGE =       27600.0000
      STREAM LEAKAGE =     8164546.8185        STREAM LEAKAGE =        8489.7989

            TOTAL IN =   106472769.7516              TOTAL IN =       73065.0718

          OUT:                                     OUT:
          ----                                     ----
             STORAGE =     2465143.3807               STORAGE =        2861.3250
       CONSTANT HEAD =           0.0000         CONSTANT HEAD =           0.0000
               WELLS =    40211620.4948                 WELLS =       36722.9411
            RECHARGE =           0.0000              RECHARGE =           0.0000
      STREAM LEAKAGE =    63796008.0096        STREAM LEAKAGE =       33480.8048

           TOTAL OUT =   106472771.8851             TOTAL OUT =       73065.0709

            IN - OUT =          -2.1336              IN - OUT =       8.9111E-04

 PERCENT DISCREPANCY =          -0.00     PERCENT DISCREPANCY =           0.00






         TIME SUMMARY AT END OF TIME STEP    1 IN STRESS PERIOD   12
                    SECONDS     MINUTES      HOURS       DAYS        YEARS
                    -----------------------------------------------------------
   TIME STEP LENGTH 7.86240E+06 1.31040E+05  2184.0      91.000     0.24914    
 STRESS PERIOD TIME 7.86240E+06 1.31040E+05  2184.0      91.000     0.24914    
         TOTAL TIME 9.46080E+07 1.57680E+06  26280.      1095.0      2.9979    
1

 Run end date and time (yyyy/mm/dd hh:mm:ss): 2019/03/11 23:05:00
 Elapsed run time:  0.087 Seconds

