                                  MODFLOW-2005     
      U.S. GEOLOGICAL SURVEY MODULAR FINITE-DIFFERENCE GROUND-WATER FLOW MODEL
                            VERSION 1.11.00 8/8/2013

 LIST FILE: supply2.lst
                         UNIT   10

 OPENING ..\data\supply.dis
 FILE TYPE:DIS   UNIT   11   STATUS:OLD    
 FORMAT:FORMATTED              ACCESS:SEQUENTIAL          

 OPENING ..\data\supply.ba6
 FILE TYPE:BAS6   UNIT   12   STATUS:OLD    
 FORMAT:FORMATTED              ACCESS:SEQUENTIAL          

 OPENING ..\data\supply_het.bc6
 FILE TYPE:BCF6   UNIT   13   STATUS:OLD    
 FORMAT:FORMATTED              ACCESS:SEQUENTIAL          

 OPENING ..\data\supply.rch
 FILE TYPE:RCH   UNIT   15   STATUS:OLD    
 FORMAT:FORMATTED              ACCESS:SEQUENTIAL          

 OPENING ..\data\supply2.sfr
 FILE TYPE:SFR   UNIT   16   STATUS:OLD    
 FORMAT:FORMATTED              ACCESS:SEQUENTIAL          

 OPENING ..\data\supply.oc
 FILE TYPE:OC   UNIT   17   STATUS:OLD    
 FORMAT:FORMATTED              ACCESS:SEQUENTIAL          

 OPENING ..\data\supply.pcg
 FILE TYPE:PCG   UNIT   18   STATUS:OLD    
 FORMAT:FORMATTED              ACCESS:SEQUENTIAL          

 OPENING supply2.wel
 FILE TYPE:WEL   UNIT   19   STATUS:OLD    
 FORMAT:FORMATTED              ACCESS:SEQUENTIAL          

 OPENING supply2sf.cbc
 FILE TYPE:DATA(BINARY)   UNIT   50   STATUS:UNKNOWN
 FORMAT:BINARY                 ACCESS:SEQUENTIAL          

 OPENING supply2hd.bhd
 FILE TYPE:DATA(BINARY)   UNIT   51   STATUS:UNKNOWN
 FORMAT:BINARY                 ACCESS:SEQUENTIAL          

 BAS -- BASIC PACKAGE, VERSION 7, 5/2/2005 INPUT READ FROM UNIT   12
 
 MODFLOW was compiled using uniform precision
 Precision of REAL and DOUBLE PRECISION variables:          15

 DISCRETIZATION INPUT DATA READ FROM UNIT   11
    1 LAYERS        25 ROWS        30 COLUMNS
   12 STRESS PERIOD(S) IN SIMULATION
 MODEL TIME UNIT IS DAYS
 MODEL LENGTH UNIT IS UNDEFINED
  Confining bed flag for each layer:
   0

                     DELR =   200.000    

                     DELC =   200.000    

 TOP ELEVATION OF LAYER 1 =  100.0000    

   MODEL LAYER BOTTOM EL. =   0.00000     FOR LAYER   1


 STRESS PERIOD     LENGTH       TIME STEPS     MULTIPLIER FOR DELT    SS FLAG
 ----------------------------------------------------------------------------
        1         92.00000          1                    1.500         TR
        2         91.00000          1                    1.500         TR
        3         91.00000          1                    1.500         TR
        4         91.00000          1                    1.500         TR
        5         92.00000          1                    1.500         TR
        6         91.00000          1                    1.500         TR
        7         91.00000          1                    1.500         TR
        8         91.00000          1                    1.500         TR
        9         92.00000          1                    1.500         TR
       10         91.00000          1                    1.500         TR
       11         91.00000          1                    1.500         TR
       12         91.00000          1                    1.500         TR

 TRANSIENT SIMULATION



 
 #MODOFC transient water supply sample problem                                   
 #                                                                               
 THE FREE FORMAT OPTION HAS BEEN SELECTED



                     BOUNDARY ARRAY FOR LAYER   1
 READING ON UNIT   12 WITH FORMAT: (20I4)              

 AQUIFER HEAD WILL BE SET TO   0.0000     AT ALL NO-FLOW NODES (IBOUND=0).



                       INITIAL HEAD FOR LAYER   1
 READING ON UNIT   12 WITH FORMAT: (10F13.0)           

 OUTPUT CONTROL IS SPECIFIED ONLY AT TIME STEPS FOR WHICH OUTPUT IS DESIRED
 COMPACT CELL-BY-CELL BUDGET FILES WILL BE WRITTEN
 HEAD PRINT FORMAT CODE IS  18    DRAWDOWN PRINT FORMAT CODE IS   0
 HEADS WILL BE SAVED ON UNIT   51    DRAWDOWNS WILL BE SAVED ON UNIT    0

 BCF -- BLOCK-CENTERED FLOW PACKAGE, VERSION 7, 5/2/2005
         INPUT READ FROM UNIT 13
 TRANSIENT SIMULATION
 HEAD AT CELLS THAT CONVERT TO DRY=   0.0000    
 WETTING CAPABILITY IS NOT ACTIVE
      LAYER  LAYER-TYPE CODE     INTERBLOCK T
      --------------------------------------------
         1            0          0 -- HARMONIC    

 COLUMN TO ROW ANISOTROPY =  1.000000    

     PRIMARY STORAGE COEF =  5.000000E-02 FOR LAYER   1



               TRANSMIS. ALONG ROWS FOR LAYER   1
 READING ON UNIT   13 WITH FORMAT: (FREE)              

 WEL -- WELL PACKAGE, VERSION 7, 5/2/2005 INPUT READ FROM UNIT   19
 # Well package input file written by MMProc
 No named parameters
 MAXIMUM OF      4 ACTIVE WELLS AT ONE TIME


     0 Well parameters

 RCH -- RECHARGE PACKAGE, VERSION 7, 5/2/2005 INPUT READ FROM UNIT   15
 No named parameters
 OPTION 1 -- RECHARGE TO TOP LAYER


     0 Recharge parameters

 SFR7 -- STREAMFLOW ROUTING PACKAGE, VERSION 1.0.7, 2013-01-15
         INPUT READ FROM UNIT  16
 #  Supply2 test problem for GWM-VI
 #  The eighth entry in the first data line is ISTCB2 -
 #    Setting this to a negative number indicates that
 #    streamflows out of the reach will be saved to a
 #    binary file.  The absolute value of ISTCB2 is the
 #    unit to which unformatted flows will be written.
 #
 No named parameters
 Segment information will not be 
 read by reach
 No named parameters
 No specifed inflow files


 NUMBER OF STREAM REACHES IS   40

 NUMBER OF STREAM SEGMENTS IS    3

 NUMBER OF STREAM PARAMETERS IS    0

 NUMBER OF STREAM SEGMENTS DEFINED USING PARAMETERS IS              0

 MAXIMUM ERROR FOR STREAM LEAKAGE RATES IS  1.00E-04

 CONSTANT FOR MANNINGS EQUATION IS  1.2839E+05





   STREAM NETWORK DESCRIPTION: 

   LAYER    ROW    COL   SEGMENT   REACH     LENGTH
                          NUMBER   NUMBER    IN CELL        
   --------------------------------------------------
      1     13      1       1        1    2.0000E+02
      1     13      2       1        2    2.0000E+02
      1     14      3       1        3    2.0000E+02
      1     15      4       1        4    2.0000E+02
      1     16      5       1        5    2.0000E+02
      1     16      6       1        6    2.0000E+02
      1     16      7       1        7    2.0000E+02
      1     16      8       1        8    2.0000E+02
      1     16      9       1        9    2.0000E+02
      1     16     10       1       10    2.0000E+02
      1     16     11       1       11    2.0000E+02
      1     16     12       1       12    2.0000E+02
      1     15     13       1       13    2.0000E+02
      1     14     14       1       14    2.0000E+02
      1     13     15       1       15    2.0000E+02
      1     12     16       1       16    2.0000E+02
      1     12     17       1       17    2.0000E+02
      1     12     18       1       18    2.0000E+02
      1     12     19       1       19    2.0000E+02
      1     13     20       1       20    2.0000E+02
      1     14     21       1       21    2.0000E+02
      1     14     22       1       22    2.0000E+02
      1      9     30       2        1    2.0000E+02
      1      9     29       2        2    2.0000E+02
      1      9     28       2        3    2.0000E+02
      1      9     27       2        4    2.0000E+02
      1     10     26       2        5    2.0000E+02
      1     11     25       2        6    2.0000E+02
      1     12     24       2        7    2.0000E+02
      1     13     23       2        8    2.0000E+02
      1     14     22       2        9    2.0000E+02
      1     14     22       3        1    2.0000E+02
      1     15     23       3        2    2.0000E+02
      1     15     24       3        3    2.0000E+02
      1     15     25       3        4    2.0000E+02
      1     15     26       3        5    2.0000E+02
      1     16     27       3        6    2.0000E+02
      1     17     28       3        7    2.0000E+02
      1     18     29       3        8    2.0000E+02
      1     18     30       3        9    2.0000E+02




 PCG -- CONJUGATE-GRADIENT SOLUTION PACKAGE, VERSION 7, 5/2/2005
 MAXIMUM OF    500 CALLS OF SOLUTION ROUTINE
 MAXIMUM OF      5 INTERNAL ITERATIONS PER CALL TO SOLUTION ROUTINE
 MATRIX PRECONDITIONING TYPE :    1



                                    SOLUTION BY THE CONJUGATE-GRADIENT METHOD
                                   -------------------------------------------
                    MAXIMUM NUMBER OF CALLS TO PCG ROUTINE =      500
                        MAXIMUM ITERATIONS PER CALL TO PCG =        5
                               MATRIX PRECONDITIONING TYPE =        1
        RELAXATION FACTOR (ONLY USED WITH PRECOND. TYPE 1) =    0.10000E+01
 PARAMETER OF POLYNOMIAL PRECOND. = 2 (2) OR IS CALCULATED :        0
                         HEAD CHANGE CRITERION FOR CLOSURE =    0.10000E-05
                     RESIDUAL CHANGE CRITERION FOR CLOSURE =    0.10000E+01
            PCG HEAD AND RESIDUAL CHANGE PRINTOUT INTERVAL =        1
     PRINTING FROM SOLVER IS LIMITED(1) OR SUPPRESSED (>1) =        1
                            STEADY-STATE DAMPING PARAMETER =    0.10000E+01
                               TRANSIENT DAMPING PARAMETER =    0.10000E+01
1
                            STRESS PERIOD NO.    1, LENGTH =   92.00000    
                            -----------------------------------------------

                              NUMBER OF TIME STEPS =     1

                               MULTIPLIER FOR DELT =     1.500

                            INITIAL TIME STEP SIZE =   92.00000    

 WELL NO.  LAYER   ROW   COL   STRESS RATE         
 --------------------------------------------------
      1      1     17     24      -1629.    
      2      1      9     25     -0.1155E+05
      3      1      8     20     -0.1367E+05
      4      1     10     13      -8797.    

      4 WELLS

                 RECHARGE =  5.000000E-04



 CLASSIFICATION & COUNT OF STREAM SEGMENTS BASED ON SOURCE OF INFLOW:

                HEADWATER     DIVERSION     RECEIVES TRIBUTARY FLOW
                ---------     ---------     -----------------------
                     2              0               1



                    INPUT DATA FOR EACH STREAM SEGMENT
 ---------------------------------------------------------------------------------------------

 SEGMENT    SEG.     INFLOW   OVERLAND   STREAM    STREAM   ICALC  OUTFLOW  DIVERSION PRIORITY
    NO.    LENGTH     RATE     RUNOFF      ET       PPT.    METH.  TO SEG.  FROM SEG.    NO.

      1  4.400E+03 1.000E+05 0.000E+00 0.000E+00 0.000E+00    1        3        0        0
      2  1.800E+03 5.000E+04 0.000E+00 0.000E+00 0.000E+00    1        3        0        0
      3  1.800E+03 0.000E+00 0.000E+00 0.000E+00 0.000E+00    1        0        0        0


         STREAMBED PROPERTIES AND STREAM DIMENSIONS

 SEGMENT     BED HYD. COND.      BED THICKNESS     ELEV.-TOP OF BED     WIDTH OF STREAM     DEPTH OF STREAM    STREAM ROUGHNESS
    No.     UPPER     LOWER     UPPER     LOWER     UPPER     LOWER     UPPER     LOWER     UPPER     LOWER   CHANNEL      BANK

     1  5.000E+00 5.000E+00 1.000E+00 1.000E+00 4.850E+01 3.800E+01 2.000E+01 2.000E+01                     5.000E-02
     2  5.000E+00 5.000E+00 1.000E+00 1.000E+00 4.025E+01 3.800E+01 2.000E+01 2.000E+01                     5.000E-02
     3  5.000E+00 5.000E+00 1.000E+00 1.000E+00 3.800E+01 3.000E+01 2.000E+01 2.000E+01                     5.000E-02



 
 SOLVING FOR HEAD 


     9 CALLS TO PCG ROUTINE FOR TIME STEP   1 IN STRESS PERIOD    1
    36 TOTAL ITERATIONS

 OUTPUT CONTROL FOR STRESS PERIOD    1   TIME STEP    1
    SAVE BUDGET
    SAVE HEAD FOR ALL LAYERS
    PRINT HEAD FOR ALL LAYERS
 UBDSV2 SAVING "STREAMFLOW OUT  " ON UNIT  50 AT TIME STEP  1, STRESS PERIOD   1



 STREAM LISTING     PERIOD      1   STEP        1

 LAYER ROW COL. STREAM  RCH.  FLOW INTO     FLOW TO   FLOW OUT OF   OVRLND.     DIRECT     STREAM       STREAM     STREAM     STREAM   STREAMBED  STREAMBED
                SEG.NO.  NO.  STRM. RCH.    AQUIFER    STRM. RCH.    RUNOFF     PRECIP       ET          HEAD       DEPTH      WIDTH   CONDCTNC.   GRADIENT

   1   13    1     1     1    1.0000E+05 -6.1066E+03   1.0611E+05  0.000E+00  0.000E+00  0.000E+00  4.84086E+01  1.473E-01  2.000E+01  2.000E+04 -3.053E-01
   1   13    2     1     2    1.0611E+05 -7.5752E+03   1.1368E+05  0.000E+00  0.000E+00  0.000E+00  4.79372E+01  1.531E-01  2.000E+01  2.000E+04 -3.788E-01
   1   14    3     1     3    1.1368E+05 -2.1979E+03   1.1588E+05  0.000E+00  0.000E+00  0.000E+00  4.74639E+01  1.571E-01  2.000E+01  2.000E+04 -1.099E-01
   1   15    4     1     4    1.1588E+05 -2.2696E+03   1.1815E+05  0.000E+00  0.000E+00  0.000E+00  4.69885E+01  1.590E-01  2.000E+01  2.000E+04 -1.135E-01
   1   16    5     1     5    1.1815E+05 -7.1861E+03   1.2534E+05  0.000E+00  0.000E+00  0.000E+00  4.65150E+01  1.628E-01  2.000E+01  2.000E+04 -3.593E-01
   1   16    6     1     6    1.2534E+05 -4.3038E+03   1.2964E+05  0.000E+00  0.000E+00  0.000E+00  4.60423E+01  1.673E-01  2.000E+01  2.000E+04 -2.152E-01
   1   16    7     1     7    1.2964E+05 -4.1381E+03   1.3378E+05  0.000E+00  0.000E+00  0.000E+00  4.55684E+01  1.706E-01  2.000E+01  2.000E+04 -2.069E-01
   1   16    8     1     8    1.3378E+05 -4.0961E+03   1.3787E+05  0.000E+00  0.000E+00  0.000E+00  4.50943E+01  1.738E-01  2.000E+01  2.000E+04 -2.048E-01
   1   16    9     1     9    1.3787E+05 -4.0833E+03   1.4196E+05  0.000E+00  0.000E+00  0.000E+00  4.46201E+01  1.769E-01  2.000E+01  2.000E+04 -2.042E-01
   1   16   10     1    10    1.4196E+05 -4.0765E+03   1.4603E+05  0.000E+00  0.000E+00  0.000E+00  4.41459E+01  1.800E-01  2.000E+01  2.000E+04 -2.038E-01
   1   16   11     1    11    1.4603E+05 -4.1029E+03   1.5014E+05  0.000E+00  0.000E+00  0.000E+00  4.36717E+01  1.831E-01  2.000E+01  2.000E+04 -2.051E-01
   1   16   12     1    12    1.5014E+05 -6.8735E+03   1.5701E+05  0.000E+00  0.000E+00  0.000E+00  4.31985E+01  1.871E-01  2.000E+01  2.000E+04 -3.437E-01
   1   15   13     1    13    1.5701E+05 -6.9002E+03   1.6391E+05  0.000E+00  0.000E+00  0.000E+00  4.27262E+01  1.921E-01  2.000E+01  2.000E+04 -3.450E-01
   1   14   14     1    14    1.6391E+05 -7.0788E+03   1.7099E+05  0.000E+00  0.000E+00  0.000E+00  4.22539E+01  1.971E-01  2.000E+01  2.000E+04 -3.539E-01
   1   13   15     1    15    1.7099E+05 -7.1415E+03   1.7813E+05  0.000E+00  0.000E+00  0.000E+00  4.17816E+01  2.021E-01  2.000E+01  2.000E+04 -3.571E-01
   1   12   16     1    16    1.7813E+05 -7.4505E+03   1.8558E+05  0.000E+00  0.000E+00  0.000E+00  4.13094E+01  2.071E-01  2.000E+01  2.000E+04 -3.725E-01
   1   12   17     1    17    1.8558E+05 -5.5296E+03   1.9111E+05  0.000E+00  0.000E+00  0.000E+00  4.08365E+01  2.115E-01  2.000E+01  2.000E+04 -2.765E-01
   1   12   18     1    18    1.9111E+05 -5.3163E+03   1.9643E+05  0.000E+00  0.000E+00  0.000E+00  4.03629E+01  2.151E-01  2.000E+01  2.000E+04 -2.658E-01
   1   12   19     1    19    1.9643E+05 -6.3284E+03   2.0276E+05  0.000E+00  0.000E+00  0.000E+00  3.98894E+01  2.190E-01  2.000E+01  2.000E+04 -3.164E-01
   1   13   20     1    20    2.0276E+05 -6.1470E+03   2.0890E+05  0.000E+00  0.000E+00  0.000E+00  3.94162E+01  2.231E-01  2.000E+01  2.000E+04 -3.074E-01
   1   14   21     1    21    2.0890E+05 -6.1543E+03   2.1506E+05  0.000E+00  0.000E+00  0.000E+00  3.89429E+01  2.270E-01  2.000E+01  2.000E+04 -3.077E-01
   1   14   22     1    22    2.1506E+05  3.8154E+03   2.1124E+05  0.000E+00  0.000E+00  0.000E+00  3.84664E+01  2.278E-01  2.000E+01  2.000E+04  1.908E-01
   1    9   30     2     1    5.0000E+04 -4.6502E+03   5.4650E+04  0.000E+00  0.000E+00  0.000E+00  4.02441E+01  1.191E-01  2.000E+01  2.000E+04 -2.325E-01
   1    9   29     2     2    5.4650E+04 -4.8894E+03   5.9540E+04  0.000E+00  0.000E+00  0.000E+00  4.00005E+01  1.255E-01  2.000E+01  2.000E+04 -2.445E-01
   1    9   28     2     3    5.9540E+04 -4.9913E+03   6.4531E+04  0.000E+00  0.000E+00  0.000E+00  3.97569E+01  1.319E-01  2.000E+01  2.000E+04 -2.496E-01
   1    9   27     2     4    6.4531E+04 -5.9955E+03   7.0527E+04  0.000E+00  0.000E+00  0.000E+00  3.95138E+01  1.388E-01  2.000E+01  2.000E+04 -2.998E-01
   1   10   26     2     5    7.0527E+04 -4.0891E+03   7.4616E+04  0.000E+00  0.000E+00  0.000E+00  3.92699E+01  1.449E-01  2.000E+01  2.000E+04 -2.045E-01
   1   11   25     2     6    7.4616E+04 -4.4547E+03   7.9070E+04  0.000E+00  0.000E+00  0.000E+00  3.90249E+01  1.499E-01  2.000E+01  2.000E+04 -2.227E-01
   1   12   24     2     7    7.9070E+04 -5.0837E+03   8.4154E+04  0.000E+00  0.000E+00  0.000E+00  3.87805E+01  1.555E-01  2.000E+01  2.000E+04 -2.542E-01
   1   13   23     2     8    8.4154E+04 -1.5030E+03   8.5657E+04  0.000E+00  0.000E+00  0.000E+00  3.85342E+01  1.592E-01  2.000E+01  2.000E+04 -7.515E-02
   1   14   22     2     9    8.5657E+04  1.8565E+02   8.5471E+04  0.000E+00  0.000E+00  0.000E+00  3.82849E+01  1.599E-01  2.000E+01  2.000E+04  9.283E-03
   1   14   22     3     1    2.9671E+05 -9.7464E+03   3.0646E+05  0.000E+00  0.000E+00  0.000E+00  3.77883E+01  2.328E-01  2.000E+01  2.000E+04 -4.873E-01
   1   15   23     3     2    3.0646E+05 -1.9222E+03   3.0838E+05  0.000E+00  0.000E+00  0.000E+00  3.69021E+01  2.355E-01  2.000E+01  2.000E+04 -9.611E-02
   1   15   24     3     3    3.0838E+05 -1.3884E+03   3.0977E+05  0.000E+00  0.000E+00  0.000E+00  3.60140E+01  2.362E-01  2.000E+01  2.000E+04 -6.942E-02
   1   15   25     3     4    3.0977E+05 -1.5040E+03   3.1127E+05  0.000E+00  0.000E+00  0.000E+00  3.51258E+01  2.369E-01  2.000E+01  2.000E+04 -7.520E-02
   1   15   26     3     5    3.1127E+05 -1.8526E+03   3.1313E+05  0.000E+00  0.000E+00  0.000E+00  3.42377E+01  2.377E-01  2.000E+01  2.000E+04 -9.263E-02
   1   16   27     3     6    3.1313E+05 -2.1223E+03   3.1525E+05  0.000E+00  0.000E+00  0.000E+00  3.33497E+01  2.386E-01  2.000E+01  2.000E+04 -1.061E-01
   1   17   28     3     7    3.1525E+05 -6.5409E+03   3.2179E+05  0.000E+00  0.000E+00  0.000E+00  3.24628E+01  2.405E-01  2.000E+01  2.000E+04 -3.270E-01
   1   18   29     3     8    3.2179E+05 -7.9660E+03   3.2976E+05  0.000E+00  0.000E+00  0.000E+00  3.15771E+01  2.438E-01  2.000E+01  2.000E+04 -3.983E-01
   1   18   30     3     9    3.2976E+05 -7.1619E+03   3.3692E+05  0.000E+00  0.000E+00  0.000E+00  3.06916E+01  2.472E-01  2.000E+01  2.000E+04 -3.581E-01



1
              HEAD IN LAYER   1 AT END OF TIME STEP   1 IN STRESS PERIOD    1
  ---------------------------------------------------------------------------

          1      2      3      4      5      6      7      8      9     10
         11     12     13     14     15     16     17     18     19     20
         21     22     23     24     25     26     27     28     29     30
 .........................................................................
   1  ****** ****** ****** ****** ****** ****** ****** ****** ****** ******
      ****** ****** ****** ****** ****** ****** ****** ****** ****** ******
      ****** ****** ****** ****** ****** ****** ****** ****** ****** ******
   2  ****** ****** ****** ****** ****** ****** ****** ****** ****** ******
      ****** ****** ****** ****** ****** ****** ****** ****** ****** ******
      ****** ****** ****** ****** ****** ****** ****** ****** ****** ******
   3  ****** ****** ****** ****** ****** ****** ****** ****** ****** ******
      ****** ****** ****** ****** ****** ****** ****** ****** ****** ******
      ****** ****** ****** ****** ****** ****** ****** ****** ****** ******
   4  ****** ****** ****** ****** ****** ****** ****** ****** ****** ******
      ****** ****** ****** ****** ****** ****** ****** ****** ****** ******
      ****** ****** ****** ****** ****** ****** ****** ****** ****** ******
   5  ****** ****** ****** ****** ****** ****** ****** ****** ****** ******
      ****** ****** ****** ****** ****** ****** ****** ****** ****** ******
      ****** ****** ****** ****** ****** ****** ****** ****** ****** ******
   6  ****** ****** ****** ****** ****** ****** ****** ****** ****** ******
      ****** ****** ****** ****** ****** ****** ****** ****** ****** ******
      ****** ****** ****** ****** ****** ****** ****** ****** ****** ******
   7  ****** ****** ****** ****** ****** ****** ****** ****** ****** ******
      ****** ****** ****** ****** ****** ****** ****** ****** ****** ******
      ****** ****** ****** ****** ****** ****** ****** ****** ****** ******
   8  ****** ****** ****** ****** ****** ****** ****** ****** ****** ******
      ****** ****** ****** ****** ****** ****** ****** ****** ****** ******
      ****** ****** ****** ****** ****** ****** ****** ****** ****** ******
   9  ****** ****** ****** ****** ****** ****** ****** ****** ****** ******
      ****** ****** ****** ****** ****** ****** ****** ****** ****** ******
      ****** ****** ****** ****** ****** ****** ****** ****** ****** ******
  10  ****** ****** ****** ****** ****** ****** ****** ****** ****** ******
      ****** ****** ****** ****** ****** ****** ****** ****** ****** ******
      ****** ****** ****** ****** ****** ****** ****** ****** ****** ******
  11  ****** ****** ****** ****** ****** ****** ****** ****** ****** ******
      ****** ****** ****** ****** ****** ****** ****** ****** ****** ******
      ****** ****** ****** ****** ****** ****** ****** ****** ****** ******
  12  ****** ****** ****** ****** ****** ****** ****** ****** ****** ******
      ****** ****** ****** ****** ****** ****** ****** ****** ****** ******
      ****** ****** ****** ****** ****** ****** ****** ****** ****** ******
  13  ****** ****** ****** ****** ****** ****** ****** ****** ****** ******
      ****** ****** ****** ****** ****** ****** ****** ****** ****** ******
      ****** ****** ****** ****** ****** ****** ****** ****** ****** ******
  14  ****** ****** ****** ****** ****** ****** ****** ****** ****** ******
      ****** ****** ****** ****** ****** ****** ****** ****** ****** ******
      ****** ****** ****** ****** ****** ****** ****** ****** ****** ******
  15  ****** ****** ****** ****** ****** ****** ****** ****** ****** ******
      ****** ****** ****** ****** ****** ****** ****** ****** ****** ******
      ****** ****** ****** ****** ****** ****** ****** ****** ****** ******
  16  ****** ****** ****** ****** ****** ****** ****** ****** ****** ******
      ****** ****** ****** ****** ****** ****** ****** ****** ****** ******
      ****** ****** ****** ****** ****** ****** ****** ****** ****** ******
  17  ****** ****** ****** ****** ****** ****** ****** ****** ****** ******
      ****** ****** ****** ****** ****** ****** ****** ****** ****** ******
      ****** ****** ****** ****** ****** ****** ****** ****** ****** ******
  18  ****** ****** ****** ****** ****** ****** ****** ****** ****** ******
      ****** ****** ****** ****** ****** ****** ****** ****** ****** ******
      ****** ****** ****** ****** ****** ****** ****** ****** ****** ******
  19  ****** ****** ****** ****** ****** ****** ****** ****** ****** ******
      ****** ****** ****** ****** ****** ****** ****** ****** ****** ******
      ****** ****** ****** ****** ****** ****** ****** ****** ****** ******
  20  ****** ****** ****** ****** ****** ****** ****** ****** ****** ******
      ****** ****** ****** ****** ****** ****** ****** ****** ****** ******
      ****** ****** ****** ****** ****** ****** ****** ****** ****** ******
  21  ****** ****** ****** ****** ****** ****** ****** ****** ****** ******
      ****** ****** ****** ****** ****** ****** ****** ****** ****** ******
      ****** ****** ****** ****** ****** ****** ****** ****** ****** ******
  22  ****** ****** ****** ****** ****** ****** ****** ****** ****** ******
      ****** ****** ****** ****** ****** ****** ****** ****** ****** ******
      ****** ****** ****** ****** ****** ****** ****** ****** ****** ******
  23  ****** ****** ****** ****** ****** ****** ****** ****** ****** ******
      ****** ****** ****** ****** ****** ****** ****** ****** ****** ******
      ****** ****** ****** ****** ****** ****** ****** ****** ****** ******
  24  ****** ****** ****** ****** ****** ****** ****** ****** ****** ******
      ****** ****** ****** ****** ****** ****** ****** ****** ****** ******
      ****** ****** ****** ****** ****** ****** ****** ****** ****** ******
  25  ****** ****** ****** ****** ****** ****** ****** ****** ****** ******
      ****** ****** ****** ****** ****** ****** ****** ****** ****** ******
      ****** ****** ****** ****** ****** ****** ****** ****** ****** ******

 HEAD WILL BE SAVED ON UNIT   51 AT END OF TIME STEP    1, STRESS PERIOD    1
1
  VOLUMETRIC BUDGET FOR ENTIRE MODEL AT END OF TIME STEP    1, STRESS PERIOD   1
  ------------------------------------------------------------------------------

     CUMULATIVE VOLUMES      L**3       RATES FOR THIS TIME STEP      L**3/T
     ------------------                 ------------------------

           IN:                                      IN:
           ---                                      ---
             STORAGE =    18049525.6290               STORAGE =      196190.4960
       CONSTANT HEAD =     1157523.8727         CONSTANT HEAD =       12581.7812
               WELLS =           0.0000                 WELLS =           0.0000
            RECHARGE =     1269600.0000              RECHARGE =       13800.0000
      STREAM LEAKAGE =      368100.3967        STREAM LEAKAGE =        4001.0913

            TOTAL IN =    20844749.8985              TOTAL IN =      226573.3685

          OUT:                                     OUT:
          ----                                     ----
             STORAGE =           0.0000               STORAGE =           0.0000
       CONSTANT HEAD =           0.0000         CONSTANT HEAD =           0.0000
               WELLS =     3280293.5633                 WELLS =       35655.3648
            RECHARGE =           0.0000              RECHARGE =           0.0000
      STREAM LEAKAGE =    17564456.6220        STREAM LEAKAGE =      190918.0068

           TOTAL OUT =    20844750.1853             TOTAL OUT =      226573.3716

            IN - OUT =          -0.2868              IN - OUT =      -3.1173E-03

 PERCENT DISCREPANCY =          -0.00     PERCENT DISCREPANCY =          -0.00






         TIME SUMMARY AT END OF TIME STEP    1 IN STRESS PERIOD    1
                    SECONDS     MINUTES      HOURS       DAYS        YEARS
                    -----------------------------------------------------------
   TIME STEP LENGTH 7.94880E+06 1.32480E+05  2208.0      92.000     0.25188    
 STRESS PERIOD TIME 7.94880E+06 1.32480E+05  2208.0      92.000     0.25188    
         TOTAL TIME 7.94880E+06 1.32480E+05  2208.0      92.000     0.25188    
1
1
                            STRESS PERIOD NO.    2, LENGTH =   91.00000    
                            -----------------------------------------------

                              NUMBER OF TIME STEPS =     1

                               MULTIPLIER FOR DELT =     1.500

                            INITIAL TIME STEP SIZE =   91.00000    

 WELL NO.  LAYER   ROW   COL   STRESS RATE         
 --------------------------------------------------
      1      1     17     24      -1629.    
      2      1      9     25     -0.1155E+05
      3      1      8     20     -0.1367E+05
      4      1     10     13      -8797.    

      4 WELLS

                 RECHARGE =  2.000000E-03

 REUSING STREAM SEGMENT DATA FROM LAST STRESS PERIOD
 
 SOLVING FOR HEAD 


     7 CALLS TO PCG ROUTINE FOR TIME STEP   1 IN STRESS PERIOD    2
    27 TOTAL ITERATIONS

 OUTPUT CONTROL FOR STRESS PERIOD    2   TIME STEP    1
    SAVE BUDGET
    SAVE HEAD FOR ALL LAYERS
    PRINT HEAD FOR ALL LAYERS
 UBDSV2 SAVING "STREAMFLOW OUT  " ON UNIT  50 AT TIME STEP  1, STRESS PERIOD   2



 STREAM LISTING     PERIOD      2   STEP        1

 LAYER ROW COL. STREAM  RCH.  FLOW INTO     FLOW TO   FLOW OUT OF   OVRLND.     DIRECT     STREAM       STREAM     STREAM     STREAM   STREAMBED  STREAMBED
                SEG.NO.  NO.  STRM. RCH.    AQUIFER    STRM. RCH.    RUNOFF     PRECIP       ET          HEAD       DEPTH      WIDTH   CONDCTNC.   GRADIENT

   1   13    1     1     1    1.0000E+05 -3.9637E+03   1.0396E+05  0.000E+00  0.000E+00  0.000E+00  4.84077E+01  1.464E-01  2.000E+01  2.000E+04 -1.982E-01
   1   13    2     1     2    1.0396E+05 -5.2224E+03   1.0919E+05  0.000E+00  0.000E+00  0.000E+00  4.79344E+01  1.503E-01  2.000E+01  2.000E+04 -2.611E-01
   1   14    3     1     3    1.0919E+05 -1.1128E+03   1.1030E+05  0.000E+00  0.000E+00  0.000E+00  4.74598E+01  1.529E-01  2.000E+01  2.000E+04 -5.564E-02
   1   15    4     1     4    1.1030E+05 -1.1418E+03   1.1144E+05  0.000E+00  0.000E+00  0.000E+00  4.69834E+01  1.539E-01  2.000E+01  2.000E+04 -5.709E-02
   1   16    5     1     5    1.1144E+05 -4.2571E+03   1.1570E+05  0.000E+00  0.000E+00  0.000E+00  4.65084E+01  1.561E-01  2.000E+01  2.000E+04 -2.129E-01
   1   16    6     1     6    1.1570E+05 -2.5081E+03   1.1821E+05  0.000E+00  0.000E+00  0.000E+00  4.60339E+01  1.589E-01  2.000E+01  2.000E+04 -1.254E-01
   1   16    7     1     7    1.1821E+05 -2.4124E+03   1.2062E+05  0.000E+00  0.000E+00  0.000E+00  4.55586E+01  1.609E-01  2.000E+01  2.000E+04 -1.206E-01
   1   16    8     1     8    1.2062E+05 -2.3808E+03   1.2300E+05  0.000E+00  0.000E+00  0.000E+00  4.50833E+01  1.628E-01  2.000E+01  2.000E+04 -1.190E-01
   1   16    9     1     9    1.2300E+05 -2.3562E+03   1.2536E+05  0.000E+00  0.000E+00  0.000E+00  4.46079E+01  1.647E-01  2.000E+01  2.000E+04 -1.178E-01
   1   16   10     1    10    1.2536E+05 -2.3260E+03   1.2768E+05  0.000E+00  0.000E+00  0.000E+00  4.41325E+01  1.666E-01  2.000E+01  2.000E+04 -1.163E-01
   1   16   11     1    11    1.2768E+05 -2.3217E+03   1.3000E+05  0.000E+00  0.000E+00  0.000E+00  4.36570E+01  1.684E-01  2.000E+01  2.000E+04 -1.161E-01
   1   16   12     1    12    1.3000E+05 -3.9529E+03   1.3396E+05  0.000E+00  0.000E+00  0.000E+00  4.31822E+01  1.709E-01  2.000E+01  2.000E+04 -1.976E-01
   1   15   13     1    13    1.3396E+05 -3.5294E+03   1.3749E+05  0.000E+00  0.000E+00  0.000E+00  4.27078E+01  1.737E-01  2.000E+01  2.000E+04 -1.765E-01
   1   14   14     1    14    1.3749E+05 -3.4978E+03   1.4098E+05  0.000E+00  0.000E+00  0.000E+00  4.22332E+01  1.764E-01  2.000E+01  2.000E+04 -1.749E-01
   1   13   15     1    15    1.4098E+05 -3.4787E+03   1.4446E+05  0.000E+00  0.000E+00  0.000E+00  4.17586E+01  1.791E-01  2.000E+01  2.000E+04 -1.739E-01
   1   12   16     1    16    1.4446E+05 -3.8145E+03   1.4828E+05  0.000E+00  0.000E+00  0.000E+00  4.12841E+01  1.818E-01  2.000E+01  2.000E+04 -1.907E-01
   1   12   17     1    17    1.4828E+05 -2.7447E+03   1.5102E+05  0.000E+00  0.000E+00  0.000E+00  4.08092E+01  1.842E-01  2.000E+01  2.000E+04 -1.372E-01
   1   12   18     1    18    1.5102E+05 -2.5224E+03   1.5354E+05  0.000E+00  0.000E+00  0.000E+00  4.03339E+01  1.862E-01  2.000E+01  2.000E+04 -1.261E-01
   1   12   19     1    19    1.5354E+05 -2.7486E+03   1.5629E+05  0.000E+00  0.000E+00  0.000E+00  3.98586E+01  1.881E-01  2.000E+01  2.000E+04 -1.374E-01
   1   13   20     1    20    1.5629E+05 -2.8173E+03   1.5911E+05  0.000E+00  0.000E+00  0.000E+00  3.93833E+01  1.901E-01  2.000E+01  2.000E+04 -1.409E-01
   1   14   21     1    21    1.5911E+05 -3.3521E+03   1.6246E+05  0.000E+00  0.000E+00  0.000E+00  3.89083E+01  1.923E-01  2.000E+01  2.000E+04 -1.676E-01
   1   14   22     1    22    1.6246E+05  4.6258E+03   1.5784E+05  0.000E+00  0.000E+00  0.000E+00  3.84305E+01  1.919E-01  2.000E+01  2.000E+04  2.313E-01
   1    9   30     2     1    5.0000E+04 -1.8089E+03   5.1809E+04  0.000E+00  0.000E+00  0.000E+00  4.02421E+01  1.171E-01  2.000E+01  2.000E+04 -9.044E-02
   1    9   29     2     2    5.1809E+04 -2.0461E+03   5.3855E+04  0.000E+00  0.000E+00  0.000E+00  3.99948E+01  1.198E-01  2.000E+01  2.000E+04 -1.023E-01
   1    9   28     2     3    5.3855E+04 -2.1236E+03   5.5979E+04  0.000E+00  0.000E+00  0.000E+00  3.97476E+01  1.226E-01  2.000E+01  2.000E+04 -1.062E-01
   1    9   27     2     4    5.5979E+04 -2.0777E+03   5.8056E+04  0.000E+00  0.000E+00  0.000E+00  3.95004E+01  1.254E-01  2.000E+01  2.000E+04 -1.039E-01
   1   10   26     2     5    5.8056E+04 -4.3007E+01   5.8099E+04  0.000E+00  0.000E+00  0.000E+00  3.92518E+01  1.268E-01  2.000E+01  2.000E+04 -2.150E-03
   1   11   25     2     6    5.8099E+04 -6.0926E+02   5.8709E+04  0.000E+00  0.000E+00  0.000E+00  3.90022E+01  1.272E-01  2.000E+01  2.000E+04 -3.046E-02
   1   12   24     2     7    5.8709E+04 -1.6426E+03   6.0351E+04  0.000E+00  0.000E+00  0.000E+00  3.87537E+01  1.287E-01  2.000E+01  2.000E+04 -8.213E-02
   1   13   23     2     8    6.0351E+04 -4.0935E+02   6.0760E+04  0.000E+00  0.000E+00  0.000E+00  3.85050E+01  1.300E-01  2.000E+01  2.000E+04 -2.047E-02
   1   14   22     2     9    6.0760E+04  1.1059E+03   5.9655E+04  0.000E+00  0.000E+00  0.000E+00  3.82545E+01  1.295E-01  2.000E+01  2.000E+04  5.530E-02
   1   14   22     3     1    2.1749E+05 -8.9998E+03   2.2649E+05  0.000E+00  0.000E+00  0.000E+00  3.77492E+01  1.937E-01  2.000E+01  2.000E+04 -4.500E-01
   1   15   23     3     2    2.2649E+05 -9.5633E+02   2.2745E+05  0.000E+00  0.000E+00  0.000E+00  3.68629E+01  1.963E-01  2.000E+01  2.000E+04 -4.782E-02
   1   15   24     3     3    2.2745E+05 -4.7323E+02   2.2792E+05  0.000E+00  0.000E+00  0.000E+00  3.59744E+01  1.967E-01  2.000E+01  2.000E+04 -2.366E-02
   1   15   25     3     4    2.2792E+05 -5.5801E+02   2.2848E+05  0.000E+00  0.000E+00  0.000E+00  3.50858E+01  1.969E-01  2.000E+01  2.000E+04 -2.790E-02
   1   15   26     3     5    2.2848E+05 -7.2328E+02   2.2920E+05  0.000E+00  0.000E+00  0.000E+00  3.41973E+01  1.973E-01  2.000E+01  2.000E+04 -3.616E-02
   1   16   27     3     6    2.2920E+05 -8.2829E+02   2.3003E+05  0.000E+00  0.000E+00  0.000E+00  3.33088E+01  1.977E-01  2.000E+01  2.000E+04 -4.141E-02
   1   17   28     3     7    2.3003E+05 -3.1875E+03   2.3322E+05  0.000E+00  0.000E+00  0.000E+00  3.24209E+01  1.987E-01  2.000E+01  2.000E+04 -1.594E-01
   1   18   29     3     8    2.3322E+05 -4.9974E+03   2.3821E+05  0.000E+00  0.000E+00  0.000E+00  3.15341E+01  2.008E-01  2.000E+01  2.000E+04 -2.499E-01
   1   18   30     3     9    2.3821E+05 -4.6572E+03   2.4287E+05  0.000E+00  0.000E+00  0.000E+00  3.06477E+01  2.032E-01  2.000E+01  2.000E+04 -2.329E-01



1
              HEAD IN LAYER   1 AT END OF TIME STEP   1 IN STRESS PERIOD    2
  ---------------------------------------------------------------------------

          1      2      3      4      5      6      7      8      9     10
         11     12     13     14     15     16     17     18     19     20
         21     22     23     24     25     26     27     28     29     30
 .........................................................................
   1  ****** ****** ****** ****** ****** ****** ****** ****** ****** ******
      ****** ****** ****** ****** ****** ****** ****** ****** ****** ******
      ****** ****** ****** ****** ****** ****** ****** ****** ****** ******
   2  ****** ****** ****** ****** ****** ****** ****** ****** ****** ******
      ****** ****** ****** ****** ****** ****** ****** ****** ****** ******
      ****** ****** ****** ****** ****** ****** ****** ****** ****** ******
   3  ****** ****** ****** ****** ****** ****** ****** ****** ****** ******
      ****** ****** ****** ****** ****** ****** ****** ****** ****** ******
      ****** ****** ****** ****** ****** ****** ****** ****** ****** ******
   4  ****** ****** ****** ****** ****** ****** ****** ****** ****** ******
      ****** ****** ****** ****** ****** ****** ****** ****** ****** ******
      ****** ****** ****** ****** ****** ****** ****** ****** ****** ******
   5  ****** ****** ****** ****** ****** ****** ****** ****** ****** ******
      ****** ****** ****** ****** ****** ****** ****** ****** ****** ******
      ****** ****** ****** ****** ****** ****** ****** ****** ****** ******
   6  ****** ****** ****** ****** ****** ****** ****** ****** ****** ******
      ****** ****** ****** ****** ****** ****** ****** ****** ****** ******
      ****** ****** ****** ****** ****** ****** ****** ****** ****** ******
   7  ****** ****** ****** ****** ****** ****** ****** ****** ****** ******
      ****** ****** ****** ****** ****** ****** ****** ****** ****** ******
      ****** ****** ****** ****** ****** ****** ****** ****** ****** ******
   8  ****** ****** ****** ****** ****** ****** ****** ****** ****** ******
      ****** ****** ****** ****** ****** ****** ****** ****** ****** ******
      ****** ****** ****** ****** ****** ****** ****** ****** ****** ******
   9  ****** ****** ****** ****** ****** ****** ****** ****** ****** ******
      ****** ****** ****** ****** ****** ****** ****** ****** ****** ******
      ****** ****** ****** ****** ****** ****** ****** ****** ****** ******
  10  ****** ****** ****** ****** ****** ****** ****** ****** ****** ******
      ****** ****** ****** ****** ****** ****** ****** ****** ****** ******
      ****** ****** ****** ****** ****** ****** ****** ****** ****** ******
  11  ****** ****** ****** ****** ****** ****** ****** ****** ****** ******
      ****** ****** ****** ****** ****** ****** ****** ****** ****** ******
      ****** ****** ****** ****** ****** ****** ****** ****** ****** ******
  12  ****** ****** ****** ****** ****** ****** ****** ****** ****** ******
      ****** ****** ****** ****** ****** ****** ****** ****** ****** ******
      ****** ****** ****** ****** ****** ****** ****** ****** ****** ******
  13  ****** ****** ****** ****** ****** ****** ****** ****** ****** ******
      ****** ****** ****** ****** ****** ****** ****** ****** ****** ******
      ****** ****** ****** ****** ****** ****** ****** ****** ****** ******
  14  ****** ****** ****** ****** ****** ****** ****** ****** ****** ******
      ****** ****** ****** ****** ****** ****** ****** ****** ****** ******
      ****** ****** ****** ****** ****** ****** ****** ****** ****** ******
  15  ****** ****** ****** ****** ****** ****** ****** ****** ****** ******
      ****** ****** ****** ****** ****** ****** ****** ****** ****** ******
      ****** ****** ****** ****** ****** ****** ****** ****** ****** ******
  16  ****** ****** ****** ****** ****** ****** ****** ****** ****** ******
      ****** ****** ****** ****** ****** ****** ****** ****** ****** ******
      ****** ****** ****** ****** ****** ****** ****** ****** ****** ******
  17  ****** ****** ****** ****** ****** ****** ****** ****** ****** ******
      ****** ****** ****** ****** ****** ****** ****** ****** ****** ******
      ****** ****** ****** ****** ****** ****** ****** ****** ****** ******
  18  ****** ****** ****** ****** ****** ****** ****** ****** ****** ******
      ****** ****** ****** ****** ****** ****** ****** ****** ****** ******
      ****** ****** ****** ****** ****** ****** ****** ****** ****** ******
  19  ****** ****** ****** ****** ****** ****** ****** ****** ****** ******
      ****** ****** ****** ****** ****** ****** ****** ****** ****** ******
      ****** ****** ****** ****** ****** ****** ****** ****** ****** ******
  20  ****** ****** ****** ****** ****** ****** ****** ****** ****** ******
      ****** ****** ****** ****** ****** ****** ****** ****** ****** ******
      ****** ****** ****** ****** ****** ****** ****** ****** ****** ******
  21  ****** ****** ****** ****** ****** ****** ****** ****** ****** ******
      ****** ****** ****** ****** ****** ****** ****** ****** ****** ******
      ****** ****** ****** ****** ****** ****** ****** ****** ****** ******
  22  ****** ****** ****** ****** ****** ****** ****** ****** ****** ******
      ****** ****** ****** ****** ****** ****** ****** ****** ****** ******
      ****** ****** ****** ****** ****** ****** ****** ****** ****** ******
  23  ****** ****** ****** ****** ****** ****** ****** ****** ****** ******
      ****** ****** ****** ****** ****** ****** ****** ****** ****** ******
      ****** ****** ****** ****** ****** ****** ****** ****** ****** ******
  24  ****** ****** ****** ****** ****** ****** ****** ****** ****** ******
      ****** ****** ****** ****** ****** ****** ****** ****** ****** ******
      ****** ****** ****** ****** ****** ****** ****** ****** ****** ******
  25  ****** ****** ****** ****** ****** ****** ****** ****** ****** ******
      ****** ****** ****** ****** ****** ****** ****** ****** ****** ******
      ****** ****** ****** ****** ****** ****** ****** ****** ****** ******

 HEAD WILL BE SAVED ON UNIT   51 AT END OF TIME STEP    1, STRESS PERIOD    2
1
  VOLUMETRIC BUDGET FOR ENTIRE MODEL AT END OF TIME STEP    1, STRESS PERIOD   2
  ------------------------------------------------------------------------------

     CUMULATIVE VOLUMES      L**3       RATES FOR THIS TIME STEP      L**3/T
     ------------------                 ------------------------

           IN:                                      IN:
           ---                                      ---
             STORAGE =    23153469.5971               STORAGE =       56087.2964
       CONSTANT HEAD =     2726322.7414         CONSTANT HEAD =       17239.5480
               WELLS =           0.0000                 WELLS =           0.0000
            RECHARGE =     6292800.0000              RECHARGE =       55200.0000
      STREAM LEAKAGE =      889685.0030        STREAM LEAKAGE =        5731.6990

            TOTAL IN =    33062277.3415              TOTAL IN =      134258.5433

          OUT:                                     OUT:
          ----                                     ----
             STORAGE =           0.0000               STORAGE =           0.0000
       CONSTANT HEAD =           0.0000         CONSTANT HEAD =           0.0000
               WELLS =     6524931.7618                 WELLS =       35655.3648
            RECHARGE =           0.0000              RECHARGE =           0.0000
      STREAM LEAKAGE =    26537346.7636        STREAM LEAKAGE =       98603.1884

           TOTAL OUT =    33062278.5254             TOTAL OUT =      134258.5532

            IN - OUT =          -1.1839              IN - OUT =      -9.8588E-03

 PERCENT DISCREPANCY =          -0.00     PERCENT DISCREPANCY =          -0.00






         TIME SUMMARY AT END OF TIME STEP    1 IN STRESS PERIOD    2
                    SECONDS     MINUTES      HOURS       DAYS        YEARS
                    -----------------------------------------------------------
   TIME STEP LENGTH 7.86240E+06 1.31040E+05  2184.0      91.000     0.24914    
 STRESS PERIOD TIME 7.86240E+06 1.31040E+05  2184.0      91.000     0.24914    
         TOTAL TIME 1.58112E+07 2.63520E+05  4392.0      183.00     0.50103    
1
1
                            STRESS PERIOD NO.    3, LENGTH =   91.00000    
                            -----------------------------------------------

                              NUMBER OF TIME STEPS =     1

                               MULTIPLIER FOR DELT =     1.500

                            INITIAL TIME STEP SIZE =   91.00000    

 WELL NO.  LAYER   ROW   COL   STRESS RATE         
 --------------------------------------------------
      1      1     17     24      -1629.    
      2      1      9     25     -0.1155E+05
      3      1      8     20     -0.1367E+05
      4      1     10     13      -8797.    

      4 WELLS

                 RECHARGE =   0.00000    

 REUSING STREAM SEGMENT DATA FROM LAST STRESS PERIOD
 
 SOLVING FOR HEAD 


     7 CALLS TO PCG ROUTINE FOR TIME STEP   1 IN STRESS PERIOD    3
    27 TOTAL ITERATIONS

 OUTPUT CONTROL FOR STRESS PERIOD    3   TIME STEP    1
    SAVE BUDGET
    SAVE HEAD FOR ALL LAYERS
    PRINT HEAD FOR ALL LAYERS
 UBDSV2 SAVING "STREAMFLOW OUT  " ON UNIT  50 AT TIME STEP  1, STRESS PERIOD   3



 STREAM LISTING     PERIOD      3   STEP        1

 LAYER ROW COL. STREAM  RCH.  FLOW INTO     FLOW TO   FLOW OUT OF   OVRLND.     DIRECT     STREAM       STREAM     STREAM     STREAM   STREAMBED  STREAMBED
                SEG.NO.  NO.  STRM. RCH.    AQUIFER    STRM. RCH.    RUNOFF     PRECIP       ET          HEAD       DEPTH      WIDTH   CONDCTNC.   GRADIENT

   1   13    1     1     1    1.0000E+05 -2.6848E+03   1.0268E+05  0.000E+00  0.000E+00  0.000E+00  4.84072E+01  1.458E-01  2.000E+01  2.000E+04 -1.342E-01
   1   13    2     1     2    1.0268E+05 -3.7868E+03   1.0647E+05  0.000E+00  0.000E+00  0.000E+00  4.79327E+01  1.486E-01  2.000E+01  2.000E+04 -1.893E-01
   1   14    3     1     3    1.0647E+05 -6.4914E+02   1.0712E+05  0.000E+00  0.000E+00  0.000E+00  4.74573E+01  1.505E-01  2.000E+01  2.000E+04 -3.246E-02
   1   15    4     1     4    1.0712E+05 -6.3485E+02   1.0776E+05  0.000E+00  0.000E+00  0.000E+00  4.69806E+01  1.510E-01  2.000E+01  2.000E+04 -3.174E-02
   1   16    5     1     5    1.0776E+05 -2.4660E+03   1.1022E+05  0.000E+00  0.000E+00  0.000E+00  4.65046E+01  1.523E-01  2.000E+01  2.000E+04 -1.233E-01
   1   16    6     1     6    1.1022E+05 -1.5057E+03   1.1173E+05  0.000E+00  0.000E+00  0.000E+00  4.60290E+01  1.540E-01  2.000E+01  2.000E+04 -7.528E-02
   1   16    7     1     7    1.1173E+05 -1.4670E+03   1.1319E+05  0.000E+00  0.000E+00  0.000E+00  4.55529E+01  1.552E-01  2.000E+01  2.000E+04 -7.335E-02
   1   16    8     1     8    1.1319E+05 -1.4525E+03   1.1465E+05  0.000E+00  0.000E+00  0.000E+00  4.50769E+01  1.564E-01  2.000E+01  2.000E+04 -7.263E-02
   1   16    9     1     9    1.1465E+05 -1.4315E+03   1.1608E+05  0.000E+00  0.000E+00  0.000E+00  4.46008E+01  1.576E-01  2.000E+01  2.000E+04 -7.158E-02
   1   16   10     1    10    1.1608E+05 -1.4017E+03   1.1748E+05  0.000E+00  0.000E+00  0.000E+00  4.41247E+01  1.588E-01  2.000E+01  2.000E+04 -7.009E-02
   1   16   11     1    11    1.1748E+05 -1.3929E+03   1.1887E+05  0.000E+00  0.000E+00  0.000E+00  4.36485E+01  1.599E-01  2.000E+01  2.000E+04 -6.965E-02
   1   16   12     1    12    1.1887E+05 -2.3289E+03   1.2120E+05  0.000E+00  0.000E+00  0.000E+00  4.31728E+01  1.614E-01  2.000E+01  2.000E+04 -1.164E-01
   1   15   13     1    13    1.2120E+05 -1.8216E+03   1.2302E+05  0.000E+00  0.000E+00  0.000E+00  4.26972E+01  1.631E-01  2.000E+01  2.000E+04 -9.108E-02
   1   14   14     1    14    1.2302E+05 -1.7066E+03   1.2473E+05  0.000E+00  0.000E+00  0.000E+00  4.22213E+01  1.645E-01  2.000E+01  2.000E+04 -8.533E-02
   1   13   15     1    15    1.2473E+05 -1.6461E+03   1.2638E+05  0.000E+00  0.000E+00  0.000E+00  4.17454E+01  1.658E-01  2.000E+01  2.000E+04 -8.230E-02
   1   12   16     1    16    1.2638E+05 -1.8440E+03   1.2822E+05  0.000E+00  0.000E+00  0.000E+00  4.12695E+01  1.672E-01  2.000E+01  2.000E+04 -9.220E-02
   1   12   17     1    17    1.2822E+05 -1.3467E+03   1.2957E+05  0.000E+00  0.000E+00  0.000E+00  4.07934E+01  1.684E-01  2.000E+01  2.000E+04 -6.733E-02
   1   12   18     1    18    1.2957E+05 -1.1466E+03   1.3071E+05  0.000E+00  0.000E+00  0.000E+00  4.03171E+01  1.694E-01  2.000E+01  2.000E+04 -5.733E-02
   1   12   19     1    19    1.3071E+05 -9.9406E+02   1.3171E+05  0.000E+00  0.000E+00  0.000E+00  3.98407E+01  1.703E-01  2.000E+01  2.000E+04 -4.970E-02
   1   13   20     1    20    1.3171E+05 -1.2887E+03   1.3300E+05  0.000E+00  0.000E+00  0.000E+00  3.93643E+01  1.711E-01  2.000E+01  2.000E+04 -6.443E-02
   1   14   21     1    21    1.3300E+05 -1.8570E+03   1.3485E+05  0.000E+00  0.000E+00  0.000E+00  3.88883E+01  1.724E-01  2.000E+01  2.000E+04 -9.285E-02
   1   14   22     1    22    1.3485E+05  5.0012E+03   1.2985E+05  0.000E+00  0.000E+00  0.000E+00  3.84098E+01  1.711E-01  2.000E+01  2.000E+04  2.501E-01
   1    9   30     2     1    5.0000E+04 -5.4564E+02   5.0546E+04  0.000E+00  0.000E+00  0.000E+00  4.02412E+01  1.162E-01  2.000E+01  2.000E+04 -2.728E-02
   1    9   29     2     2    5.0546E+04 -7.7936E+02   5.1325E+04  0.000E+00  0.000E+00  0.000E+00  3.99922E+01  1.172E-01  2.000E+01  2.000E+04 -3.897E-02
   1    9   28     2     3    5.1325E+04 -8.3023E+02   5.2155E+04  0.000E+00  0.000E+00  0.000E+00  3.97433E+01  1.183E-01  2.000E+01  2.000E+04 -4.151E-02
   1    9   27     2     4    5.2155E+04 -1.6247E+02   5.2318E+04  0.000E+00  0.000E+00  0.000E+00  3.94939E+01  1.189E-01  2.000E+01  2.000E+04 -8.124E-03
   1   10   26     2     5    5.2318E+04  1.7258E+03   5.0592E+04  0.000E+00  0.000E+00  0.000E+00  3.92429E+01  1.179E-01  2.000E+01  2.000E+04  8.629E-02
   1   11   25     2     6    5.0592E+04  1.0352E+03   4.9557E+04  0.000E+00  0.000E+00  0.000E+00  3.89910E+01  1.160E-01  2.000E+01  2.000E+04  5.176E-02
   1   12   24     2     7    4.9557E+04 -1.6518E+02   4.9722E+04  0.000E+00  0.000E+00  0.000E+00  3.87404E+01  1.154E-01  2.000E+01  2.000E+04 -8.259E-03
   1   13   23     2     8    4.9722E+04 -5.5091E+01   4.9777E+04  0.000E+00  0.000E+00  0.000E+00  3.84905E+01  1.155E-01  2.000E+01  2.000E+04 -2.755E-03
   1   14   22     2     9    4.9777E+04  1.5944E+03   4.8183E+04  0.000E+00  0.000E+00  0.000E+00  3.82394E+01  1.144E-01  2.000E+01  2.000E+04  7.972E-02
   1   14   22     3     1    1.7803E+05 -8.6407E+03   1.8668E+05  0.000E+00  0.000E+00  0.000E+00  3.77277E+01  1.721E-01  2.000E+01  2.000E+04 -4.320E-01
   1   15   23     3     2    1.8668E+05 -5.5792E+02   1.8723E+05  0.000E+00  0.000E+00  0.000E+00  3.68414E+01  1.747E-01  2.000E+01  2.000E+04 -2.790E-02
   1   15   24     3     3    1.8723E+05 -1.3643E+02   1.8737E+05  0.000E+00  0.000E+00  0.000E+00  3.59527E+01  1.749E-01  2.000E+01  2.000E+04 -6.822E-03
   1   15   25     3     4    1.8737E+05 -2.0585E+02   1.8758E+05  0.000E+00  0.000E+00  0.000E+00  3.50639E+01  1.750E-01  2.000E+01  2.000E+04 -1.029E-02
   1   15   26     3     5    1.8758E+05 -3.1177E+02   1.8789E+05  0.000E+00  0.000E+00  0.000E+00  3.41752E+01  1.752E-01  2.000E+01  2.000E+04 -1.559E-02
   1   16   27     3     6    1.8789E+05 -3.5129E+02   1.8824E+05  0.000E+00  0.000E+00  0.000E+00  3.32865E+01  1.753E-01  2.000E+01  2.000E+04 -1.756E-02
   1   17   28     3     7    1.8824E+05 -1.7637E+03   1.9000E+05  0.000E+00  0.000E+00  0.000E+00  3.23982E+01  1.759E-01  2.000E+01  2.000E+04 -8.819E-02
   1   18   29     3     8    1.9000E+05 -3.4719E+03   1.9347E+05  0.000E+00  0.000E+00  0.000E+00  3.15107E+01  1.774E-01  2.000E+01  2.000E+04 -1.736E-01
   1   18   30     3     9    1.9347E+05 -3.5172E+03   1.9699E+05  0.000E+00  0.000E+00  0.000E+00  3.06238E+01  1.793E-01  2.000E+01  2.000E+04 -1.759E-01



1
              HEAD IN LAYER   1 AT END OF TIME STEP   1 IN STRESS PERIOD    3
  ---------------------------------------------------------------------------

          1      2      3      4      5      6      7      8      9     10
         11     12     13     14     15     16     17     18     19     20
         21     22     23     24     25     26     27     28     29     30
 .........................................................................
   1  ****** ****** ****** ****** ****** ****** ****** ****** ****** ******
      ****** ****** ****** ****** ****** ****** ****** ****** ****** ******
      ****** ****** ****** ****** ****** ****** ****** ****** ****** ******
   2  ****** ****** ****** ****** ****** ****** ****** ****** ****** ******
      ****** ****** ****** ****** ****** ****** ****** ****** ****** ******
      ****** ****** ****** ****** ****** ****** ****** ****** ****** ******
   3  ****** ****** ****** ****** ****** ****** ****** ****** ****** ******
      ****** ****** ****** ****** ****** ****** ****** ****** ****** ******
      ****** ****** ****** ****** ****** ****** ****** ****** ****** ******
   4  ****** ****** ****** ****** ****** ****** ****** ****** ****** ******
      ****** ****** ****** ****** ****** ****** ****** ****** ****** ******
      ****** ****** ****** ****** ****** ****** ****** ****** ****** ******
   5  ****** ****** ****** ****** ****** ****** ****** ****** ****** ******
      ****** ****** ****** ****** ****** ****** ****** ****** ****** ******
      ****** ****** ****** ****** ****** ****** ****** ****** ****** ******
   6  ****** ****** ****** ****** ****** ****** ****** ****** ****** ******
      ****** ****** ****** ****** ****** ****** ****** ****** ****** ******
      ****** ****** ****** ****** ****** ****** ****** ****** ****** ******
   7  ****** ****** ****** ****** ****** ****** ****** ****** ****** ******
      ****** ****** ****** ****** ****** ****** ****** ****** ****** ******
      ****** ****** ****** ****** ****** ****** ****** ****** ****** ******
   8  ****** ****** ****** ****** ****** ****** ****** ****** ****** ******
      ****** ****** ****** ****** ****** ****** ****** ****** ****** ******
      ****** ****** ****** ****** ****** ****** ****** ****** ****** ******
   9  ****** ****** ****** ****** ****** ****** ****** ****** ****** ******
      ****** ****** ****** ****** ****** ****** ****** ****** ****** ******
      ****** ****** ****** ****** ****** ****** ****** ****** ****** ******
  10  ****** ****** ****** ****** ****** ****** ****** ****** ****** ******
      ****** ****** ****** ****** ****** ****** ****** ****** ****** ******
      ****** ****** ****** ****** ****** ****** ****** ****** ****** ******
  11  ****** ****** ****** ****** ****** ****** ****** ****** ****** ******
      ****** ****** ****** ****** ****** ****** ****** ****** ****** ******
      ****** ****** ****** ****** ****** ****** ****** ****** ****** ******
  12  ****** ****** ****** ****** ****** ****** ****** ****** ****** ******
      ****** ****** ****** ****** ****** ****** ****** ****** ****** ******
      ****** ****** ****** ****** ****** ****** ****** ****** ****** ******
  13  ****** ****** ****** ****** ****** ****** ****** ****** ****** ******
      ****** ****** ****** ****** ****** ****** ****** ****** ****** ******
      ****** ****** ****** ****** ****** ****** ****** ****** ****** ******
  14  ****** ****** ****** ****** ****** ****** ****** ****** ****** ******
      ****** ****** ****** ****** ****** ****** ****** ****** ****** ******
      ****** ****** ****** ****** ****** ****** ****** ****** ****** ******
  15  ****** ****** ****** ****** ****** ****** ****** ****** ****** ******
      ****** ****** ****** ****** ****** ****** ****** ****** ****** ******
      ****** ****** ****** ****** ****** ****** ****** ****** ****** ******
  16  ****** ****** ****** ****** ****** ****** ****** ****** ****** ******
      ****** ****** ****** ****** ****** ****** ****** ****** ****** ******
      ****** ****** ****** ****** ****** ****** ****** ****** ****** ******
  17  ****** ****** ****** ****** ****** ****** ****** ****** ****** ******
      ****** ****** ****** ****** ****** ****** ****** ****** ****** ******
      ****** ****** ****** ****** ****** ****** ****** ****** ****** ******
  18  ****** ****** ****** ****** ****** ****** ****** ****** ****** ******
      ****** ****** ****** ****** ****** ****** ****** ****** ****** ******
      ****** ****** ****** ****** ****** ****** ****** ****** ****** ******
  19  ****** ****** ****** ****** ****** ****** ****** ****** ****** ******
      ****** ****** ****** ****** ****** ****** ****** ****** ****** ******
      ****** ****** ****** ****** ****** ****** ****** ****** ****** ******
  20  ****** ****** ****** ****** ****** ****** ****** ****** ****** ******
      ****** ****** ****** ****** ****** ****** ****** ****** ****** ******
      ****** ****** ****** ****** ****** ****** ****** ****** ****** ******
  21  ****** ****** ****** ****** ****** ****** ****** ****** ****** ******
      ****** ****** ****** ****** ****** ****** ****** ****** ****** ******
      ****** ****** ****** ****** ****** ****** ****** ****** ****** ******
  22  ****** ****** ****** ****** ****** ****** ****** ****** ****** ******
      ****** ****** ****** ****** ****** ****** ****** ****** ****** ******
      ****** ****** ****** ****** ****** ****** ****** ****** ****** ******
  23  ****** ****** ****** ****** ****** ****** ****** ****** ****** ******
      ****** ****** ****** ****** ****** ****** ****** ****** ****** ******
      ****** ****** ****** ****** ****** ****** ****** ****** ****** ******
  24  ****** ****** ****** ****** ****** ****** ****** ****** ****** ******
      ****** ****** ****** ****** ****** ****** ****** ****** ****** ******
      ****** ****** ****** ****** ****** ****** ****** ****** ****** ******
  25  ****** ****** ****** ****** ****** ****** ****** ****** ****** ******
      ****** ****** ****** ****** ****** ****** ****** ****** ****** ******
      ****** ****** ****** ****** ****** ****** ****** ****** ****** ******

 HEAD WILL BE SAVED ON UNIT   51 AT END OF TIME STEP    1, STRESS PERIOD    3
1
  VOLUMETRIC BUDGET FOR ENTIRE MODEL AT END OF TIME STEP    1, STRESS PERIOD   3
  ------------------------------------------------------------------------------

     CUMULATIVE VOLUMES      L**3       RATES FOR THIS TIME STEP      L**3/T
     ------------------                 ------------------------

           IN:                                      IN:
           ---                                      ---
             STORAGE =    28312534.3742               STORAGE =       56693.0195
       CONSTANT HEAD =     5088104.5455         CONSTANT HEAD =       25953.6462
               WELLS =           0.0000                 WELLS =           0.0000
            RECHARGE =     6292800.0000              RECHARGE =           0.0000
      STREAM LEAKAGE =     1741141.0702        STREAM LEAKAGE =        9356.6601

            TOTAL IN =    41434579.9899              TOTAL IN =       92003.3258

          OUT:                                     OUT:
          ----                                     ----
             STORAGE =           0.0000               STORAGE =           0.0000
       CONSTANT HEAD =           0.0000         CONSTANT HEAD =           0.0000
               WELLS =     9769569.9603                 WELLS =       35655.3648
            RECHARGE =           0.0000              RECHARGE =           0.0000
      STREAM LEAKAGE =    31665011.9080        STREAM LEAKAGE =       56347.9686

           TOTAL OUT =    41434581.8683             TOTAL OUT =       92003.3334

            IN - OUT =          -1.8784              IN - OUT =      -7.6314E-03

 PERCENT DISCREPANCY =          -0.00     PERCENT DISCREPANCY =          -0.00






         TIME SUMMARY AT END OF TIME STEP    1 IN STRESS PERIOD    3
                    SECONDS     MINUTES      HOURS       DAYS        YEARS
                    -----------------------------------------------------------
   TIME STEP LENGTH 7.86240E+06 1.31040E+05  2184.0      91.000     0.24914    
 STRESS PERIOD TIME 7.86240E+06 1.31040E+05  2184.0      91.000     0.24914    
         TOTAL TIME 2.36736E+07 3.94560E+05  6576.0      274.00     0.75017    
1
1
                            STRESS PERIOD NO.    4, LENGTH =   91.00000    
                            -----------------------------------------------

                              NUMBER OF TIME STEPS =     1

                               MULTIPLIER FOR DELT =     1.500

                            INITIAL TIME STEP SIZE =   91.00000    

 WELL NO.  LAYER   ROW   COL   STRESS RATE         
 --------------------------------------------------
      1      1     17     24      -1629.    
      2      1      9     25     -0.1155E+05
      3      1      8     20     -0.1367E+05
      4      1     10     13      -8797.    

      4 WELLS

                 RECHARGE =  1.000000E-03

 REUSING STREAM SEGMENT DATA FROM LAST STRESS PERIOD
 
 SOLVING FOR HEAD 


     6 CALLS TO PCG ROUTINE FOR TIME STEP   1 IN STRESS PERIOD    4
    23 TOTAL ITERATIONS

 OUTPUT CONTROL FOR STRESS PERIOD    4   TIME STEP    1
    SAVE BUDGET
    SAVE HEAD FOR ALL LAYERS
    PRINT HEAD FOR ALL LAYERS
 UBDSV2 SAVING "STREAMFLOW OUT  " ON UNIT  50 AT TIME STEP  1, STRESS PERIOD   4



 STREAM LISTING     PERIOD      4   STEP        1

 LAYER ROW COL. STREAM  RCH.  FLOW INTO     FLOW TO   FLOW OUT OF   OVRLND.     DIRECT     STREAM       STREAM     STREAM     STREAM   STREAMBED  STREAMBED
                SEG.NO.  NO.  STRM. RCH.    AQUIFER    STRM. RCH.    RUNOFF     PRECIP       ET          HEAD       DEPTH      WIDTH   CONDCTNC.   GRADIENT

   1   13    1     1     1    1.0000E+05 -2.4230E+03   1.0242E+05  0.000E+00  0.000E+00  0.000E+00  4.84071E+01  1.457E-01  2.000E+01  2.000E+04 -1.212E-01
   1   13    2     1     2    1.0242E+05 -3.4834E+03   1.0591E+05  0.000E+00  0.000E+00  0.000E+00  4.79323E+01  1.482E-01  2.000E+01  2.000E+04 -1.742E-01
   1   14    3     1     3    1.0591E+05 -6.1763E+02   1.0652E+05  0.000E+00  0.000E+00  0.000E+00  4.74568E+01  1.500E-01  2.000E+01  2.000E+04 -3.088E-02
   1   15    4     1     4    1.0652E+05 -5.9454E+02   1.0712E+05  0.000E+00  0.000E+00  0.000E+00  4.69800E+01  1.505E-01  2.000E+01  2.000E+04 -2.973E-02
   1   16    5     1     5    1.0712E+05 -2.1683E+03   1.0929E+05  0.000E+00  0.000E+00  0.000E+00  4.65039E+01  1.517E-01  2.000E+01  2.000E+04 -1.084E-01
   1   16    6     1     6    1.0929E+05 -1.3580E+03   1.1064E+05  0.000E+00  0.000E+00  0.000E+00  4.60281E+01  1.531E-01  2.000E+01  2.000E+04 -6.790E-02
   1   16    7     1     7    1.1064E+05 -1.3300E+03   1.1197E+05  0.000E+00  0.000E+00  0.000E+00  4.55520E+01  1.543E-01  2.000E+01  2.000E+04 -6.650E-02
   1   16    8     1     8    1.1197E+05 -1.3194E+03   1.1329E+05  0.000E+00  0.000E+00  0.000E+00  4.50758E+01  1.554E-01  2.000E+01  2.000E+04 -6.597E-02
   1   16    9     1     9    1.1329E+05 -1.3014E+03   1.1460E+05  0.000E+00  0.000E+00  0.000E+00  4.45996E+01  1.564E-01  2.000E+01  2.000E+04 -6.507E-02
   1   16   10     1    10    1.1460E+05 -1.2760E+03   1.1587E+05  0.000E+00  0.000E+00  0.000E+00  4.41234E+01  1.575E-01  2.000E+01  2.000E+04 -6.380E-02
   1   16   11     1    11    1.1587E+05 -1.2694E+03   1.1714E+05  0.000E+00  0.000E+00  0.000E+00  4.36472E+01  1.585E-01  2.000E+01  2.000E+04 -6.347E-02
   1   16   12     1    12    1.1714E+05 -2.0649E+03   1.1921E+05  0.000E+00  0.000E+00  0.000E+00  4.31713E+01  1.599E-01  2.000E+01  2.000E+04 -1.032E-01
   1   15   13     1    13    1.1921E+05 -1.5534E+03   1.2076E+05  0.000E+00  0.000E+00  0.000E+00  4.26955E+01  1.614E-01  2.000E+01  2.000E+04 -7.767E-02
   1   14   14     1    14    1.2076E+05 -1.3984E+03   1.2216E+05  0.000E+00  0.000E+00  0.000E+00  4.22194E+01  1.625E-01  2.000E+01  2.000E+04 -6.992E-02
   1   13   15     1    15    1.2216E+05 -1.2947E+03   1.2345E+05  0.000E+00  0.000E+00  0.000E+00  4.17432E+01  1.636E-01  2.000E+01  2.000E+04 -6.474E-02
   1   12   16     1    16    1.2345E+05 -1.3594E+03   1.2481E+05  0.000E+00  0.000E+00  0.000E+00  4.12670E+01  1.647E-01  2.000E+01  2.000E+04 -6.797E-02
   1   12   17     1    17    1.2481E+05 -1.0604E+03   1.2587E+05  0.000E+00  0.000E+00  0.000E+00  4.07906E+01  1.656E-01  2.000E+01  2.000E+04 -5.302E-02
   1   12   18     1    18    1.2587E+05 -8.8042E+02   1.2675E+05  0.000E+00  0.000E+00  0.000E+00  4.03141E+01  1.664E-01  2.000E+01  2.000E+04 -4.402E-02
   1   12   19     1    19    1.2675E+05 -6.5335E+02   1.2741E+05  0.000E+00  0.000E+00  0.000E+00  3.98375E+01  1.670E-01  2.000E+01  2.000E+04 -3.267E-02
   1   13   20     1    20    1.2741E+05 -1.0893E+03   1.2850E+05  0.000E+00  0.000E+00  0.000E+00  3.93609E+01  1.677E-01  2.000E+01  2.000E+04 -5.447E-02
   1   14   21     1    21    1.2850E+05 -1.6257E+03   1.3012E+05  0.000E+00  0.000E+00  0.000E+00  3.88847E+01  1.688E-01  2.000E+01  2.000E+04 -8.129E-02
   1   14   22     1    22    1.3012E+05  5.0410E+03   1.2508E+05  0.000E+00  0.000E+00  0.000E+00  3.84061E+01  1.674E-01  2.000E+01  2.000E+04  2.520E-01
   1    9   30     2     1    5.0000E+04 -4.2586E+02   5.0426E+04  0.000E+00  0.000E+00  0.000E+00  4.02412E+01  1.162E-01  2.000E+01  2.000E+04 -2.129E-02
   1    9   29     2     2    5.0426E+04 -6.5044E+02   5.1076E+04  0.000E+00  0.000E+00  0.000E+00  3.99919E+01  1.169E-01  2.000E+01  2.000E+04 -3.252E-02
   1    9   28     2     3    5.1076E+04 -6.7540E+02   5.1752E+04  0.000E+00  0.000E+00  0.000E+00  3.97428E+01  1.178E-01  2.000E+01  2.000E+04 -3.377E-02
   1    9   27     2     4    5.1752E+04  1.8205E+02   5.1570E+04  0.000E+00  0.000E+00  0.000E+00  3.94932E+01  1.182E-01  2.000E+01  2.000E+04  9.102E-03
   1   10   26     2     5    5.1570E+04  1.9424E+03   4.9627E+04  0.000E+00  0.000E+00  0.000E+00  3.92417E+01  1.167E-01  2.000E+01  2.000E+04  9.712E-02
   1   11   25     2     6    4.9627E+04  1.2051E+03   4.8422E+04  0.000E+00  0.000E+00  0.000E+00  3.89895E+01  1.145E-01  2.000E+01  2.000E+04  6.025E-02
   1   12   24     2     7    4.8422E+04 -1.5272E+01   4.8437E+04  0.000E+00  0.000E+00  0.000E+00  3.87387E+01  1.137E-01  2.000E+01  2.000E+04 -7.636E-04
   1   13   23     2     8    4.8437E+04 -7.2866E+01   4.8510E+04  0.000E+00  0.000E+00  0.000E+00  3.84887E+01  1.137E-01  2.000E+01  2.000E+04 -3.643E-03
   1   14   22     2     9    4.8510E+04  1.6717E+03   4.6839E+04  0.000E+00  0.000E+00  0.000E+00  3.82376E+01  1.126E-01  2.000E+01  2.000E+04  8.358E-02
   1   14   22     3     1    1.7192E+05 -8.5967E+03   1.8052E+05  0.000E+00  0.000E+00  0.000E+00  3.77242E+01  1.686E-01  2.000E+01  2.000E+04 -4.298E-01
   1   15   23     3     2    1.8052E+05 -5.3420E+02   1.8105E+05  0.000E+00  0.000E+00  0.000E+00  3.68379E+01  1.712E-01  2.000E+01  2.000E+04 -2.671E-02
   1   15   24     3     3    1.8105E+05 -1.3210E+02   1.8118E+05  0.000E+00  0.000E+00  0.000E+00  3.59492E+01  1.714E-01  2.000E+01  2.000E+04 -6.605E-03
   1   15   25     3     4    1.8118E+05 -2.0113E+02   1.8138E+05  0.000E+00  0.000E+00  0.000E+00  3.50604E+01  1.715E-01  2.000E+01  2.000E+04 -1.006E-02
   1   15   26     3     5    1.8138E+05 -3.1830E+02   1.8170E+05  0.000E+00  0.000E+00  0.000E+00  3.41717E+01  1.717E-01  2.000E+01  2.000E+04 -1.591E-02
   1   16   27     3     6    1.8170E+05 -3.4783E+02   1.8205E+05  0.000E+00  0.000E+00  0.000E+00  3.32830E+01  1.719E-01  2.000E+01  2.000E+04 -1.739E-02
   1   17   28     3     7    1.8205E+05 -1.6979E+03   1.8375E+05  0.000E+00  0.000E+00  0.000E+00  3.23947E+01  1.724E-01  2.000E+01  2.000E+04 -8.490E-02
   1   18   29     3     8    1.8375E+05 -3.2566E+03   1.8700E+05  0.000E+00  0.000E+00  0.000E+00  3.15072E+01  1.738E-01  2.000E+01  2.000E+04 -1.628E-01
   1   18   30     3     9    1.8700E+05 -3.4113E+03   1.9042E+05  0.000E+00  0.000E+00  0.000E+00  3.06201E+01  1.757E-01  2.000E+01  2.000E+04 -1.706E-01



1
              HEAD IN LAYER   1 AT END OF TIME STEP   1 IN STRESS PERIOD    4
  ---------------------------------------------------------------------------

          1      2      3      4      5      6      7      8      9     10
         11     12     13     14     15     16     17     18     19     20
         21     22     23     24     25     26     27     28     29     30
 .........................................................................
   1  ****** ****** ****** ****** ****** ****** ****** ****** ****** ******
      ****** ****** ****** ****** ****** ****** ****** ****** ****** ******
      ****** ****** ****** ****** ****** ****** ****** ****** ****** ******
   2  ****** ****** ****** ****** ****** ****** ****** ****** ****** ******
      ****** ****** ****** ****** ****** ****** ****** ****** ****** ******
      ****** ****** ****** ****** ****** ****** ****** ****** ****** ******
   3  ****** ****** ****** ****** ****** ****** ****** ****** ****** ******
      ****** ****** ****** ****** ****** ****** ****** ****** ****** ******
      ****** ****** ****** ****** ****** ****** ****** ****** ****** ******
   4  ****** ****** ****** ****** ****** ****** ****** ****** ****** ******
      ****** ****** ****** ****** ****** ****** ****** ****** ****** ******
      ****** ****** ****** ****** ****** ****** ****** ****** ****** ******
   5  ****** ****** ****** ****** ****** ****** ****** ****** ****** ******
      ****** ****** ****** ****** ****** ****** ****** ****** ****** ******
      ****** ****** ****** ****** ****** ****** ****** ****** ****** ******
   6  ****** ****** ****** ****** ****** ****** ****** ****** ****** ******
      ****** ****** ****** ****** ****** ****** ****** ****** ****** ******
      ****** ****** ****** ****** ****** ****** ****** ****** ****** ******
   7  ****** ****** ****** ****** ****** ****** ****** ****** ****** ******
      ****** ****** ****** ****** ****** ****** ****** ****** ****** ******
      ****** ****** ****** ****** ****** ****** ****** ****** ****** ******
   8  ****** ****** ****** ****** ****** ****** ****** ****** ****** ******
      ****** ****** ****** ****** ****** ****** ****** ****** ****** ******
      ****** ****** ****** ****** ****** ****** ****** ****** ****** ******
   9  ****** ****** ****** ****** ****** ****** ****** ****** ****** ******
      ****** ****** ****** ****** ****** ****** ****** ****** ****** ******
      ****** ****** ****** ****** ****** ****** ****** ****** ****** ******
  10  ****** ****** ****** ****** ****** ****** ****** ****** ****** ******
      ****** ****** ****** ****** ****** ****** ****** ****** ****** ******
      ****** ****** ****** ****** ****** ****** ****** ****** ****** ******
  11  ****** ****** ****** ****** ****** ****** ****** ****** ****** ******
      ****** ****** ****** ****** ****** ****** ****** ****** ****** ******
      ****** ****** ****** ****** ****** ****** ****** ****** ****** ******
  12  ****** ****** ****** ****** ****** ****** ****** ****** ****** ******
      ****** ****** ****** ****** ****** ****** ****** ****** ****** ******
      ****** ****** ****** ****** ****** ****** ****** ****** ****** ******
  13  ****** ****** ****** ****** ****** ****** ****** ****** ****** ******
      ****** ****** ****** ****** ****** ****** ****** ****** ****** ******
      ****** ****** ****** ****** ****** ****** ****** ****** ****** ******
  14  ****** ****** ****** ****** ****** ****** ****** ****** ****** ******
      ****** ****** ****** ****** ****** ****** ****** ****** ****** ******
      ****** ****** ****** ****** ****** ****** ****** ****** ****** ******
  15  ****** ****** ****** ****** ****** ****** ****** ****** ****** ******
      ****** ****** ****** ****** ****** ****** ****** ****** ****** ******
      ****** ****** ****** ****** ****** ****** ****** ****** ****** ******
  16  ****** ****** ****** ****** ****** ****** ****** ****** ****** ******
      ****** ****** ****** ****** ****** ****** ****** ****** ****** ******
      ****** ****** ****** ****** ****** ****** ****** ****** ****** ******
  17  ****** ****** ****** ****** ****** ****** ****** ****** ****** ******
      ****** ****** ****** ****** ****** ****** ****** ****** ****** ******
      ****** ****** ****** ****** ****** ****** ****** ****** ****** ******
  18  ****** ****** ****** ****** ****** ****** ****** ****** ****** ******
      ****** ****** ****** ****** ****** ****** ****** ****** ****** ******
      ****** ****** ****** ****** ****** ****** ****** ****** ****** ******
  19  ****** ****** ****** ****** ****** ****** ****** ****** ****** ******
      ****** ****** ****** ****** ****** ****** ****** ****** ****** ******
      ****** ****** ****** ****** ****** ****** ****** ****** ****** ******
  20  ****** ****** ****** ****** ****** ****** ****** ****** ****** ******
      ****** ****** ****** ****** ****** ****** ****** ****** ****** ******
      ****** ****** ****** ****** ****** ****** ****** ****** ****** ******
  21  ****** ****** ****** ****** ****** ****** ****** ****** ****** ******
      ****** ****** ****** ****** ****** ****** ****** ****** ****** ******
      ****** ****** ****** ****** ****** ****** ****** ****** ****** ******
  22  ****** ****** ****** ****** ****** ****** ****** ****** ****** ******
      ****** ****** ****** ****** ****** ****** ****** ****** ****** ******
      ****** ****** ****** ****** ****** ****** ****** ****** ****** ******
  23  ****** ****** ****** ****** ****** ****** ****** ****** ****** ******
      ****** ****** ****** ****** ****** ****** ****** ****** ****** ******
      ****** ****** ****** ****** ****** ****** ****** ****** ****** ******
  24  ****** ****** ****** ****** ****** ****** ****** ****** ****** ******
      ****** ****** ****** ****** ****** ****** ****** ****** ****** ******
      ****** ****** ****** ****** ****** ****** ****** ****** ****** ******
  25  ****** ****** ****** ****** ****** ****** ****** ****** ****** ******
      ****** ****** ****** ****** ****** ****** ****** ****** ****** ******
      ****** ****** ****** ****** ****** ****** ****** ****** ****** ******

 HEAD WILL BE SAVED ON UNIT   51 AT END OF TIME STEP    1, STRESS PERIOD    4
1
  VOLUMETRIC BUDGET FOR ENTIRE MODEL AT END OF TIME STEP    1, STRESS PERIOD   4
  ------------------------------------------------------------------------------

     CUMULATIVE VOLUMES      L**3       RATES FOR THIS TIME STEP      L**3/T
     ------------------                 ------------------------

           IN:                                      IN:
           ---                                      ---
             STORAGE =    30113017.9895               STORAGE =       19785.5342
       CONSTANT HEAD =     7699541.2096         CONSTANT HEAD =       28697.1062
               WELLS =           0.0000                 WELLS =           0.0000
            RECHARGE =     8804400.0000              RECHARGE =       27600.0000
      STREAM LEAKAGE =     2654979.4702        STREAM LEAKAGE =       10042.1802

            TOTAL IN =    49271938.6693              TOTAL IN =       86124.8207

          OUT:                                     OUT:
          ----                                     ----
             STORAGE =        1116.5532               STORAGE =          12.2698
       CONSTANT HEAD =           0.0000         CONSTANT HEAD =           0.0000
               WELLS =    13014208.1588                 WELLS =       35655.3648
            RECHARGE =           0.0000              RECHARGE =           0.0000
      STREAM LEAKAGE =    36256615.9130        STREAM LEAKAGE =       50457.1869

           TOTAL OUT =    49271940.6250             TOTAL OUT =       86124.8215

            IN - OUT =          -1.9557              IN - OUT =      -8.4990E-04

 PERCENT DISCREPANCY =          -0.00     PERCENT DISCREPANCY =          -0.00






         TIME SUMMARY AT END OF TIME STEP    1 IN STRESS PERIOD    4
                    SECONDS     MINUTES      HOURS       DAYS        YEARS
                    -----------------------------------------------------------
   TIME STEP LENGTH 7.86240E+06 1.31040E+05  2184.0      91.000     0.24914    
 STRESS PERIOD TIME 7.86240E+06 1.31040E+05  2184.0      91.000     0.24914    
         TOTAL TIME 3.15360E+07 5.25600E+05  8760.0      365.00     0.99932    
1
1
                            STRESS PERIOD NO.    5, LENGTH =   92.00000    
                            -----------------------------------------------

                              NUMBER OF TIME STEPS =     1

                               MULTIPLIER FOR DELT =     1.500

                            INITIAL TIME STEP SIZE =   92.00000    

 WELL NO.  LAYER   ROW   COL   STRESS RATE         
 --------------------------------------------------
      1      1     17     24      -1629.    
      2      1      9     25     -0.1155E+05
      3      1      8     20     -0.1367E+05
      4      1     10     13      -8797.    

      4 WELLS

                 RECHARGE =  5.000000E-04

 REUSING STREAM SEGMENT DATA FROM LAST STRESS PERIOD
 
 SOLVING FOR HEAD 


     7 CALLS TO PCG ROUTINE FOR TIME STEP   1 IN STRESS PERIOD    5
    26 TOTAL ITERATIONS

 OUTPUT CONTROL FOR STRESS PERIOD    5   TIME STEP    1
    SAVE BUDGET
    SAVE HEAD FOR ALL LAYERS
    PRINT HEAD FOR ALL LAYERS
 UBDSV2 SAVING "STREAMFLOW OUT  " ON UNIT  50 AT TIME STEP  1, STRESS PERIOD   5



 STREAM LISTING     PERIOD      5   STEP        1

 LAYER ROW COL. STREAM  RCH.  FLOW INTO     FLOW TO   FLOW OUT OF   OVRLND.     DIRECT     STREAM       STREAM     STREAM     STREAM   STREAMBED  STREAMBED
                SEG.NO.  NO.  STRM. RCH.    AQUIFER    STRM. RCH.    RUNOFF     PRECIP       ET          HEAD       DEPTH      WIDTH   CONDCTNC.   GRADIENT

   1   13    1     1     1    1.0000E+05 -1.9850E+03   1.0199E+05  0.000E+00  0.000E+00  0.000E+00  4.84069E+01  1.455E-01  2.000E+01  2.000E+04 -9.925E-02
   1   13    2     1     2    1.0199E+05 -2.9880E+03   1.0497E+05  0.000E+00  0.000E+00  0.000E+00  4.79317E+01  1.477E-01  2.000E+01  2.000E+04 -1.494E-01
   1   14    3     1     3    1.0497E+05 -4.9244E+02   1.0547E+05  0.000E+00  0.000E+00  0.000E+00  4.74560E+01  1.491E-01  2.000E+01  2.000E+04 -2.462E-02
   1   15    4     1     4    1.0547E+05 -4.6372E+02   1.0593E+05  0.000E+00  0.000E+00  0.000E+00  4.69791E+01  1.495E-01  2.000E+01  2.000E+04 -2.319E-02
   1   16    5     1     5    1.0593E+05 -1.7403E+03   1.0767E+05  0.000E+00  0.000E+00  0.000E+00  4.65027E+01  1.505E-01  2.000E+01  2.000E+04 -8.701E-02
   1   16    6     1     6    1.0767E+05 -1.1059E+03   1.0878E+05  0.000E+00  0.000E+00  0.000E+00  4.60267E+01  1.517E-01  2.000E+01  2.000E+04 -5.530E-02
   1   16    7     1     7    1.0878E+05 -1.0878E+03   1.0986E+05  0.000E+00  0.000E+00  0.000E+00  4.55503E+01  1.526E-01  2.000E+01  2.000E+04 -5.439E-02
   1   16    8     1     8    1.0986E+05 -1.0806E+03   1.1094E+05  0.000E+00  0.000E+00  0.000E+00  4.50740E+01  1.535E-01  2.000E+01  2.000E+04 -5.403E-02
   1   16    9     1     9    1.1094E+05 -1.0659E+03   1.1201E+05  0.000E+00  0.000E+00  0.000E+00  4.45976E+01  1.544E-01  2.000E+01  2.000E+04 -5.329E-02
   1   16   10     1    10    1.1201E+05 -1.0448E+03   1.1305E+05  0.000E+00  0.000E+00  0.000E+00  4.41212E+01  1.553E-01  2.000E+01  2.000E+04 -5.224E-02
   1   16   11     1    11    1.1305E+05 -1.0394E+03   1.1409E+05  0.000E+00  0.000E+00  0.000E+00  4.36448E+01  1.561E-01  2.000E+01  2.000E+04 -5.197E-02
   1   16   12     1    12    1.1409E+05 -1.6512E+03   1.1574E+05  0.000E+00  0.000E+00  0.000E+00  4.31686E+01  1.572E-01  2.000E+01  2.000E+04 -8.256E-02
   1   15   13     1    13    1.1574E+05 -1.1040E+03   1.1685E+05  0.000E+00  0.000E+00  0.000E+00  4.26925E+01  1.584E-01  2.000E+01  2.000E+04 -5.520E-02
   1   14   14     1    14    1.1685E+05 -9.1109E+02   1.1776E+05  0.000E+00  0.000E+00  0.000E+00  4.22160E+01  1.592E-01  2.000E+01  2.000E+04 -4.555E-02
   1   13   15     1    15    1.1776E+05 -7.7987E+02   1.1854E+05  0.000E+00  0.000E+00  0.000E+00  4.17394E+01  1.599E-01  2.000E+01  2.000E+04 -3.899E-02
   1   12   16     1    16    1.1854E+05 -7.7840E+02   1.1932E+05  0.000E+00  0.000E+00  0.000E+00  4.12628E+01  1.605E-01  2.000E+01  2.000E+04 -3.892E-02
   1   12   17     1    17    1.1932E+05 -6.7734E+02   1.2000E+05  0.000E+00  0.000E+00  0.000E+00  4.07861E+01  1.611E-01  2.000E+01  2.000E+04 -3.387E-02
   1   12   18     1    18    1.2000E+05 -5.1707E+02   1.2051E+05  0.000E+00  0.000E+00  0.000E+00  4.03093E+01  1.616E-01  2.000E+01  2.000E+04 -2.585E-02
   1   12   19     1    19    1.2051E+05 -2.0820E+02   1.2072E+05  0.000E+00  0.000E+00  0.000E+00  3.98323E+01  1.619E-01  2.000E+01  2.000E+04 -1.041E-02
   1   13   20     1    20    1.2072E+05 -7.2042E+02   1.2144E+05  0.000E+00  0.000E+00  0.000E+00  3.93554E+01  1.622E-01  2.000E+01  2.000E+04 -3.602E-02
   1   14   21     1    21    1.2144E+05 -1.2477E+03   1.2269E+05  0.000E+00  0.000E+00  0.000E+00  3.88789E+01  1.630E-01  2.000E+01  2.000E+04 -6.238E-02
   1   14   22     1    22    1.2269E+05  5.1232E+03   1.1757E+05  0.000E+00  0.000E+00  0.000E+00  3.84001E+01  1.615E-01  2.000E+01  2.000E+04  2.562E-01
   1    9   30     2     1    5.0000E+04 -1.7875E+02   5.0179E+04  0.000E+00  0.000E+00  0.000E+00  4.02410E+01  1.160E-01  2.000E+01  2.000E+04 -8.937E-03
   1    9   29     2     2    5.0179E+04 -3.9882E+02   5.0578E+04  0.000E+00  0.000E+00  0.000E+00  3.99914E+01  1.164E-01  2.000E+01  2.000E+04 -1.994E-02
   1    9   28     2     3    5.0578E+04 -4.0931E+02   5.0987E+04  0.000E+00  0.000E+00  0.000E+00  3.97419E+01  1.169E-01  2.000E+01  2.000E+04 -2.047E-02
   1    9   27     2     4    5.0987E+04  6.0884E+02   5.0378E+04  0.000E+00  0.000E+00  0.000E+00  3.94918E+01  1.168E-01  2.000E+01  2.000E+04  3.044E-02
   1   10   26     2     5    5.0378E+04  2.3111E+03   4.8067E+04  0.000E+00  0.000E+00  0.000E+00  3.92398E+01  1.148E-01  2.000E+01  2.000E+04  1.156E-01
   1   11   25     2     6    4.8067E+04  1.5425E+03   4.6524E+04  0.000E+00  0.000E+00  0.000E+00  3.89871E+01  1.121E-01  2.000E+01  2.000E+04  7.713E-02
   1   12   24     2     7    4.6524E+04  2.9383E+02   4.6231E+04  0.000E+00  0.000E+00  0.000E+00  3.87358E+01  1.108E-01  2.000E+01  2.000E+04  1.469E-02
   1   13   23     2     8    4.6231E+04 -6.8158E-01   4.6231E+04  0.000E+00  0.000E+00  0.000E+00  3.84855E+01  1.105E-01  2.000E+01  2.000E+04 -3.408E-05
   1   14   22     2     9    4.6231E+04  1.8058E+03   4.4425E+04  0.000E+00  0.000E+00  0.000E+00  3.82342E+01  1.092E-01  2.000E+01  2.000E+04  9.029E-02
   1   14   22     3     1    1.6199E+05 -8.5112E+03   1.7050E+05  0.000E+00  0.000E+00  0.000E+00  3.77184E+01  1.628E-01  2.000E+01  2.000E+04 -4.256E-01
   1   15   23     3     2    1.7050E+05 -4.3594E+02   1.7094E+05  0.000E+00  0.000E+00  0.000E+00  3.68321E+01  1.655E-01  2.000E+01  2.000E+04 -2.180E-02
   1   15   24     3     3    1.7094E+05 -5.8873E+01   1.7100E+05  0.000E+00  0.000E+00  0.000E+00  3.59434E+01  1.656E-01  2.000E+01  2.000E+04 -2.944E-03
   1   15   25     3     4    1.7100E+05 -1.2833E+02   1.7113E+05  0.000E+00  0.000E+00  0.000E+00  3.50545E+01  1.656E-01  2.000E+01  2.000E+04 -6.417E-03
   1   15   26     3     5    1.7113E+05 -2.4514E+02   1.7137E+05  0.000E+00  0.000E+00  0.000E+00  3.41658E+01  1.658E-01  2.000E+01  2.000E+04 -1.226E-02
   1   16   27     3     6    1.7137E+05 -2.5571E+02   1.7163E+05  0.000E+00  0.000E+00  0.000E+00  3.32770E+01  1.659E-01  2.000E+01  2.000E+04 -1.279E-02
   1   17   28     3     7    1.7163E+05 -1.4283E+03   1.7305E+05  0.000E+00  0.000E+00  0.000E+00  3.23886E+01  1.664E-01  2.000E+01  2.000E+04 -7.142E-02
   1   18   29     3     8    1.7305E+05 -2.8816E+03   1.7594E+05  0.000E+00  0.000E+00  0.000E+00  3.15010E+01  1.676E-01  2.000E+01  2.000E+04 -1.441E-01
   1   18   30     3     9    1.7594E+05 -3.1535E+03   1.7909E+05  0.000E+00  0.000E+00  0.000E+00  3.06138E+01  1.694E-01  2.000E+01  2.000E+04 -1.577E-01



1
              HEAD IN LAYER   1 AT END OF TIME STEP   1 IN STRESS PERIOD    5
  ---------------------------------------------------------------------------

          1      2      3      4      5      6      7      8      9     10
         11     12     13     14     15     16     17     18     19     20
         21     22     23     24     25     26     27     28     29     30
 .........................................................................
   1  ****** ****** ****** ****** ****** ****** ****** ****** ****** ******
      ****** ****** ****** ****** ****** ****** ****** ****** ****** ******
      ****** ****** ****** ****** ****** ****** ****** ****** ****** ******
   2  ****** ****** ****** ****** ****** ****** ****** ****** ****** ******
      ****** ****** ****** ****** ****** ****** ****** ****** ****** ******
      ****** ****** ****** ****** ****** ****** ****** ****** ****** ******
   3  ****** ****** ****** ****** ****** ****** ****** ****** ****** ******
      ****** ****** ****** ****** ****** ****** ****** ****** ****** ******
      ****** ****** ****** ****** ****** ****** ****** ****** ****** ******
   4  ****** ****** ****** ****** ****** ****** ****** ****** ****** ******
      ****** ****** ****** ****** ****** ****** ****** ****** ****** ******
      ****** ****** ****** ****** ****** ****** ****** ****** ****** ******
   5  ****** ****** ****** ****** ****** ****** ****** ****** ****** ******
      ****** ****** ****** ****** ****** ****** ****** ****** ****** ******
      ****** ****** ****** ****** ****** ****** ****** ****** ****** ******
   6  ****** ****** ****** ****** ****** ****** ****** ****** ****** ******
      ****** ****** ****** ****** ****** ****** ****** ****** ****** ******
      ****** ****** ****** ****** ****** ****** ****** ****** ****** ******
   7  ****** ****** ****** ****** ****** ****** ****** ****** ****** ******
      ****** ****** ****** ****** ****** ****** ****** ****** ****** ******
      ****** ****** ****** ****** ****** ****** ****** ****** ****** ******
   8  ****** ****** ****** ****** ****** ****** ****** ****** ****** ******
      ****** ****** ****** ****** ****** ****** ****** ****** ****** ******
      ****** ****** ****** ****** ****** ****** ****** ****** ****** ******
   9  ****** ****** ****** ****** ****** ****** ****** ****** ****** ******
      ****** ****** ****** ****** ****** ****** ****** ****** ****** ******
      ****** ****** ****** ****** ****** ****** ****** ****** ****** ******
  10  ****** ****** ****** ****** ****** ****** ****** ****** ****** ******
      ****** ****** ****** ****** ****** ****** ****** ****** ****** ******
      ****** ****** ****** ****** ****** ****** ****** ****** ****** ******
  11  ****** ****** ****** ****** ****** ****** ****** ****** ****** ******
      ****** ****** ****** ****** ****** ****** ****** ****** ****** ******
      ****** ****** ****** ****** ****** ****** ****** ****** ****** ******
  12  ****** ****** ****** ****** ****** ****** ****** ****** ****** ******
      ****** ****** ****** ****** ****** ****** ****** ****** ****** ******
      ****** ****** ****** ****** ****** ****** ****** ****** ****** ******
  13  ****** ****** ****** ****** ****** ****** ****** ****** ****** ******
      ****** ****** ****** ****** ****** ****** ****** ****** ****** ******
      ****** ****** ****** ****** ****** ****** ****** ****** ****** ******
  14  ****** ****** ****** ****** ****** ****** ****** ****** ****** ******
      ****** ****** ****** ****** ****** ****** ****** ****** ****** ******
      ****** ****** ****** ****** ****** ****** ****** ****** ****** ******
  15  ****** ****** ****** ****** ****** ****** ****** ****** ****** ******
      ****** ****** ****** ****** ****** ****** ****** ****** ****** ******
      ****** ****** ****** ****** ****** ****** ****** ****** ****** ******
  16  ****** ****** ****** ****** ****** ****** ****** ****** ****** ******
      ****** ****** ****** ****** ****** ****** ****** ****** ****** ******
      ****** ****** ****** ****** ****** ****** ****** ****** ****** ******
  17  ****** ****** ****** ****** ****** ****** ****** ****** ****** ******
      ****** ****** ****** ****** ****** ****** ****** ****** ****** ******
      ****** ****** ****** ****** ****** ****** ****** ****** ****** ******
  18  ****** ****** ****** ****** ****** ****** ****** ****** ****** ******
      ****** ****** ****** ****** ****** ****** ****** ****** ****** ******
      ****** ****** ****** ****** ****** ****** ****** ****** ****** ******
  19  ****** ****** ****** ****** ****** ****** ****** ****** ****** ******
      ****** ****** ****** ****** ****** ****** ****** ****** ****** ******
      ****** ****** ****** ****** ****** ****** ****** ****** ****** ******
  20  ****** ****** ****** ****** ****** ****** ****** ****** ****** ******
      ****** ****** ****** ****** ****** ****** ****** ****** ****** ******
      ****** ****** ****** ****** ****** ****** ****** ****** ****** ******
  21  ****** ****** ****** ****** ****** ****** ****** ****** ****** ******
      ****** ****** ****** ****** ****** ****** ****** ****** ****** ******
      ****** ****** ****** ****** ****** ****** ****** ****** ****** ******
  22  ****** ****** ****** ****** ****** ****** ****** ****** ****** ******
      ****** ****** ****** ****** ****** ****** ****** ****** ****** ******
      ****** ****** ****** ****** ****** ****** ****** ****** ****** ******
  23  ****** ****** ****** ****** ****** ****** ****** ****** ****** ******
      ****** ****** ****** ****** ****** ****** ****** ****** ****** ******
      ****** ****** ****** ****** ****** ****** ****** ****** ****** ******
  24  ****** ****** ****** ****** ****** ****** ****** ****** ****** ******
      ****** ****** ****** ****** ****** ****** ****** ****** ****** ******
      ****** ****** ****** ****** ****** ****** ****** ****** ****** ******
  25  ****** ****** ****** ****** ****** ****** ****** ****** ****** ******
      ****** ****** ****** ****** ****** ****** ****** ****** ****** ******
      ****** ****** ****** ****** ****** ****** ****** ****** ****** ******

 HEAD WILL BE SAVED ON UNIT   51 AT END OF TIME STEP    1, STRESS PERIOD    5
1
  VOLUMETRIC BUDGET FOR ENTIRE MODEL AT END OF TIME STEP    1, STRESS PERIOD   5
  ------------------------------------------------------------------------------

     CUMULATIVE VOLUMES      L**3       RATES FOR THIS TIME STEP      L**3/T
     ------------------                 ------------------------

           IN:                                      IN:
           ---                                      ---
             STORAGE =    31881059.5259               STORAGE =       19217.8428
       CONSTANT HEAD =    10618470.4433         CONSTANT HEAD =       31727.4917
               WELLS =           0.0000                 WELLS =           0.0000
            RECHARGE =    10074000.0000              RECHARGE =       13800.0000
      STREAM LEAKAGE =     3730027.6842        STREAM LEAKAGE =       11685.3067

            TOTAL IN =    56303557.6534              TOTAL IN =       76430.6411

          OUT:                                     OUT:
          ----                                     ----
             STORAGE =        1116.5532               STORAGE =           0.0000
       CONSTANT HEAD =           0.0000         CONSTANT HEAD =           0.0000
               WELLS =    16294501.7221                 WELLS =       35655.3648
            RECHARGE =           0.0000              RECHARGE =           0.0000
      STREAM LEAKAGE =    40007941.6319        STREAM LEAKAGE =       40775.2796

           TOTAL OUT =    56303559.9072             TOTAL OUT =       76430.6444

            IN - OUT =          -2.2538              IN - OUT =      -3.2395E-03

 PERCENT DISCREPANCY =          -0.00     PERCENT DISCREPANCY =          -0.00






         TIME SUMMARY AT END OF TIME STEP    1 IN STRESS PERIOD    5
                    SECONDS     MINUTES      HOURS       DAYS        YEARS
                    -----------------------------------------------------------
   TIME STEP LENGTH 7.94880E+06 1.32480E+05  2208.0      92.000     0.25188    
 STRESS PERIOD TIME 7.94880E+06 1.32480E+05  2208.0      92.000     0.25188    
         TOTAL TIME 3.94848E+07 6.58080E+05  10968.      457.00      1.2512    
1
1
                            STRESS PERIOD NO.    6, LENGTH =   91.00000    
                            -----------------------------------------------

                              NUMBER OF TIME STEPS =     1

                               MULTIPLIER FOR DELT =     1.500

                            INITIAL TIME STEP SIZE =   91.00000    

 WELL NO.  LAYER   ROW   COL   STRESS RATE         
 --------------------------------------------------
      1      1     17     24      -1629.    
      2      1      9     25     -0.1155E+05
      3      1      8     20     -0.1367E+05
      4      1     10     13      -8797.    

      4 WELLS

                 RECHARGE =  2.000000E-03

 REUSING STREAM SEGMENT DATA FROM LAST STRESS PERIOD
 
 SOLVING FOR HEAD 


     7 CALLS TO PCG ROUTINE FOR TIME STEP   1 IN STRESS PERIOD    6
    26 TOTAL ITERATIONS

 OUTPUT CONTROL FOR STRESS PERIOD    6   TIME STEP    1
    SAVE BUDGET
    SAVE HEAD FOR ALL LAYERS
    PRINT HEAD FOR ALL LAYERS
 UBDSV2 SAVING "STREAMFLOW OUT  " ON UNIT  50 AT TIME STEP  1, STRESS PERIOD   6



 STREAM LISTING     PERIOD      6   STEP        1

 LAYER ROW COL. STREAM  RCH.  FLOW INTO     FLOW TO   FLOW OUT OF   OVRLND.     DIRECT     STREAM       STREAM     STREAM     STREAM   STREAMBED  STREAMBED
                SEG.NO.  NO.  STRM. RCH.    AQUIFER    STRM. RCH.    RUNOFF     PRECIP       ET          HEAD       DEPTH      WIDTH   CONDCTNC.   GRADIENT

   1   13    1     1     1    1.0000E+05 -2.2817E+03   1.0228E+05  0.000E+00  0.000E+00  0.000E+00  4.84070E+01  1.456E-01  2.000E+01  2.000E+04 -1.141E-01
   1   13    2     1     2    1.0228E+05 -3.3117E+03   1.0559E+05  0.000E+00  0.000E+00  0.000E+00  4.79321E+01  1.480E-01  2.000E+01  2.000E+04 -1.656E-01
   1   14    3     1     3    1.0559E+05 -6.4475E+02   1.0624E+05  0.000E+00  0.000E+00  0.000E+00  4.74565E+01  1.497E-01  2.000E+01  2.000E+04 -3.224E-02
   1   15    4     1     4    1.0624E+05 -6.2820E+02   1.0687E+05  0.000E+00  0.000E+00  0.000E+00  4.69798E+01  1.503E-01  2.000E+01  2.000E+04 -3.141E-02
   1   16    5     1     5    1.0687E+05 -2.2381E+03   1.0910E+05  0.000E+00  0.000E+00  0.000E+00  4.65037E+01  1.515E-01  2.000E+01  2.000E+04 -1.119E-01
   1   16    6     1     6    1.0910E+05 -1.3967E+03   1.1050E+05  0.000E+00  0.000E+00  0.000E+00  4.60280E+01  1.530E-01  2.000E+01  2.000E+04 -6.983E-02
   1   16    7     1     7    1.1050E+05 -1.3628E+03   1.1186E+05  0.000E+00  0.000E+00  0.000E+00  4.55519E+01  1.542E-01  2.000E+01  2.000E+04 -6.814E-02
   1   16    8     1     8    1.1186E+05 -1.3511E+03   1.1322E+05  0.000E+00  0.000E+00  0.000E+00  4.50757E+01  1.553E-01  2.000E+01  2.000E+04 -6.755E-02
   1   16    9     1     9    1.1322E+05 -1.3361E+03   1.1455E+05  0.000E+00  0.000E+00  0.000E+00  4.45996E+01  1.564E-01  2.000E+01  2.000E+04 -6.681E-02
   1   16   10     1    10    1.1455E+05 -1.3173E+03   1.1587E+05  0.000E+00  0.000E+00  0.000E+00  4.41234E+01  1.575E-01  2.000E+01  2.000E+04 -6.586E-02
   1   16   11     1    11    1.1587E+05 -1.3164E+03   1.1718E+05  0.000E+00  0.000E+00  0.000E+00  4.36472E+01  1.586E-01  2.000E+01  2.000E+04 -6.582E-02
   1   16   12     1    12    1.1718E+05 -2.0974E+03   1.1928E+05  0.000E+00  0.000E+00  0.000E+00  4.31713E+01  1.599E-01  2.000E+01  2.000E+04 -1.049E-01
   1   15   13     1    13    1.1928E+05 -1.5518E+03   1.2083E+05  0.000E+00  0.000E+00  0.000E+00  4.26955E+01  1.614E-01  2.000E+01  2.000E+04 -7.759E-02
   1   14   14     1    14    1.2083E+05 -1.3478E+03   1.2218E+05  0.000E+00  0.000E+00  0.000E+00  4.22194E+01  1.626E-01  2.000E+01  2.000E+04 -6.739E-02
   1   13   15     1    15    1.2218E+05 -1.1913E+03   1.2337E+05  0.000E+00  0.000E+00  0.000E+00  4.17432E+01  1.636E-01  2.000E+01  2.000E+04 -5.957E-02
   1   12   16     1    16    1.2337E+05 -1.1325E+03   1.2451E+05  0.000E+00  0.000E+00  0.000E+00  4.12668E+01  1.645E-01  2.000E+01  2.000E+04 -5.662E-02
   1   12   17     1    17    1.2451E+05 -9.7500E+02   1.2548E+05  0.000E+00  0.000E+00  0.000E+00  4.07904E+01  1.654E-01  2.000E+01  2.000E+04 -4.875E-02
   1   12   18     1    18    1.2548E+05 -8.2036E+02   1.2630E+05  0.000E+00  0.000E+00  0.000E+00  4.03138E+01  1.661E-01  2.000E+01  2.000E+04 -4.102E-02
   1   12   19     1    19    1.2630E+05 -5.8345E+02   1.2688E+05  0.000E+00  0.000E+00  0.000E+00  3.98371E+01  1.666E-01  2.000E+01  2.000E+04 -2.917E-02
   1   13   20     1    20    1.2688E+05 -1.1359E+03   1.2802E+05  0.000E+00  0.000E+00  0.000E+00  3.93605E+01  1.673E-01  2.000E+01  2.000E+04 -5.680E-02
   1   14   21     1    21    1.2802E+05 -1.6610E+03   1.2968E+05  0.000E+00  0.000E+00  0.000E+00  3.88843E+01  1.684E-01  2.000E+01  2.000E+04 -8.305E-02
   1   14   22     1    22    1.2968E+05  5.0138E+03   1.2467E+05  0.000E+00  0.000E+00  0.000E+00  3.84057E+01  1.671E-01  2.000E+01  2.000E+04  2.507E-01
   1    9   30     2     1    5.0000E+04 -5.3470E+02   5.0535E+04  0.000E+00  0.000E+00  0.000E+00  4.02412E+01  1.162E-01  2.000E+01  2.000E+04 -2.673E-02
   1    9   29     2     2    5.0535E+04 -7.4993E+02   5.1285E+04  0.000E+00  0.000E+00  0.000E+00  3.99921E+01  1.171E-01  2.000E+01  2.000E+04 -3.750E-02
   1    9   28     2     3    5.1285E+04 -7.5241E+02   5.2037E+04  0.000E+00  0.000E+00  0.000E+00  3.97432E+01  1.182E-01  2.000E+01  2.000E+04 -3.762E-02
   1    9   27     2     4    5.2037E+04  1.8166E+02   5.1855E+04  0.000E+00  0.000E+00  0.000E+00  3.94936E+01  1.186E-01  2.000E+01  2.000E+04  9.083E-03
   1   10   26     2     5    5.1855E+04  1.8556E+03   5.0000E+04  0.000E+00  0.000E+00  0.000E+00  3.92422E+01  1.172E-01  2.000E+01  2.000E+04  9.278E-02
   1   11   25     2     6    5.0000E+04  1.1001E+03   4.8900E+04  0.000E+00  0.000E+00  0.000E+00  3.89901E+01  1.151E-01  2.000E+01  2.000E+04  5.501E-02
   1   12   24     2     7    4.8900E+04 -1.0434E+02   4.9004E+04  0.000E+00  0.000E+00  0.000E+00  3.87394E+01  1.144E-01  2.000E+01  2.000E+04 -5.217E-03
   1   13   23     2     8    4.9004E+04 -1.3673E+02   4.9141E+04  0.000E+00  0.000E+00  0.000E+00  3.84896E+01  1.146E-01  2.000E+01  2.000E+04 -6.837E-03
   1   14   22     2     9    4.9141E+04  1.6691E+03   4.7472E+04  0.000E+00  0.000E+00  0.000E+00  3.82385E+01  1.135E-01  2.000E+01  2.000E+04  8.345E-02
   1   14   22     3     1    1.7214E+05 -8.6145E+03   1.8075E+05  0.000E+00  0.000E+00  0.000E+00  3.77243E+01  1.688E-01  2.000E+01  2.000E+04 -4.307E-01
   1   15   23     3     2    1.8075E+05 -5.7405E+02   1.8133E+05  0.000E+00  0.000E+00  0.000E+00  3.68380E+01  1.714E-01  2.000E+01  2.000E+04 -2.870E-02
   1   15   24     3     3    1.8133E+05 -1.8088E+02   1.8151E+05  0.000E+00  0.000E+00  0.000E+00  3.59494E+01  1.716E-01  2.000E+01  2.000E+04 -9.044E-03
   1   15   25     3     4    1.8151E+05 -2.5468E+02   1.8176E+05  0.000E+00  0.000E+00  0.000E+00  3.50606E+01  1.717E-01  2.000E+01  2.000E+04 -1.273E-02
   1   15   26     3     5    1.8176E+05 -3.9646E+02   1.8216E+05  0.000E+00  0.000E+00  0.000E+00  3.41719E+01  1.719E-01  2.000E+01  2.000E+04 -1.982E-02
   1   16   27     3     6    1.8216E+05 -4.2440E+02   1.8258E+05  0.000E+00  0.000E+00  0.000E+00  3.32832E+01  1.721E-01  2.000E+01  2.000E+04 -2.122E-02
   1   17   28     3     7    1.8258E+05 -1.8925E+03   1.8448E+05  0.000E+00  0.000E+00  0.000E+00  3.23950E+01  1.728E-01  2.000E+01  2.000E+04 -9.463E-02
   1   18   29     3     8    1.8448E+05 -3.3255E+03   1.8780E+05  0.000E+00  0.000E+00  0.000E+00  3.15076E+01  1.743E-01  2.000E+01  2.000E+04 -1.663E-01
   1   18   30     3     9    1.8780E+05 -3.5125E+03   1.9131E+05  0.000E+00  0.000E+00  0.000E+00  3.06206E+01  1.762E-01  2.000E+01  2.000E+04 -1.756E-01



1
              HEAD IN LAYER   1 AT END OF TIME STEP   1 IN STRESS PERIOD    6
  ---------------------------------------------------------------------------

          1      2      3      4      5      6      7      8      9     10
         11     12     13     14     15     16     17     18     19     20
         21     22     23     24     25     26     27     28     29     30
 .........................................................................
   1  ****** ****** ****** ****** ****** ****** ****** ****** ****** ******
      ****** ****** ****** ****** ****** ****** ****** ****** ****** ******
      ****** ****** ****** ****** ****** ****** ****** ****** ****** ******
   2  ****** ****** ****** ****** ****** ****** ****** ****** ****** ******
      ****** ****** ****** ****** ****** ****** ****** ****** ****** ******
      ****** ****** ****** ****** ****** ****** ****** ****** ****** ******
   3  ****** ****** ****** ****** ****** ****** ****** ****** ****** ******
      ****** ****** ****** ****** ****** ****** ****** ****** ****** ******
      ****** ****** ****** ****** ****** ****** ****** ****** ****** ******
   4  ****** ****** ****** ****** ****** ****** ****** ****** ****** ******
      ****** ****** ****** ****** ****** ****** ****** ****** ****** ******
      ****** ****** ****** ****** ****** ****** ****** ****** ****** ******
   5  ****** ****** ****** ****** ****** ****** ****** ****** ****** ******
      ****** ****** ****** ****** ****** ****** ****** ****** ****** ******
      ****** ****** ****** ****** ****** ****** ****** ****** ****** ******
   6  ****** ****** ****** ****** ****** ****** ****** ****** ****** ******
      ****** ****** ****** ****** ****** ****** ****** ****** ****** ******
      ****** ****** ****** ****** ****** ****** ****** ****** ****** ******
   7  ****** ****** ****** ****** ****** ****** ****** ****** ****** ******
      ****** ****** ****** ****** ****** ****** ****** ****** ****** ******
      ****** ****** ****** ****** ****** ****** ****** ****** ****** ******
   8  ****** ****** ****** ****** ****** ****** ****** ****** ****** ******
      ****** ****** ****** ****** ****** ****** ****** ****** ****** ******
      ****** ****** ****** ****** ****** ****** ****** ****** ****** ******
   9  ****** ****** ****** ****** ****** ****** ****** ****** ****** ******
      ****** ****** ****** ****** ****** ****** ****** ****** ****** ******
      ****** ****** ****** ****** ****** ****** ****** ****** ****** ******
  10  ****** ****** ****** ****** ****** ****** ****** ****** ****** ******
      ****** ****** ****** ****** ****** ****** ****** ****** ****** ******
      ****** ****** ****** ****** ****** ****** ****** ****** ****** ******
  11  ****** ****** ****** ****** ****** ****** ****** ****** ****** ******
      ****** ****** ****** ****** ****** ****** ****** ****** ****** ******
      ****** ****** ****** ****** ****** ****** ****** ****** ****** ******
  12  ****** ****** ****** ****** ****** ****** ****** ****** ****** ******
      ****** ****** ****** ****** ****** ****** ****** ****** ****** ******
      ****** ****** ****** ****** ****** ****** ****** ****** ****** ******
  13  ****** ****** ****** ****** ****** ****** ****** ****** ****** ******
      ****** ****** ****** ****** ****** ****** ****** ****** ****** ******
      ****** ****** ****** ****** ****** ****** ****** ****** ****** ******
  14  ****** ****** ****** ****** ****** ****** ****** ****** ****** ******
      ****** ****** ****** ****** ****** ****** ****** ****** ****** ******
      ****** ****** ****** ****** ****** ****** ****** ****** ****** ******
  15  ****** ****** ****** ****** ****** ****** ****** ****** ****** ******
      ****** ****** ****** ****** ****** ****** ****** ****** ****** ******
      ****** ****** ****** ****** ****** ****** ****** ****** ****** ******
  16  ****** ****** ****** ****** ****** ****** ****** ****** ****** ******
      ****** ****** ****** ****** ****** ****** ****** ****** ****** ******
      ****** ****** ****** ****** ****** ****** ****** ****** ****** ******
  17  ****** ****** ****** ****** ****** ****** ****** ****** ****** ******
      ****** ****** ****** ****** ****** ****** ****** ****** ****** ******
      ****** ****** ****** ****** ****** ****** ****** ****** ****** ******
  18  ****** ****** ****** ****** ****** ****** ****** ****** ****** ******
      ****** ****** ****** ****** ****** ****** ****** ****** ****** ******
      ****** ****** ****** ****** ****** ****** ****** ****** ****** ******
  19  ****** ****** ****** ****** ****** ****** ****** ****** ****** ******
      ****** ****** ****** ****** ****** ****** ****** ****** ****** ******
      ****** ****** ****** ****** ****** ****** ****** ****** ****** ******
  20  ****** ****** ****** ****** ****** ****** ****** ****** ****** ******
      ****** ****** ****** ****** ****** ****** ****** ****** ****** ******
      ****** ****** ****** ****** ****** ****** ****** ****** ****** ******
  21  ****** ****** ****** ****** ****** ****** ****** ****** ****** ******
      ****** ****** ****** ****** ****** ****** ****** ****** ****** ******
      ****** ****** ****** ****** ****** ****** ****** ****** ****** ******
  22  ****** ****** ****** ****** ****** ****** ****** ****** ****** ******
      ****** ****** ****** ****** ****** ****** ****** ****** ****** ******
      ****** ****** ****** ****** ****** ****** ****** ****** ****** ******
  23  ****** ****** ****** ****** ****** ****** ****** ****** ****** ******
      ****** ****** ****** ****** ****** ****** ****** ****** ****** ******
      ****** ****** ****** ****** ****** ****** ****** ****** ****** ******
  24  ****** ****** ****** ****** ****** ****** ****** ****** ****** ******
      ****** ****** ****** ****** ****** ****** ****** ****** ****** ******
      ****** ****** ****** ****** ****** ****** ****** ****** ****** ******
  25  ****** ****** ****** ****** ****** ****** ****** ****** ****** ******
      ****** ****** ****** ****** ****** ****** ****** ****** ****** ******
      ****** ****** ****** ****** ****** ****** ****** ****** ****** ******

 HEAD WILL BE SAVED ON UNIT   51 AT END OF TIME STEP    1, STRESS PERIOD    6
1
  VOLUMETRIC BUDGET FOR ENTIRE MODEL AT END OF TIME STEP    1, STRESS PERIOD   6
  ------------------------------------------------------------------------------

     CUMULATIVE VOLUMES      L**3       RATES FOR THIS TIME STEP      L**3/T
     ------------------                 ------------------------

           IN:                                      IN:
           ---                                      ---
             STORAGE =    31882447.8745               STORAGE =          15.2566
       CONSTANT HEAD =    13339087.0810         CONSTANT HEAD =       29896.8861
               WELLS =           0.0000                 WELLS =           0.0000
            RECHARGE =    15097200.0000              RECHARGE =       55200.0000
      STREAM LEAKAGE =     4623681.0671        STREAM LEAKAGE =        9820.3668

            TOTAL IN =    64942416.0226              TOTAL IN =       94932.5096

          OUT:                                     OUT:
          ----                                     ----
             STORAGE =      742055.9836               STORAGE =        8142.1915
       CONSTANT HEAD =           0.0000         CONSTANT HEAD =           0.0000
               WELLS =    19539139.9206                 WELLS =       35655.3648
            RECHARGE =           0.0000              RECHARGE =           0.0000
      STREAM LEAKAGE =    44661222.1115        STREAM LEAKAGE =       51134.9503

           TOTAL OUT =    64942418.0157             TOTAL OUT =       94932.5067

            IN - OUT =          -1.9930              IN - OUT =       2.8651E-03

 PERCENT DISCREPANCY =          -0.00     PERCENT DISCREPANCY =           0.00






         TIME SUMMARY AT END OF TIME STEP    1 IN STRESS PERIOD    6
                    SECONDS     MINUTES      HOURS       DAYS        YEARS
                    -----------------------------------------------------------
   TIME STEP LENGTH 7.86240E+06 1.31040E+05  2184.0      91.000     0.24914    
 STRESS PERIOD TIME 7.86240E+06 1.31040E+05  2184.0      91.000     0.24914    
         TOTAL TIME 4.73472E+07 7.89120E+05  13152.      548.00      1.5003    
1
1
                            STRESS PERIOD NO.    7, LENGTH =   91.00000    
                            -----------------------------------------------

                              NUMBER OF TIME STEPS =     1

                               MULTIPLIER FOR DELT =     1.500

                            INITIAL TIME STEP SIZE =   91.00000    

 WELL NO.  LAYER   ROW   COL   STRESS RATE         
 --------------------------------------------------
      1      1     17     24      -1629.    
      2      1      9     25     -0.1155E+05
      3      1      8     20     -0.1367E+05
      4      1     10     13      -8797.    

      4 WELLS

                 RECHARGE =   0.00000    

 REUSING STREAM SEGMENT DATA FROM LAST STRESS PERIOD
 
 SOLVING FOR HEAD 


     7 CALLS TO PCG ROUTINE FOR TIME STEP   1 IN STRESS PERIOD    7
    26 TOTAL ITERATIONS

 OUTPUT CONTROL FOR STRESS PERIOD    7   TIME STEP    1
    SAVE BUDGET
    SAVE HEAD FOR ALL LAYERS
    PRINT HEAD FOR ALL LAYERS
 UBDSV2 SAVING "STREAMFLOW OUT  " ON UNIT  50 AT TIME STEP  1, STRESS PERIOD   7



 STREAM LISTING     PERIOD      7   STEP        1

 LAYER ROW COL. STREAM  RCH.  FLOW INTO     FLOW TO   FLOW OUT OF   OVRLND.     DIRECT     STREAM       STREAM     STREAM     STREAM   STREAMBED  STREAMBED
                SEG.NO.  NO.  STRM. RCH.    AQUIFER    STRM. RCH.    RUNOFF     PRECIP       ET          HEAD       DEPTH      WIDTH   CONDCTNC.   GRADIENT

   1   13    1     1     1    1.0000E+05 -1.6019E+03   1.0160E+05  0.000E+00  0.000E+00  0.000E+00  4.84067E+01  1.453E-01  2.000E+01  2.000E+04 -8.009E-02
   1   13    2     1     2    1.0160E+05 -2.5504E+03   1.0415E+05  0.000E+00  0.000E+00  0.000E+00  4.79312E+01  1.471E-01  2.000E+01  2.000E+04 -1.275E-01
   1   14    3     1     3    1.0415E+05 -3.9068E+02   1.0454E+05  0.000E+00  0.000E+00  0.000E+00  4.74552E+01  1.484E-01  2.000E+01  2.000E+04 -1.953E-02
   1   15    4     1     4    1.0454E+05 -3.6391E+02   1.0491E+05  0.000E+00  0.000E+00  0.000E+00  4.69783E+01  1.487E-01  2.000E+01  2.000E+04 -1.820E-02
   1   16    5     1     5    1.0491E+05 -1.4854E+03   1.0639E+05  0.000E+00  0.000E+00  0.000E+00  4.65018E+01  1.495E-01  2.000E+01  2.000E+04 -7.427E-02
   1   16    6     1     6    1.0639E+05 -9.4152E+02   1.0733E+05  0.000E+00  0.000E+00  0.000E+00  4.60255E+01  1.505E-01  2.000E+01  2.000E+04 -4.708E-02
   1   16    7     1     7    1.0733E+05 -9.2577E+02   1.0826E+05  0.000E+00  0.000E+00  0.000E+00  4.55490E+01  1.513E-01  2.000E+01  2.000E+04 -4.629E-02
   1   16    8     1     8    1.0826E+05 -9.1992E+02   1.0918E+05  0.000E+00  0.000E+00  0.000E+00  4.50725E+01  1.521E-01  2.000E+01  2.000E+04 -4.600E-02
   1   16    9     1     9    1.0918E+05 -9.0829E+02   1.1009E+05  0.000E+00  0.000E+00  0.000E+00  4.45960E+01  1.529E-01  2.000E+01  2.000E+04 -4.541E-02
   1   16   10     1    10    1.1009E+05 -8.9240E+02   1.1098E+05  0.000E+00  0.000E+00  0.000E+00  4.41195E+01  1.536E-01  2.000E+01  2.000E+04 -4.462E-02
   1   16   11     1    11    1.1098E+05 -8.9101E+02   1.1187E+05  0.000E+00  0.000E+00  0.000E+00  4.36430E+01  1.544E-01  2.000E+01  2.000E+04 -4.455E-02
   1   16   12     1    12    1.1187E+05 -1.3817E+03   1.1325E+05  0.000E+00  0.000E+00  0.000E+00  4.31667E+01  1.553E-01  2.000E+01  2.000E+04 -6.909E-02
   1   15   13     1    13    1.1325E+05 -7.7891E+02   1.1403E+05  0.000E+00  0.000E+00  0.000E+00  4.26903E+01  1.562E-01  2.000E+01  2.000E+04 -3.895E-02
   1   14   14     1    14    1.1403E+05 -5.4352E+02   1.1458E+05  0.000E+00  0.000E+00  0.000E+00  4.22136E+01  1.567E-01  2.000E+01  2.000E+04 -2.718E-02
   1   13   15     1    15    1.1458E+05 -3.8162E+02   1.1496E+05  0.000E+00  0.000E+00  0.000E+00  4.17367E+01  1.571E-01  2.000E+01  2.000E+04 -1.908E-02
   1   12   16     1    16    1.1496E+05 -3.2271E+02   1.1528E+05  0.000E+00  0.000E+00  0.000E+00  4.12597E+01  1.574E-01  2.000E+01  2.000E+04 -1.614E-02
   1   12   17     1    17    1.1528E+05 -3.8990E+02   1.1567E+05  0.000E+00  0.000E+00  0.000E+00  4.07827E+01  1.577E-01  2.000E+01  2.000E+04 -1.950E-02
   1   12   18     1    18    1.1567E+05 -2.5048E+02   1.1592E+05  0.000E+00  0.000E+00  0.000E+00  4.03057E+01  1.580E-01  2.000E+01  2.000E+04 -1.252E-02
   1   12   19     1    19    1.1592E+05  1.1362E+02   1.1581E+05  0.000E+00  0.000E+00  0.000E+00  3.98285E+01  1.580E-01  2.000E+01  2.000E+04  5.681E-03
   1   13   20     1    20    1.1581E+05 -4.6356E+02   1.1627E+05  0.000E+00  0.000E+00  0.000E+00  3.93513E+01  1.582E-01  2.000E+01  2.000E+04 -2.318E-02
   1   14   21     1    21    1.1627E+05 -1.0017E+03   1.1727E+05  0.000E+00  0.000E+00  0.000E+00  3.88747E+01  1.588E-01  2.000E+01  2.000E+04 -5.009E-02
   1   14   22     1    22    1.1727E+05  5.1751E+03   1.1210E+05  0.000E+00  0.000E+00  0.000E+00  3.83957E+01  1.570E-01  2.000E+01  2.000E+04  2.588E-01
   1    9   30     2     1    5.0000E+04 -1.7054E+01   5.0017E+04  0.000E+00  0.000E+00  0.000E+00  4.02409E+01  1.159E-01  2.000E+01  2.000E+04 -8.527E-04
   1    9   29     2     2    5.0017E+04 -2.3382E+02   5.0251E+04  0.000E+00  0.000E+00  0.000E+00  3.99911E+01  1.161E-01  2.000E+01  2.000E+04 -1.169E-02
   1    9   28     2     3    5.0251E+04 -2.3427E+02   5.0485E+04  0.000E+00  0.000E+00  0.000E+00  3.97414E+01  1.164E-01  2.000E+01  2.000E+04 -1.171E-02
   1    9   27     2     4    5.0485E+04  8.8866E+02   4.9596E+04  0.000E+00  0.000E+00  0.000E+00  3.94909E+01  1.159E-01  2.000E+01  2.000E+04  4.443E-02
   1   10   26     2     5    4.9596E+04  2.5623E+03   4.7034E+04  0.000E+00  0.000E+00  0.000E+00  3.92385E+01  1.135E-01  2.000E+01  2.000E+04  1.281E-01
   1   11   25     2     6    4.7034E+04  1.7773E+03   4.5257E+04  0.000E+00  0.000E+00  0.000E+00  3.89854E+01  1.104E-01  2.000E+01  2.000E+04  8.886E-02
   1   12   24     2     7    4.5257E+04  5.1318E+02   4.4744E+04  0.000E+00  0.000E+00  0.000E+00  3.87338E+01  1.088E-01  2.000E+01  2.000E+04  2.566E-02
   1   13   23     2     8    4.4744E+04  5.6011E+01   4.4688E+04  0.000E+00  0.000E+00  0.000E+00  3.84834E+01  1.084E-01  2.000E+01  2.000E+04  2.801E-03
   1   14   22     2     9    4.4688E+04  1.9000E+03   4.2788E+04  0.000E+00  0.000E+00  0.000E+00  3.82319E+01  1.069E-01  2.000E+01  2.000E+04  9.500E-02
   1   14   22     3     1    1.5488E+05 -8.4553E+03   1.6334E+05  0.000E+00  0.000E+00  0.000E+00  3.77142E+01  1.586E-01  2.000E+01  2.000E+04 -4.228E-01
   1   15   23     3     2    1.6334E+05 -3.6860E+02   1.6371E+05  0.000E+00  0.000E+00  0.000E+00  3.68279E+01  1.612E-01  2.000E+01  2.000E+04 -1.843E-02
   1   15   24     3     3    1.6371E+05 -7.6935E+00   1.6372E+05  0.000E+00  0.000E+00  0.000E+00  3.59391E+01  1.613E-01  2.000E+01  2.000E+04 -3.847E-04
   1   15   25     3     4    1.6372E+05 -7.8333E+01   1.6379E+05  0.000E+00  0.000E+00  0.000E+00  3.50503E+01  1.614E-01  2.000E+01  2.000E+04 -3.917E-03
   1   15   26     3     5    1.6379E+05 -1.9550E+02   1.6399E+05  0.000E+00  0.000E+00  0.000E+00  3.41614E+01  1.614E-01  2.000E+01  2.000E+04 -9.775E-03
   1   16   27     3     6    1.6399E+05 -1.9252E+02   1.6418E+05  0.000E+00  0.000E+00  0.000E+00  3.32727E+01  1.616E-01  2.000E+01  2.000E+04 -9.626E-03
   1   17   28     3     7    1.6418E+05 -1.2531E+03   1.6544E+05  0.000E+00  0.000E+00  0.000E+00  3.23842E+01  1.620E-01  2.000E+01  2.000E+04 -6.266E-02
   1   18   29     3     8    1.6544E+05 -2.6439E+03   1.6808E+05  0.000E+00  0.000E+00  0.000E+00  3.14965E+01  1.631E-01  2.000E+01  2.000E+04 -1.322E-01
   1   18   30     3     9    1.6808E+05 -2.9868E+03   1.7107E+05  0.000E+00  0.000E+00  0.000E+00  3.06092E+01  1.648E-01  2.000E+01  2.000E+04 -1.493E-01



1
              HEAD IN LAYER   1 AT END OF TIME STEP   1 IN STRESS PERIOD    7
  ---------------------------------------------------------------------------

          1      2      3      4      5      6      7      8      9     10
         11     12     13     14     15     16     17     18     19     20
         21     22     23     24     25     26     27     28     29     30
 .........................................................................
   1  ****** ****** ****** ****** ****** ****** ****** ****** ****** ******
      ****** ****** ****** ****** ****** ****** ****** ****** ****** ******
      ****** ****** ****** ****** ****** ****** ****** ****** ****** ******
   2  ****** ****** ****** ****** ****** ****** ****** ****** ****** ******
      ****** ****** ****** ****** ****** ****** ****** ****** ****** ******
      ****** ****** ****** ****** ****** ****** ****** ****** ****** ******
   3  ****** ****** ****** ****** ****** ****** ****** ****** ****** ******
      ****** ****** ****** ****** ****** ****** ****** ****** ****** ******
      ****** ****** ****** ****** ****** ****** ****** ****** ****** ******
   4  ****** ****** ****** ****** ****** ****** ****** ****** ****** ******
      ****** ****** ****** ****** ****** ****** ****** ****** ****** ******
      ****** ****** ****** ****** ****** ****** ****** ****** ****** ******
   5  ****** ****** ****** ****** ****** ****** ****** ****** ****** ******
      ****** ****** ****** ****** ****** ****** ****** ****** ****** ******
      ****** ****** ****** ****** ****** ****** ****** ****** ****** ******
   6  ****** ****** ****** ****** ****** ****** ****** ****** ****** ******
      ****** ****** ****** ****** ****** ****** ****** ****** ****** ******
      ****** ****** ****** ****** ****** ****** ****** ****** ****** ******
   7  ****** ****** ****** ****** ****** ****** ****** ****** ****** ******
      ****** ****** ****** ****** ****** ****** ****** ****** ****** ******
      ****** ****** ****** ****** ****** ****** ****** ****** ****** ******
   8  ****** ****** ****** ****** ****** ****** ****** ****** ****** ******
      ****** ****** ****** ****** ****** ****** ****** ****** ****** ******
      ****** ****** ****** ****** ****** ****** ****** ****** ****** ******
   9  ****** ****** ****** ****** ****** ****** ****** ****** ****** ******
      ****** ****** ****** ****** ****** ****** ****** ****** ****** ******
      ****** ****** ****** ****** ****** ****** ****** ****** ****** ******
  10  ****** ****** ****** ****** ****** ****** ****** ****** ****** ******
      ****** ****** ****** ****** ****** ****** ****** ****** ****** ******
      ****** ****** ****** ****** ****** ****** ****** ****** ****** ******
  11  ****** ****** ****** ****** ****** ****** ****** ****** ****** ******
      ****** ****** ****** ****** ****** ****** ****** ****** ****** ******
      ****** ****** ****** ****** ****** ****** ****** ****** ****** ******
  12  ****** ****** ****** ****** ****** ****** ****** ****** ****** ******
      ****** ****** ****** ****** ****** ****** ****** ****** ****** ******
      ****** ****** ****** ****** ****** ****** ****** ****** ****** ******
  13  ****** ****** ****** ****** ****** ****** ****** ****** ****** ******
      ****** ****** ****** ****** ****** ****** ****** ****** ****** ******
      ****** ****** ****** ****** ****** ****** ****** ****** ****** ******
  14  ****** ****** ****** ****** ****** ****** ****** ****** ****** ******
      ****** ****** ****** ****** ****** ****** ****** ****** ****** ******
      ****** ****** ****** ****** ****** ****** ****** ****** ****** ******
  15  ****** ****** ****** ****** ****** ****** ****** ****** ****** ******
      ****** ****** ****** ****** ****** ****** ****** ****** ****** ******
      ****** ****** ****** ****** ****** ****** ****** ****** ****** ******
  16  ****** ****** ****** ****** ****** ****** ****** ****** ****** ******
      ****** ****** ****** ****** ****** ****** ****** ****** ****** ******
      ****** ****** ****** ****** ****** ****** ****** ****** ****** ******
  17  ****** ****** ****** ****** ****** ****** ****** ****** ****** ******
      ****** ****** ****** ****** ****** ****** ****** ****** ****** ******
      ****** ****** ****** ****** ****** ****** ****** ****** ****** ******
  18  ****** ****** ****** ****** ****** ****** ****** ****** ****** ******
      ****** ****** ****** ****** ****** ****** ****** ****** ****** ******
      ****** ****** ****** ****** ****** ****** ****** ****** ****** ******
  19  ****** ****** ****** ****** ****** ****** ****** ****** ****** ******
      ****** ****** ****** ****** ****** ****** ****** ****** ****** ******
      ****** ****** ****** ****** ****** ****** ****** ****** ****** ******
  20  ****** ****** ****** ****** ****** ****** ****** ****** ****** ******
      ****** ****** ****** ****** ****** ****** ****** ****** ****** ******
      ****** ****** ****** ****** ****** ****** ****** ****** ****** ******
  21  ****** ****** ****** ****** ****** ****** ****** ****** ****** ******
      ****** ****** ****** ****** ****** ****** ****** ****** ****** ******
      ****** ****** ****** ****** ****** ****** ****** ****** ****** ******
  22  ****** ****** ****** ****** ****** ****** ****** ****** ****** ******
      ****** ****** ****** ****** ****** ****** ****** ****** ****** ******
      ****** ****** ****** ****** ****** ****** ****** ****** ****** ******
  23  ****** ****** ****** ****** ****** ****** ****** ****** ****** ******
      ****** ****** ****** ****** ****** ****** ****** ****** ****** ******
      ****** ****** ****** ****** ****** ****** ****** ****** ****** ******
  24  ****** ****** ****** ****** ****** ****** ****** ****** ****** ******
      ****** ****** ****** ****** ****** ****** ****** ****** ****** ******
      ****** ****** ****** ****** ****** ****** ****** ****** ****** ******
  25  ****** ****** ****** ****** ****** ****** ****** ****** ****** ******
      ****** ****** ****** ****** ****** ****** ****** ****** ****** ******
      ****** ****** ****** ****** ****** ****** ****** ****** ****** ******

 HEAD WILL BE SAVED ON UNIT   51 AT END OF TIME STEP    1, STRESS PERIOD    7
1
  VOLUMETRIC BUDGET FOR ENTIRE MODEL AT END OF TIME STEP    1, STRESS PERIOD   7
  ------------------------------------------------------------------------------

     CUMULATIVE VOLUMES      L**3       RATES FOR THIS TIME STEP      L**3/T
     ------------------                 ------------------------

           IN:                                      IN:
           ---                                      ---
             STORAGE =    33961274.7240               STORAGE =       22844.2511
       CONSTANT HEAD =    16421921.3828         CONSTANT HEAD =       33877.3000
               WELLS =           0.0000                 WELLS =           0.0000
            RECHARGE =    15097200.0000              RECHARGE =           0.0000
      STREAM LEAKAGE =     5805414.5075        STREAM LEAKAGE =       12986.0818

            TOTAL IN =    71285810.6143              TOTAL IN =       69707.6329

          OUT:                                     OUT:
          ----                                     ----
             STORAGE =      742055.9836               STORAGE =           0.0000
       CONSTANT HEAD =           0.0000         CONSTANT HEAD =           0.0000
               WELLS =    22783778.1191                 WELLS =       35655.3648
            RECHARGE =           0.0000              RECHARGE =           0.0000
      STREAM LEAKAGE =    47759979.0103        STREAM LEAKAGE =       34052.2736

           TOTAL OUT =    71285813.1130             TOTAL OUT =       69707.6384

            IN - OUT =          -2.4988              IN - OUT =      -5.5572E-03

 PERCENT DISCREPANCY =          -0.00     PERCENT DISCREPANCY =          -0.00






         TIME SUMMARY AT END OF TIME STEP    1 IN STRESS PERIOD    7
                    SECONDS     MINUTES      HOURS       DAYS        YEARS
                    -----------------------------------------------------------
   TIME STEP LENGTH 7.86240E+06 1.31040E+05  2184.0      91.000     0.24914    
 STRESS PERIOD TIME 7.86240E+06 1.31040E+05  2184.0      91.000     0.24914    
         TOTAL TIME 5.52096E+07 9.20160E+05  15336.      639.00      1.7495    
1
1
                            STRESS PERIOD NO.    8, LENGTH =   91.00000    
                            -----------------------------------------------

                              NUMBER OF TIME STEPS =     1

                               MULTIPLIER FOR DELT =     1.500

                            INITIAL TIME STEP SIZE =   91.00000    

 WELL NO.  LAYER   ROW   COL   STRESS RATE         
 --------------------------------------------------
      1      1     17     24      -1629.    
      2      1      9     25     -0.1155E+05
      3      1      8     20     -0.1367E+05
      4      1     10     13      -8797.    

      4 WELLS

                 RECHARGE =  1.000000E-03

 REUSING STREAM SEGMENT DATA FROM LAST STRESS PERIOD
 
 SOLVING FOR HEAD 


     6 CALLS TO PCG ROUTINE FOR TIME STEP   1 IN STRESS PERIOD    8
    22 TOTAL ITERATIONS

 OUTPUT CONTROL FOR STRESS PERIOD    8   TIME STEP    1
    SAVE BUDGET
    SAVE HEAD FOR ALL LAYERS
    PRINT HEAD FOR ALL LAYERS
 UBDSV2 SAVING "STREAMFLOW OUT  " ON UNIT  50 AT TIME STEP  1, STRESS PERIOD   8



 STREAM LISTING     PERIOD      8   STEP        1

 LAYER ROW COL. STREAM  RCH.  FLOW INTO     FLOW TO   FLOW OUT OF   OVRLND.     DIRECT     STREAM       STREAM     STREAM     STREAM   STREAMBED  STREAMBED
                SEG.NO.  NO.  STRM. RCH.    AQUIFER    STRM. RCH.    RUNOFF     PRECIP       ET          HEAD       DEPTH      WIDTH   CONDCTNC.   GRADIENT

   1   13    1     1     1    1.0000E+05 -1.6649E+03   1.0166E+05  0.000E+00  0.000E+00  0.000E+00  4.84067E+01  1.454E-01  2.000E+01  2.000E+04 -8.325E-02
   1   13    2     1     2    1.0166E+05 -2.6112E+03   1.0428E+05  0.000E+00  0.000E+00  0.000E+00  4.79313E+01  1.472E-01  2.000E+01  2.000E+04 -1.306E-01
   1   14    3     1     3    1.0428E+05 -4.5299E+02   1.0473E+05  0.000E+00  0.000E+00  0.000E+00  4.74553E+01  1.485E-01  2.000E+01  2.000E+04 -2.265E-02
   1   15    4     1     4    1.0473E+05 -4.3126E+02   1.0516E+05  0.000E+00  0.000E+00  0.000E+00  4.69784E+01  1.489E-01  2.000E+01  2.000E+04 -2.156E-02
   1   16    5     1     5    1.0516E+05 -1.6593E+03   1.0682E+05  0.000E+00  0.000E+00  0.000E+00  4.65021E+01  1.498E-01  2.000E+01  2.000E+04 -8.296E-02
   1   16    6     1     6    1.0682E+05 -1.0477E+03   1.0787E+05  0.000E+00  0.000E+00  0.000E+00  4.60259E+01  1.509E-01  2.000E+01  2.000E+04 -5.238E-02
   1   16    7     1     7    1.0787E+05 -1.0267E+03   1.0889E+05  0.000E+00  0.000E+00  0.000E+00  4.55495E+01  1.518E-01  2.000E+01  2.000E+04 -5.134E-02
   1   16    8     1     8    1.0889E+05 -1.0200E+03   1.0991E+05  0.000E+00  0.000E+00  0.000E+00  4.50731E+01  1.527E-01  2.000E+01  2.000E+04 -5.100E-02
   1   16    9     1     9    1.0991E+05 -1.0097E+03   1.1092E+05  0.000E+00  0.000E+00  0.000E+00  4.45967E+01  1.535E-01  2.000E+01  2.000E+04 -5.049E-02
   1   16   10     1    10    1.1092E+05 -9.9675E+02   1.1192E+05  0.000E+00  0.000E+00  0.000E+00  4.41203E+01  1.544E-01  2.000E+01  2.000E+04 -4.984E-02
   1   16   11     1    11    1.1192E+05 -9.9897E+02   1.1292E+05  0.000E+00  0.000E+00  0.000E+00  4.36438E+01  1.552E-01  2.000E+01  2.000E+04 -4.995E-02
   1   16   12     1    12    1.1292E+05 -1.5427E+03   1.1446E+05  0.000E+00  0.000E+00  0.000E+00  4.31676E+01  1.562E-01  2.000E+01  2.000E+04 -7.714E-02
   1   15   13     1    13    1.1446E+05 -9.4313E+02   1.1541E+05  0.000E+00  0.000E+00  0.000E+00  4.26913E+01  1.573E-01  2.000E+01  2.000E+04 -4.716E-02
   1   14   14     1    14    1.1541E+05 -6.9812E+02   1.1610E+05  0.000E+00  0.000E+00  0.000E+00  4.22147E+01  1.579E-01  2.000E+01  2.000E+04 -3.491E-02
   1   13   15     1    15    1.1610E+05 -5.2095E+02   1.1662E+05  0.000E+00  0.000E+00  0.000E+00  4.17380E+01  1.584E-01  2.000E+01  2.000E+04 -2.605E-02
   1   12   16     1    16    1.1662E+05 -4.1955E+02   1.1704E+05  0.000E+00  0.000E+00  0.000E+00  4.12611E+01  1.588E-01  2.000E+01  2.000E+04 -2.098E-02
   1   12   17     1    17    1.1704E+05 -4.9391E+02   1.1754E+05  0.000E+00  0.000E+00  0.000E+00  4.07842E+01  1.592E-01  2.000E+01  2.000E+04 -2.470E-02
   1   12   18     1    18    1.1754E+05 -3.6230E+02   1.1790E+05  0.000E+00  0.000E+00  0.000E+00  4.03073E+01  1.595E-01  2.000E+01  2.000E+04 -1.811E-02
   1   12   19     1    19    1.1790E+05 -2.7305E+01   1.1793E+05  0.000E+00  0.000E+00  0.000E+00  3.98301E+01  1.597E-01  2.000E+01  2.000E+04 -1.365E-03
   1   13   20     1    20    1.1793E+05 -6.3896E+02   1.1857E+05  0.000E+00  0.000E+00  0.000E+00  3.93531E+01  1.600E-01  2.000E+01  2.000E+04 -3.195E-02
   1   14   21     1    21    1.1857E+05 -1.1608E+03   1.1973E+05  0.000E+00  0.000E+00  0.000E+00  3.88766E+01  1.607E-01  2.000E+01  2.000E+04 -5.804E-02
   1   14   22     1    22    1.1973E+05  5.1260E+03   1.1460E+05  0.000E+00  0.000E+00  0.000E+00  3.83977E+01  1.591E-01  2.000E+01  2.000E+04  2.563E-01
   1    9   30     2     1    5.0000E+04 -1.7762E+02   5.0178E+04  0.000E+00  0.000E+00  0.000E+00  4.02410E+01  1.160E-01  2.000E+01  2.000E+04 -8.881E-03
   1    9   29     2     2    5.0178E+04 -3.9142E+02   5.0569E+04  0.000E+00  0.000E+00  0.000E+00  3.99914E+01  1.164E-01  2.000E+01  2.000E+04 -1.957E-02
   1    9   28     2     3    5.0569E+04 -3.8583E+02   5.0955E+04  0.000E+00  0.000E+00  0.000E+00  3.97419E+01  1.169E-01  2.000E+01  2.000E+04 -1.929E-02
   1    9   27     2     4    5.0955E+04  7.1723E+02   5.0238E+04  0.000E+00  0.000E+00  0.000E+00  3.94917E+01  1.167E-01  2.000E+01  2.000E+04  3.586E-02
   1   10   26     2     5    5.0238E+04  2.3625E+03   4.7875E+04  0.000E+00  0.000E+00  0.000E+00  3.92395E+01  1.145E-01  2.000E+01  2.000E+04  1.181E-01
   1   11   25     2     6    4.7875E+04  1.5785E+03   4.6297E+04  0.000E+00  0.000E+00  0.000E+00  3.89868E+01  1.118E-01  2.000E+01  2.000E+04  7.892E-02
   1   12   24     2     7    4.6297E+04  3.3311E+02   4.5964E+04  0.000E+00  0.000E+00  0.000E+00  3.87354E+01  1.104E-01  2.000E+01  2.000E+04  1.666E-02
   1   13   23     2     8    4.5964E+04 -1.7496E+01   4.5981E+04  0.000E+00  0.000E+00  0.000E+00  3.84852E+01  1.102E-01  2.000E+01  2.000E+04 -8.748E-04
   1   14   22     2     9    4.5981E+04  1.8488E+03   4.4132E+04  0.000E+00  0.000E+00  0.000E+00  3.82338E+01  1.088E-01  2.000E+01  2.000E+04  9.244E-02
   1   14   22     3     1    1.5873E+05 -8.4989E+03   1.6723E+05  0.000E+00  0.000E+00  0.000E+00  3.77165E+01  1.609E-01  2.000E+01  2.000E+04 -4.249E-01
   1   15   23     3     2    1.6723E+05 -4.3319E+02   1.6767E+05  0.000E+00  0.000E+00  0.000E+00  3.68302E+01  1.635E-01  2.000E+01  2.000E+04 -2.166E-02
   1   15   24     3     3    1.6767E+05 -6.8375E+01   1.6773E+05  0.000E+00  0.000E+00  0.000E+00  3.59415E+01  1.637E-01  2.000E+01  2.000E+04 -3.419E-03
   1   15   25     3     4    1.6773E+05 -1.4070E+02   1.6787E+05  0.000E+00  0.000E+00  0.000E+00  3.50526E+01  1.638E-01  2.000E+01  2.000E+04 -7.035E-03
   1   15   26     3     5    1.6787E+05 -2.7023E+02   1.6814E+05  0.000E+00  0.000E+00  0.000E+00  3.41639E+01  1.639E-01  2.000E+01  2.000E+04 -1.351E-02
   1   16   27     3     6    1.6814E+05 -2.7451E+02   1.6842E+05  0.000E+00  0.000E+00  0.000E+00  3.32751E+01  1.640E-01  2.000E+01  2.000E+04 -1.373E-02
   1   17   28     3     7    1.6842E+05 -1.4576E+03   1.6988E+05  0.000E+00  0.000E+00  0.000E+00  3.23868E+01  1.645E-01  2.000E+01  2.000E+04 -7.288E-02
   1   18   29     3     8    1.6988E+05 -2.8112E+03   1.7269E+05  0.000E+00  0.000E+00  0.000E+00  3.14991E+01  1.658E-01  2.000E+01  2.000E+04 -1.406E-01
   1   18   30     3     9    1.7269E+05 -3.1345E+03   1.7582E+05  0.000E+00  0.000E+00  0.000E+00  3.06119E+01  1.675E-01  2.000E+01  2.000E+04 -1.567E-01



1
              HEAD IN LAYER   1 AT END OF TIME STEP   1 IN STRESS PERIOD    8
  ---------------------------------------------------------------------------

          1      2      3      4      5      6      7      8      9     10
         11     12     13     14     15     16     17     18     19     20
         21     22     23     24     25     26     27     28     29     30
 .........................................................................
   1  ****** ****** ****** ****** ****** ****** ****** ****** ****** ******
      ****** ****** ****** ****** ****** ****** ****** ****** ****** ******
      ****** ****** ****** ****** ****** ****** ****** ****** ****** ******
   2  ****** ****** ****** ****** ****** ****** ****** ****** ****** ******
      ****** ****** ****** ****** ****** ****** ****** ****** ****** ******
      ****** ****** ****** ****** ****** ****** ****** ****** ****** ******
   3  ****** ****** ****** ****** ****** ****** ****** ****** ****** ******
      ****** ****** ****** ****** ****** ****** ****** ****** ****** ******
      ****** ****** ****** ****** ****** ****** ****** ****** ****** ******
   4  ****** ****** ****** ****** ****** ****** ****** ****** ****** ******
      ****** ****** ****** ****** ****** ****** ****** ****** ****** ******
      ****** ****** ****** ****** ****** ****** ****** ****** ****** ******
   5  ****** ****** ****** ****** ****** ****** ****** ****** ****** ******
      ****** ****** ****** ****** ****** ****** ****** ****** ****** ******
      ****** ****** ****** ****** ****** ****** ****** ****** ****** ******
   6  ****** ****** ****** ****** ****** ****** ****** ****** ****** ******
      ****** ****** ****** ****** ****** ****** ****** ****** ****** ******
      ****** ****** ****** ****** ****** ****** ****** ****** ****** ******
   7  ****** ****** ****** ****** ****** ****** ****** ****** ****** ******
      ****** ****** ****** ****** ****** ****** ****** ****** ****** ******
      ****** ****** ****** ****** ****** ****** ****** ****** ****** ******
   8  ****** ****** ****** ****** ****** ****** ****** ****** ****** ******
      ****** ****** ****** ****** ****** ****** ****** ****** ****** ******
      ****** ****** ****** ****** ****** ****** ****** ****** ****** ******
   9  ****** ****** ****** ****** ****** ****** ****** ****** ****** ******
      ****** ****** ****** ****** ****** ****** ****** ****** ****** ******
      ****** ****** ****** ****** ****** ****** ****** ****** ****** ******
  10  ****** ****** ****** ****** ****** ****** ****** ****** ****** ******
      ****** ****** ****** ****** ****** ****** ****** ****** ****** ******
      ****** ****** ****** ****** ****** ****** ****** ****** ****** ******
  11  ****** ****** ****** ****** ****** ****** ****** ****** ****** ******
      ****** ****** ****** ****** ****** ****** ****** ****** ****** ******
      ****** ****** ****** ****** ****** ****** ****** ****** ****** ******
  12  ****** ****** ****** ****** ****** ****** ****** ****** ****** ******
      ****** ****** ****** ****** ****** ****** ****** ****** ****** ******
      ****** ****** ****** ****** ****** ****** ****** ****** ****** ******
  13  ****** ****** ****** ****** ****** ****** ****** ****** ****** ******
      ****** ****** ****** ****** ****** ****** ****** ****** ****** ******
      ****** ****** ****** ****** ****** ****** ****** ****** ****** ******
  14  ****** ****** ****** ****** ****** ****** ****** ****** ****** ******
      ****** ****** ****** ****** ****** ****** ****** ****** ****** ******
      ****** ****** ****** ****** ****** ****** ****** ****** ****** ******
  15  ****** ****** ****** ****** ****** ****** ****** ****** ****** ******
      ****** ****** ****** ****** ****** ****** ****** ****** ****** ******
      ****** ****** ****** ****** ****** ****** ****** ****** ****** ******
  16  ****** ****** ****** ****** ****** ****** ****** ****** ****** ******
      ****** ****** ****** ****** ****** ****** ****** ****** ****** ******
      ****** ****** ****** ****** ****** ****** ****** ****** ****** ******
  17  ****** ****** ****** ****** ****** ****** ****** ****** ****** ******
      ****** ****** ****** ****** ****** ****** ****** ****** ****** ******
      ****** ****** ****** ****** ****** ****** ****** ****** ****** ******
  18  ****** ****** ****** ****** ****** ****** ****** ****** ****** ******
      ****** ****** ****** ****** ****** ****** ****** ****** ****** ******
      ****** ****** ****** ****** ****** ****** ****** ****** ****** ******
  19  ****** ****** ****** ****** ****** ****** ****** ****** ****** ******
      ****** ****** ****** ****** ****** ****** ****** ****** ****** ******
      ****** ****** ****** ****** ****** ****** ****** ****** ****** ******
  20  ****** ****** ****** ****** ****** ****** ****** ****** ****** ******
      ****** ****** ****** ****** ****** ****** ****** ****** ****** ******
      ****** ****** ****** ****** ****** ****** ****** ****** ****** ******
  21  ****** ****** ****** ****** ****** ****** ****** ****** ****** ******
      ****** ****** ****** ****** ****** ****** ****** ****** ****** ******
      ****** ****** ****** ****** ****** ****** ****** ****** ****** ******
  22  ****** ****** ****** ****** ****** ****** ****** ****** ****** ******
      ****** ****** ****** ****** ****** ****** ****** ****** ****** ******
      ****** ****** ****** ****** ****** ****** ****** ****** ****** ******
  23  ****** ****** ****** ****** ****** ****** ****** ****** ****** ******
      ****** ****** ****** ****** ****** ****** ****** ****** ****** ******
      ****** ****** ****** ****** ****** ****** ****** ****** ****** ******
  24  ****** ****** ****** ****** ****** ****** ****** ****** ****** ******
      ****** ****** ****** ****** ****** ****** ****** ****** ****** ******
      ****** ****** ****** ****** ****** ****** ****** ****** ****** ******
  25  ****** ****** ****** ****** ****** ****** ****** ****** ****** ******
      ****** ****** ****** ****** ****** ****** ****** ****** ****** ******
      ****** ****** ****** ****** ****** ****** ****** ****** ****** ******

 HEAD WILL BE SAVED ON UNIT   51 AT END OF TIME STEP    1, STRESS PERIOD    8
1
  VOLUMETRIC BUDGET FOR ENTIRE MODEL AT END OF TIME STEP    1, STRESS PERIOD   8
  ------------------------------------------------------------------------------

     CUMULATIVE VOLUMES      L**3       RATES FOR THIS TIME STEP      L**3/T
     ------------------                 ------------------------

           IN:                                      IN:
           ---                                      ---
             STORAGE =    34125239.1812               STORAGE =        1801.8072
       CONSTANT HEAD =    19481416.4611         CONSTANT HEAD =       33620.8250
               WELLS =           0.0000                 WELLS =           0.0000
            RECHARGE =    17608800.0000              RECHARGE =       27600.0000
      STREAM LEAKAGE =     6894328.6216        STREAM LEAKAGE =       11966.0892

            TOTAL IN =    78109784.2639              TOTAL IN =       74988.7214

          OUT:                                     OUT:
          ----                                     ----
             STORAGE =      882605.7832               STORAGE =        1544.5033
       CONSTANT HEAD =           0.0000         CONSTANT HEAD =           0.0000
               WELLS =    26028416.3176                 WELLS =       35655.3648
            RECHARGE =           0.0000              RECHARGE =           0.0000
      STREAM LEAKAGE =    51198763.9444        STREAM LEAKAGE =       37788.8454

           TOTAL OUT =    78109786.0453             TOTAL OUT =       74988.7135

            IN - OUT =          -1.7814              IN - OUT =       7.8833E-03

 PERCENT DISCREPANCY =          -0.00     PERCENT DISCREPANCY =           0.00






         TIME SUMMARY AT END OF TIME STEP    1 IN STRESS PERIOD    8
                    SECONDS     MINUTES      HOURS       DAYS        YEARS
                    -----------------------------------------------------------
   TIME STEP LENGTH 7.86240E+06 1.31040E+05  2184.0      91.000     0.24914    
 STRESS PERIOD TIME 7.86240E+06 1.31040E+05  2184.0      91.000     0.24914    
         TOTAL TIME 6.30720E+07 1.05120E+06  17520.      730.00      1.9986    
1
1
                            STRESS PERIOD NO.    9, LENGTH =   92.00000    
                            -----------------------------------------------

                              NUMBER OF TIME STEPS =     1

                               MULTIPLIER FOR DELT =     1.500

                            INITIAL TIME STEP SIZE =   92.00000    

 WELL NO.  LAYER   ROW   COL   STRESS RATE         
 --------------------------------------------------
      1      1     17     24      -1629.    
      2      1      9     25     -0.1155E+05
      3      1      8     20     -0.1367E+05
      4      1     10     13      -8797.    

      4 WELLS

                 RECHARGE =  5.000000E-04

 REUSING STREAM SEGMENT DATA FROM LAST STRESS PERIOD
 
 SOLVING FOR HEAD 


     6 CALLS TO PCG ROUTINE FOR TIME STEP   1 IN STRESS PERIOD    9
    23 TOTAL ITERATIONS

 OUTPUT CONTROL FOR STRESS PERIOD    9   TIME STEP    1
    SAVE BUDGET
    SAVE HEAD FOR ALL LAYERS
    PRINT HEAD FOR ALL LAYERS
 UBDSV2 SAVING "STREAMFLOW OUT  " ON UNIT  50 AT TIME STEP  1, STRESS PERIOD   9



 STREAM LISTING     PERIOD      9   STEP        1

 LAYER ROW COL. STREAM  RCH.  FLOW INTO     FLOW TO   FLOW OUT OF   OVRLND.     DIRECT     STREAM       STREAM     STREAM     STREAM   STREAMBED  STREAMBED
                SEG.NO.  NO.  STRM. RCH.    AQUIFER    STRM. RCH.    RUNOFF     PRECIP       ET          HEAD       DEPTH      WIDTH   CONDCTNC.   GRADIENT

   1   13    1     1     1    1.0000E+05 -1.4426E+03   1.0144E+05  0.000E+00  0.000E+00  0.000E+00  4.84066E+01  1.453E-01  2.000E+01  2.000E+04 -7.213E-02
   1   13    2     1     2    1.0144E+05 -2.3591E+03   1.0380E+05  0.000E+00  0.000E+00  0.000E+00  4.79310E+01  1.469E-01  2.000E+01  2.000E+04 -1.180E-01
   1   14    3     1     3    1.0380E+05 -3.8081E+02   1.0418E+05  0.000E+00  0.000E+00  0.000E+00  4.74549E+01  1.481E-01  2.000E+01  2.000E+04 -1.904E-02
   1   15    4     1     4    1.0418E+05 -3.5836E+02   1.0454E+05  0.000E+00  0.000E+00  0.000E+00  4.69780E+01  1.484E-01  2.000E+01  2.000E+04 -1.792E-02
   1   16    5     1     5    1.0454E+05 -1.4668E+03   1.0601E+05  0.000E+00  0.000E+00  0.000E+00  4.65015E+01  1.492E-01  2.000E+01  2.000E+04 -7.334E-02
   1   16    6     1     6    1.0601E+05 -9.2701E+02   1.0693E+05  0.000E+00  0.000E+00  0.000E+00  4.60252E+01  1.502E-01  2.000E+01  2.000E+04 -4.635E-02
   1   16    7     1     7    1.0693E+05 -9.0963E+02   1.0784E+05  0.000E+00  0.000E+00  0.000E+00  4.55487E+01  1.510E-01  2.000E+01  2.000E+04 -4.548E-02
   1   16    8     1     8    1.0784E+05 -9.0450E+02   1.0875E+05  0.000E+00  0.000E+00  0.000E+00  4.50722E+01  1.517E-01  2.000E+01  2.000E+04 -4.522E-02
   1   16    9     1     9    1.0875E+05 -8.9597E+02   1.0964E+05  0.000E+00  0.000E+00  0.000E+00  4.45957E+01  1.525E-01  2.000E+01  2.000E+04 -4.480E-02
   1   16   10     1    10    1.0964E+05 -8.8528E+02   1.1053E+05  0.000E+00  0.000E+00  0.000E+00  4.41191E+01  1.532E-01  2.000E+01  2.000E+04 -4.426E-02
   1   16   11     1    11    1.1053E+05 -8.8890E+02   1.1142E+05  0.000E+00  0.000E+00  0.000E+00  4.36426E+01  1.540E-01  2.000E+01  2.000E+04 -4.444E-02
   1   16   12     1    12    1.1142E+05 -1.3540E+03   1.1277E+05  0.000E+00  0.000E+00  0.000E+00  4.31663E+01  1.549E-01  2.000E+01  2.000E+04 -6.770E-02
   1   15   13     1    13    1.1277E+05 -7.3079E+02   1.1350E+05  0.000E+00  0.000E+00  0.000E+00  4.26899E+01  1.558E-01  2.000E+01  2.000E+04 -3.654E-02
   1   14   14     1    14    1.1350E+05 -4.7072E+02   1.1397E+05  0.000E+00  0.000E+00  0.000E+00  4.22131E+01  1.563E-01  2.000E+01  2.000E+04 -2.354E-02
   1   13   15     1    15    1.1397E+05 -2.8629E+02   1.1426E+05  0.000E+00  0.000E+00  0.000E+00  4.17361E+01  1.566E-01  2.000E+01  2.000E+04 -1.431E-02
   1   12   16     1    16    1.1426E+05 -1.7410E+02   1.1443E+05  0.000E+00  0.000E+00  0.000E+00  4.12590E+01  1.568E-01  2.000E+01  2.000E+04 -8.705E-03
   1   12   17     1    17    1.1443E+05 -3.2699E+02   1.1476E+05  0.000E+00  0.000E+00  0.000E+00  4.07820E+01  1.570E-01  2.000E+01  2.000E+04 -1.635E-02
   1   12   18     1    18    1.1476E+05 -2.0354E+02   1.1497E+05  0.000E+00  0.000E+00  0.000E+00  4.03049E+01  1.572E-01  2.000E+01  2.000E+04 -1.018E-02
   1   12   19     1    19    1.1497E+05  1.6399E+02   1.1480E+05  0.000E+00  0.000E+00  0.000E+00  3.98277E+01  1.572E-01  2.000E+01  2.000E+04  8.199E-03
   1   13   20     1    20    1.1480E+05 -4.6406E+02   1.1527E+05  0.000E+00  0.000E+00  0.000E+00  3.93505E+01  1.573E-01  2.000E+01  2.000E+04 -2.320E-02
   1   14   21     1    21    1.1527E+05 -9.8967E+02   1.1626E+05  0.000E+00  0.000E+00  0.000E+00  3.88738E+01  1.579E-01  2.000E+01  2.000E+04 -4.948E-02
   1   14   22     1    22    1.1626E+05  5.1650E+03   1.1109E+05  0.000E+00  0.000E+00  0.000E+00  3.83948E+01  1.562E-01  2.000E+01  2.000E+04  2.582E-01
   1    9   30     2     1    5.0000E+04 -5.2931E+01   5.0053E+04  0.000E+00  0.000E+00  0.000E+00  4.02409E+01  1.159E-01  2.000E+01  2.000E+04 -2.647E-03
   1    9   29     2     2    5.0053E+04 -2.6641E+02   5.0319E+04  0.000E+00  0.000E+00  0.000E+00  3.99911E+01  1.161E-01  2.000E+01  2.000E+04 -1.332E-02
   1    9   28     2     3    5.0319E+04 -2.5867E+02   5.0578E+04  0.000E+00  0.000E+00  0.000E+00  3.97415E+01  1.165E-01  2.000E+01  2.000E+04 -1.293E-02
   1    9   27     2     4    5.0578E+04  8.9722E+02   4.9681E+04  0.000E+00  0.000E+00  0.000E+00  3.94910E+01  1.160E-01  2.000E+01  2.000E+04  4.486E-02
   1   10   26     2     5    4.9681E+04  2.5389E+03   4.7142E+04  0.000E+00  0.000E+00  0.000E+00  3.92386E+01  1.136E-01  2.000E+01  2.000E+04  1.269E-01
   1   11   25     2     6    4.7142E+04  1.7472E+03   4.5395E+04  0.000E+00  0.000E+00  0.000E+00  3.89856E+01  1.106E-01  2.000E+01  2.000E+04  8.736E-02
   1   12   24     2     7    4.5395E+04  4.8835E+02   4.4906E+04  0.000E+00  0.000E+00  0.000E+00  3.87340E+01  1.090E-01  2.000E+01  2.000E+04  2.442E-02
   1   13   23     2     8    4.4906E+04  2.9976E+01   4.4876E+04  0.000E+00  0.000E+00  0.000E+00  3.84836E+01  1.086E-01  2.000E+01  2.000E+04  1.499E-03
   1   14   22     2     9    4.4876E+04  1.9119E+03   4.2964E+04  0.000E+00  0.000E+00  0.000E+00  3.82322E+01  1.072E-01  2.000E+01  2.000E+04  9.559E-02
   1   14   22     3     1    1.5405E+05 -8.4587E+03   1.6251E+05  0.000E+00  0.000E+00  0.000E+00  3.77137E+01  1.581E-01  2.000E+01  2.000E+04 -4.229E-01
   1   15   23     3     2    1.6251E+05 -3.8093E+02   1.6289E+05  0.000E+00  0.000E+00  0.000E+00  3.68274E+01  1.607E-01  2.000E+01  2.000E+04 -1.905E-02
   1   15   24     3     3    1.6289E+05 -2.5533E+01   1.6292E+05  0.000E+00  0.000E+00  0.000E+00  3.59386E+01  1.609E-01  2.000E+01  2.000E+04 -1.277E-03
   1   15   25     3     4    1.6292E+05 -9.7580E+01   1.6302E+05  0.000E+00  0.000E+00  0.000E+00  3.50498E+01  1.609E-01  2.000E+01  2.000E+04 -4.879E-03
   1   15   26     3     5    1.6302E+05 -2.2274E+02   1.6324E+05  0.000E+00  0.000E+00  0.000E+00  3.41610E+01  1.610E-01  2.000E+01  2.000E+04 -1.114E-02
   1   16   27     3     6    1.6324E+05 -2.1869E+02   1.6346E+05  0.000E+00  0.000E+00  0.000E+00  3.32722E+01  1.611E-01  2.000E+01  2.000E+04 -1.093E-02
   1   17   28     3     7    1.6346E+05 -1.3048E+03   1.6476E+05  0.000E+00  0.000E+00  0.000E+00  3.23838E+01  1.616E-01  2.000E+01  2.000E+04 -6.524E-02
   1   18   29     3     8    1.6476E+05 -2.6367E+03   1.6740E+05  0.000E+00  0.000E+00  0.000E+00  3.14961E+01  1.627E-01  2.000E+01  2.000E+04 -1.318E-01
   1   18   30     3     9    1.6740E+05 -3.0032E+03   1.7040E+05  0.000E+00  0.000E+00  0.000E+00  3.06088E+01  1.644E-01  2.000E+01  2.000E+04 -1.502E-01



1
              HEAD IN LAYER   1 AT END OF TIME STEP   1 IN STRESS PERIOD    9
  ---------------------------------------------------------------------------

          1      2      3      4      5      6      7      8      9     10
         11     12     13     14     15     16     17     18     19     20
         21     22     23     24     25     26     27     28     29     30
 .........................................................................
   1  ****** ****** ****** ****** ****** ****** ****** ****** ****** ******
      ****** ****** ****** ****** ****** ****** ****** ****** ****** ******
      ****** ****** ****** ****** ****** ****** ****** ****** ****** ******
   2  ****** ****** ****** ****** ****** ****** ****** ****** ****** ******
      ****** ****** ****** ****** ****** ****** ****** ****** ****** ******
      ****** ****** ****** ****** ****** ****** ****** ****** ****** ******
   3  ****** ****** ****** ****** ****** ****** ****** ****** ****** ******
      ****** ****** ****** ****** ****** ****** ****** ****** ****** ******
      ****** ****** ****** ****** ****** ****** ****** ****** ****** ******
   4  ****** ****** ****** ****** ****** ****** ****** ****** ****** ******
      ****** ****** ****** ****** ****** ****** ****** ****** ****** ******
      ****** ****** ****** ****** ****** ****** ****** ****** ****** ******
   5  ****** ****** ****** ****** ****** ****** ****** ****** ****** ******
      ****** ****** ****** ****** ****** ****** ****** ****** ****** ******
      ****** ****** ****** ****** ****** ****** ****** ****** ****** ******
   6  ****** ****** ****** ****** ****** ****** ****** ****** ****** ******
      ****** ****** ****** ****** ****** ****** ****** ****** ****** ******
      ****** ****** ****** ****** ****** ****** ****** ****** ****** ******
   7  ****** ****** ****** ****** ****** ****** ****** ****** ****** ******
      ****** ****** ****** ****** ****** ****** ****** ****** ****** ******
      ****** ****** ****** ****** ****** ****** ****** ****** ****** ******
   8  ****** ****** ****** ****** ****** ****** ****** ****** ****** ******
      ****** ****** ****** ****** ****** ****** ****** ****** ****** ******
      ****** ****** ****** ****** ****** ****** ****** ****** ****** ******
   9  ****** ****** ****** ****** ****** ****** ****** ****** ****** ******
      ****** ****** ****** ****** ****** ****** ****** ****** ****** ******
      ****** ****** ****** ****** ****** ****** ****** ****** ****** ******
  10  ****** ****** ****** ****** ****** ****** ****** ****** ****** ******
      ****** ****** ****** ****** ****** ****** ****** ****** ****** ******
      ****** ****** ****** ****** ****** ****** ****** ****** ****** ******
  11  ****** ****** ****** ****** ****** ****** ****** ****** ****** ******
      ****** ****** ****** ****** ****** ****** ****** ****** ****** ******
      ****** ****** ****** ****** ****** ****** ****** ****** ****** ******
  12  ****** ****** ****** ****** ****** ****** ****** ****** ****** ******
      ****** ****** ****** ****** ****** ****** ****** ****** ****** ******
      ****** ****** ****** ****** ****** ****** ****** ****** ****** ******
  13  ****** ****** ****** ****** ****** ****** ****** ****** ****** ******
      ****** ****** ****** ****** ****** ****** ****** ****** ****** ******
      ****** ****** ****** ****** ****** ****** ****** ****** ****** ******
  14  ****** ****** ****** ****** ****** ****** ****** ****** ****** ******
      ****** ****** ****** ****** ****** ****** ****** ****** ****** ******
      ****** ****** ****** ****** ****** ****** ****** ****** ****** ******
  15  ****** ****** ****** ****** ****** ****** ****** ****** ****** ******
      ****** ****** ****** ****** ****** ****** ****** ****** ****** ******
      ****** ****** ****** ****** ****** ****** ****** ****** ****** ******
  16  ****** ****** ****** ****** ****** ****** ****** ****** ****** ******
      ****** ****** ****** ****** ****** ****** ****** ****** ****** ******
      ****** ****** ****** ****** ****** ****** ****** ****** ****** ******
  17  ****** ****** ****** ****** ****** ****** ****** ****** ****** ******
      ****** ****** ****** ****** ****** ****** ****** ****** ****** ******
      ****** ****** ****** ****** ****** ****** ****** ****** ****** ******
  18  ****** ****** ****** ****** ****** ****** ****** ****** ****** ******
      ****** ****** ****** ****** ****** ****** ****** ****** ****** ******
      ****** ****** ****** ****** ****** ****** ****** ****** ****** ******
  19  ****** ****** ****** ****** ****** ****** ****** ****** ****** ******
      ****** ****** ****** ****** ****** ****** ****** ****** ****** ******
      ****** ****** ****** ****** ****** ****** ****** ****** ****** ******
  20  ****** ****** ****** ****** ****** ****** ****** ****** ****** ******
      ****** ****** ****** ****** ****** ****** ****** ****** ****** ******
      ****** ****** ****** ****** ****** ****** ****** ****** ****** ******
  21  ****** ****** ****** ****** ****** ****** ****** ****** ****** ******
      ****** ****** ****** ****** ****** ****** ****** ****** ****** ******
      ****** ****** ****** ****** ****** ****** ****** ****** ****** ******
  22  ****** ****** ****** ****** ****** ****** ****** ****** ****** ******
      ****** ****** ****** ****** ****** ****** ****** ****** ****** ******
      ****** ****** ****** ****** ****** ****** ****** ****** ****** ******
  23  ****** ****** ****** ****** ****** ****** ****** ****** ****** ******
      ****** ****** ****** ****** ****** ****** ****** ****** ****** ******
      ****** ****** ****** ****** ****** ****** ****** ****** ****** ******
  24  ****** ****** ****** ****** ****** ****** ****** ****** ****** ******
      ****** ****** ****** ****** ****** ****** ****** ****** ****** ******
      ****** ****** ****** ****** ****** ****** ****** ****** ****** ******
  25  ****** ****** ****** ****** ****** ****** ****** ****** ****** ******
      ****** ****** ****** ****** ****** ****** ****** ****** ****** ******
      ****** ****** ****** ****** ****** ****** ****** ****** ****** ******

 HEAD WILL BE SAVED ON UNIT   51 AT END OF TIME STEP    1, STRESS PERIOD    9
1
  VOLUMETRIC BUDGET FOR ENTIRE MODEL AT END OF TIME STEP    1, STRESS PERIOD   9
  ------------------------------------------------------------------------------

     CUMULATIVE VOLUMES      L**3       RATES FOR THIS TIME STEP      L**3/T
     ------------------                 ------------------------

           IN:                                      IN:
           ---                                      ---
             STORAGE =    34810136.0435               STORAGE =        7444.5311
       CONSTANT HEAD =    22684322.1098         CONSTANT HEAD =       34814.1918
               WELLS =           0.0000                 WELLS =           0.0000
            RECHARGE =    18878400.0000              RECHARGE =       13800.0000
      STREAM LEAKAGE =     8085046.3597        STREAM LEAKAGE =       12942.5841

            TOTAL IN =    84457904.5130              TOTAL IN =       69001.3071

          OUT:                                     OUT:
          ----                                     ----
             STORAGE =      882605.7832               STORAGE =           0.0000
       CONSTANT HEAD =           0.0000         CONSTANT HEAD =           0.0000
               WELLS =    29308709.8809                 WELLS =       35655.3648
            RECHARGE =           0.0000              RECHARGE =           0.0000
      STREAM LEAKAGE =    54266590.7033        STREAM LEAKAGE =       33345.9430

           TOTAL OUT =    84457906.3675             TOTAL OUT =       69001.3079

            IN - OUT =          -1.8545              IN - OUT =      -7.9437E-04

 PERCENT DISCREPANCY =          -0.00     PERCENT DISCREPANCY =          -0.00






         TIME SUMMARY AT END OF TIME STEP    1 IN STRESS PERIOD    9
                    SECONDS     MINUTES      HOURS       DAYS        YEARS
                    -----------------------------------------------------------
   TIME STEP LENGTH 7.94880E+06 1.32480E+05  2208.0      92.000     0.25188    
 STRESS PERIOD TIME 7.94880E+06 1.32480E+05  2208.0      92.000     0.25188    
         TOTAL TIME 7.10208E+07 1.18368E+06  19728.      822.00      2.2505    
1
1
                            STRESS PERIOD NO.   10, LENGTH =   91.00000    
                            -----------------------------------------------

                              NUMBER OF TIME STEPS =     1

                               MULTIPLIER FOR DELT =     1.500

                            INITIAL TIME STEP SIZE =   91.00000    

 WELL NO.  LAYER   ROW   COL   STRESS RATE         
 --------------------------------------------------
      1      1     17     24      -1629.    
      2      1      9     25     -0.1155E+05
      3      1      8     20     -0.1367E+05
      4      1     10     13      -8797.    

      4 WELLS

                 RECHARGE =  2.000000E-03

 REUSING STREAM SEGMENT DATA FROM LAST STRESS PERIOD
 
 SOLVING FOR HEAD 


     7 CALLS TO PCG ROUTINE FOR TIME STEP   1 IN STRESS PERIOD   10
    26 TOTAL ITERATIONS

 OUTPUT CONTROL FOR STRESS PERIOD   10   TIME STEP    1
    SAVE BUDGET
    SAVE HEAD FOR ALL LAYERS
    PRINT HEAD FOR ALL LAYERS
 UBDSV2 SAVING "STREAMFLOW OUT  " ON UNIT  50 AT TIME STEP  1, STRESS PERIOD  10



 STREAM LISTING     PERIOD     10   STEP        1

 LAYER ROW COL. STREAM  RCH.  FLOW INTO     FLOW TO   FLOW OUT OF   OVRLND.     DIRECT     STREAM       STREAM     STREAM     STREAM   STREAMBED  STREAMBED
                SEG.NO.  NO.  STRM. RCH.    AQUIFER    STRM. RCH.    RUNOFF     PRECIP       ET          HEAD       DEPTH      WIDTH   CONDCTNC.   GRADIENT

   1   13    1     1     1    1.0000E+05 -1.8893E+03   1.0189E+05  0.000E+00  0.000E+00  0.000E+00  4.84068E+01  1.455E-01  2.000E+01  2.000E+04 -9.446E-02
   1   13    2     1     2    1.0189E+05 -2.8536E+03   1.0474E+05  0.000E+00  0.000E+00  0.000E+00  4.79316E+01  1.475E-01  2.000E+01  2.000E+04 -1.427E-01
   1   14    3     1     3    1.0474E+05 -5.6630E+02   1.0531E+05  0.000E+00  0.000E+00  0.000E+00  4.74558E+01  1.490E-01  2.000E+01  2.000E+04 -2.831E-02
   1   15    4     1     4    1.0531E+05 -5.5698E+02   1.0587E+05  0.000E+00  0.000E+00  0.000E+00  4.69790E+01  1.494E-01  2.000E+01  2.000E+04 -2.785E-02
   1   16    5     1     5    1.0587E+05 -2.0856E+03   1.0795E+05  0.000E+00  0.000E+00  0.000E+00  4.65028E+01  1.506E-01  2.000E+01  2.000E+04 -1.043E-01
   1   16    6     1     6    1.0795E+05 -1.2887E+03   1.0924E+05  0.000E+00  0.000E+00  0.000E+00  4.60270E+01  1.520E-01  2.000E+01  2.000E+04 -6.443E-02
   1   16    7     1     7    1.0924E+05 -1.2534E+03   1.1049E+05  0.000E+00  0.000E+00  0.000E+00  4.55508E+01  1.531E-01  2.000E+01  2.000E+04 -6.267E-02
   1   16    8     1     8    1.1049E+05 -1.2428E+03   1.1174E+05  0.000E+00  0.000E+00  0.000E+00  4.50745E+01  1.541E-01  2.000E+01  2.000E+04 -6.214E-02
   1   16    9     1     9    1.1174E+05 -1.2329E+03   1.1297E+05  0.000E+00  0.000E+00  0.000E+00  4.45983E+01  1.551E-01  2.000E+01  2.000E+04 -6.164E-02
   1   16   10     1    10    1.1297E+05 -1.2226E+03   1.1419E+05  0.000E+00  0.000E+00  0.000E+00  4.41220E+01  1.561E-01  2.000E+01  2.000E+04 -6.113E-02
   1   16   11     1    11    1.1419E+05 -1.2299E+03   1.1542E+05  0.000E+00  0.000E+00  0.000E+00  4.36458E+01  1.571E-01  2.000E+01  2.000E+04 -6.150E-02
   1   16   12     1    12    1.1542E+05 -1.9231E+03   1.1735E+05  0.000E+00  0.000E+00  0.000E+00  4.31698E+01  1.584E-01  2.000E+01  2.000E+04 -9.615E-02
   1   15   13     1    13    1.1735E+05 -1.3153E+03   1.1866E+05  0.000E+00  0.000E+00  0.000E+00  4.26938E+01  1.598E-01  2.000E+01  2.000E+04 -6.576E-02
   1   14   14     1    14    1.1866E+05 -1.0614E+03   1.1972E+05  0.000E+00  0.000E+00  0.000E+00  4.22175E+01  1.607E-01  2.000E+01  2.000E+04 -5.307E-02
   1   13   15     1    15    1.1972E+05 -8.6604E+02   1.2059E+05  0.000E+00  0.000E+00  0.000E+00  4.17410E+01  1.615E-01  2.000E+01  2.000E+04 -4.330E-02
   1   12   16     1    16    1.2059E+05 -7.3078E+02   1.2132E+05  0.000E+00  0.000E+00  0.000E+00  4.12644E+01  1.621E-01  2.000E+01  2.000E+04 -3.654E-02
   1   12   17     1    17    1.2132E+05 -7.4994E+02   1.2207E+05  0.000E+00  0.000E+00  0.000E+00  4.07877E+01  1.627E-01  2.000E+01  2.000E+04 -3.750E-02
   1   12   18     1    18    1.2207E+05 -6.2279E+02   1.2269E+05  0.000E+00  0.000E+00  0.000E+00  4.03110E+01  1.633E-01  2.000E+01  2.000E+04 -3.114E-02
   1   12   19     1    19    1.2269E+05 -3.5194E+02   1.2304E+05  0.000E+00  0.000E+00  0.000E+00  3.98341E+01  1.637E-01  2.000E+01  2.000E+04 -1.760E-02
   1   13   20     1    20    1.2304E+05 -9.8450E+02   1.2403E+05  0.000E+00  0.000E+00  0.000E+00  3.93574E+01  1.642E-01  2.000E+01  2.000E+04 -4.922E-02
   1   14   21     1    21    1.2403E+05 -1.5150E+03   1.2554E+05  0.000E+00  0.000E+00  0.000E+00  3.88811E+01  1.652E-01  2.000E+01  2.000E+04 -7.575E-02
   1   14   22     1    22    1.2554E+05  5.0350E+03   1.2051E+05  0.000E+00  0.000E+00  0.000E+00  3.84024E+01  1.638E-01  2.000E+01  2.000E+04  2.518E-01
   1    9   30     2     1    5.0000E+04 -4.6642E+02   5.0466E+04  0.000E+00  0.000E+00  0.000E+00  4.02412E+01  1.162E-01  2.000E+01  2.000E+04 -2.332E-02
   1    9   29     2     2    5.0466E+04 -6.7756E+02   5.1144E+04  0.000E+00  0.000E+00  0.000E+00  3.99920E+01  1.170E-01  2.000E+01  2.000E+04 -3.388E-02
   1    9   28     2     3    5.1144E+04 -6.6887E+02   5.1813E+04  0.000E+00  0.000E+00  0.000E+00  3.97429E+01  1.179E-01  2.000E+01  2.000E+04 -3.344E-02
   1    9   27     2     4    5.1813E+04  3.4624E+02   5.1467E+04  0.000E+00  0.000E+00  0.000E+00  3.94931E+01  1.181E-01  2.000E+01  2.000E+04  1.731E-02
   1   10   26     2     5    5.1467E+04  1.9876E+03   4.9479E+04  0.000E+00  0.000E+00  0.000E+00  3.92415E+01  1.165E-01  2.000E+01  2.000E+04  9.938E-02
   1   11   25     2     6    4.9479E+04  1.2204E+03   4.8259E+04  0.000E+00  0.000E+00  0.000E+00  3.89893E+01  1.143E-01  2.000E+01  2.000E+04  6.102E-02
   1   12   24     2     7    4.8259E+04  1.1722E+01   4.8247E+04  0.000E+00  0.000E+00  0.000E+00  3.87384E+01  1.134E-01  2.000E+01  2.000E+04  5.861E-04
   1   13   23     2     8    4.8247E+04 -1.1844E+02   4.8365E+04  0.000E+00  0.000E+00  0.000E+00  3.84885E+01  1.135E-01  2.000E+01  2.000E+04 -5.922E-03
   1   14   22     2     9    4.8365E+04  1.7333E+03   4.6632E+04  0.000E+00  0.000E+00  0.000E+00  3.82374E+01  1.124E-01  2.000E+01  2.000E+04  8.666E-02
   1   14   22     3     1    1.6714E+05 -8.5853E+03   1.7573E+05  0.000E+00  0.000E+00  0.000E+00  3.77214E+01  1.659E-01  2.000E+01  2.000E+04 -4.293E-01
   1   15   23     3     2    1.7573E+05 -5.4361E+02   1.7627E+05  0.000E+00  0.000E+00  0.000E+00  3.68352E+01  1.685E-01  2.000E+01  2.000E+04 -2.718E-02
   1   15   24     3     3    1.7627E+05 -1.6279E+02   1.7643E+05  0.000E+00  0.000E+00  0.000E+00  3.59465E+01  1.687E-01  2.000E+01  2.000E+04 -8.140E-03
   1   15   25     3     4    1.7643E+05 -2.3824E+02   1.7667E+05  0.000E+00  0.000E+00  0.000E+00  3.50577E+01  1.688E-01  2.000E+01  2.000E+04 -1.191E-02
   1   15   26     3     5    1.7667E+05 -3.8502E+02   1.7705E+05  0.000E+00  0.000E+00  0.000E+00  3.41690E+01  1.690E-01  2.000E+01  2.000E+04 -1.925E-02
   1   16   27     3     6    1.7705E+05 -4.0464E+02   1.7746E+05  0.000E+00  0.000E+00  0.000E+00  3.32803E+01  1.692E-01  2.000E+01  2.000E+04 -2.023E-02
   1   17   28     3     7    1.7746E+05 -1.8258E+03   1.7929E+05  0.000E+00  0.000E+00  0.000E+00  3.23921E+01  1.699E-01  2.000E+01  2.000E+04 -9.129E-02
   1   18   29     3     8    1.7929E+05 -3.1889E+03   1.8247E+05  0.000E+00  0.000E+00  0.000E+00  3.15046E+01  1.713E-01  2.000E+01  2.000E+04 -1.594E-01
   1   18   30     3     9    1.8247E+05 -3.4291E+03   1.8590E+05  0.000E+00  0.000E+00  0.000E+00  3.06176E+01  1.732E-01  2.000E+01  2.000E+04 -1.715E-01



1
              HEAD IN LAYER   1 AT END OF TIME STEP   1 IN STRESS PERIOD   10
  ---------------------------------------------------------------------------

          1      2      3      4      5      6      7      8      9     10
         11     12     13     14     15     16     17     18     19     20
         21     22     23     24     25     26     27     28     29     30
 .........................................................................
   1  ****** ****** ****** ****** ****** ****** ****** ****** ****** ******
      ****** ****** ****** ****** ****** ****** ****** ****** ****** ******
      ****** ****** ****** ****** ****** ****** ****** ****** ****** ******
   2  ****** ****** ****** ****** ****** ****** ****** ****** ****** ******
      ****** ****** ****** ****** ****** ****** ****** ****** ****** ******
      ****** ****** ****** ****** ****** ****** ****** ****** ****** ******
   3  ****** ****** ****** ****** ****** ****** ****** ****** ****** ******
      ****** ****** ****** ****** ****** ****** ****** ****** ****** ******
      ****** ****** ****** ****** ****** ****** ****** ****** ****** ******
   4  ****** ****** ****** ****** ****** ****** ****** ****** ****** ******
      ****** ****** ****** ****** ****** ****** ****** ****** ****** ******
      ****** ****** ****** ****** ****** ****** ****** ****** ****** ******
   5  ****** ****** ****** ****** ****** ****** ****** ****** ****** ******
      ****** ****** ****** ****** ****** ****** ****** ****** ****** ******
      ****** ****** ****** ****** ****** ****** ****** ****** ****** ******
   6  ****** ****** ****** ****** ****** ****** ****** ****** ****** ******
      ****** ****** ****** ****** ****** ****** ****** ****** ****** ******
      ****** ****** ****** ****** ****** ****** ****** ****** ****** ******
   7  ****** ****** ****** ****** ****** ****** ****** ****** ****** ******
      ****** ****** ****** ****** ****** ****** ****** ****** ****** ******
      ****** ****** ****** ****** ****** ****** ****** ****** ****** ******
   8  ****** ****** ****** ****** ****** ****** ****** ****** ****** ******
      ****** ****** ****** ****** ****** ****** ****** ****** ****** ******
      ****** ****** ****** ****** ****** ****** ****** ****** ****** ******
   9  ****** ****** ****** ****** ****** ****** ****** ****** ****** ******
      ****** ****** ****** ****** ****** ****** ****** ****** ****** ******
      ****** ****** ****** ****** ****** ****** ****** ****** ****** ******
  10  ****** ****** ****** ****** ****** ****** ****** ****** ****** ******
      ****** ****** ****** ****** ****** ****** ****** ****** ****** ******
      ****** ****** ****** ****** ****** ****** ****** ****** ****** ******
  11  ****** ****** ****** ****** ****** ****** ****** ****** ****** ******
      ****** ****** ****** ****** ****** ****** ****** ****** ****** ******
      ****** ****** ****** ****** ****** ****** ****** ****** ****** ******
  12  ****** ****** ****** ****** ****** ****** ****** ****** ****** ******
      ****** ****** ****** ****** ****** ****** ****** ****** ****** ******
      ****** ****** ****** ****** ****** ****** ****** ****** ****** ******
  13  ****** ****** ****** ****** ****** ****** ****** ****** ****** ******
      ****** ****** ****** ****** ****** ****** ****** ****** ****** ******
      ****** ****** ****** ****** ****** ****** ****** ****** ****** ******
  14  ****** ****** ****** ****** ****** ****** ****** ****** ****** ******
      ****** ****** ****** ****** ****** ****** ****** ****** ****** ******
      ****** ****** ****** ****** ****** ****** ****** ****** ****** ******
  15  ****** ****** ****** ****** ****** ****** ****** ****** ****** ******
      ****** ****** ****** ****** ****** ****** ****** ****** ****** ******
      ****** ****** ****** ****** ****** ****** ****** ****** ****** ******
  16  ****** ****** ****** ****** ****** ****** ****** ****** ****** ******
      ****** ****** ****** ****** ****** ****** ****** ****** ****** ******
      ****** ****** ****** ****** ****** ****** ****** ****** ****** ******
  17  ****** ****** ****** ****** ****** ****** ****** ****** ****** ******
      ****** ****** ****** ****** ****** ****** ****** ****** ****** ******
      ****** ****** ****** ****** ****** ****** ****** ****** ****** ******
  18  ****** ****** ****** ****** ****** ****** ****** ****** ****** ******
      ****** ****** ****** ****** ****** ****** ****** ****** ****** ******
      ****** ****** ****** ****** ****** ****** ****** ****** ****** ******
  19  ****** ****** ****** ****** ****** ****** ****** ****** ****** ******
      ****** ****** ****** ****** ****** ****** ****** ****** ****** ******
      ****** ****** ****** ****** ****** ****** ****** ****** ****** ******
  20  ****** ****** ****** ****** ****** ****** ****** ****** ****** ******
      ****** ****** ****** ****** ****** ****** ****** ****** ****** ******
      ****** ****** ****** ****** ****** ****** ****** ****** ****** ******
  21  ****** ****** ****** ****** ****** ****** ****** ****** ****** ******
      ****** ****** ****** ****** ****** ****** ****** ****** ****** ******
      ****** ****** ****** ****** ****** ****** ****** ****** ****** ******
  22  ****** ****** ****** ****** ****** ****** ****** ****** ****** ******
      ****** ****** ****** ****** ****** ****** ****** ****** ****** ******
      ****** ****** ****** ****** ****** ****** ****** ****** ****** ******
  23  ****** ****** ****** ****** ****** ****** ****** ****** ****** ******
      ****** ****** ****** ****** ****** ****** ****** ****** ****** ******
      ****** ****** ****** ****** ****** ****** ****** ****** ****** ******
  24  ****** ****** ****** ****** ****** ****** ****** ****** ****** ******
      ****** ****** ****** ****** ****** ****** ****** ****** ****** ******
      ****** ****** ****** ****** ****** ****** ****** ****** ****** ******
  25  ****** ****** ****** ****** ****** ****** ****** ****** ****** ******
      ****** ****** ****** ****** ****** ****** ****** ****** ****** ******
      ****** ****** ****** ****** ****** ****** ****** ****** ****** ******

 HEAD WILL BE SAVED ON UNIT   51 AT END OF TIME STEP    1, STRESS PERIOD   10
1
  VOLUMETRIC BUDGET FOR ENTIRE MODEL AT END OF TIME STEP    1, STRESS PERIOD  10
  ------------------------------------------------------------------------------

     CUMULATIVE VOLUMES      L**3       RATES FOR THIS TIME STEP      L**3/T
     ------------------                 ------------------------

           IN:                                      IN:
           ---                                      ---
             STORAGE =    34810136.0435               STORAGE =           0.0000
       CONSTANT HEAD =    25585366.7723         CONSTANT HEAD =       31879.6117
               WELLS =           0.0000                 WELLS =           0.0000
            RECHARGE =    23901600.0000              RECHARGE =       55200.0000
      STREAM LEAKAGE =     9025467.3612        STREAM LEAKAGE =       10334.2967

            TOTAL IN =    93322570.1770              TOTAL IN =       97413.9084

          OUT:                                     OUT:
          ----                                     ----
             STORAGE =     2295037.4523               STORAGE =       15521.2271
       CONSTANT HEAD =           0.0000         CONSTANT HEAD =           0.0000
               WELLS =    32553348.0794                 WELLS =       35655.3648
            RECHARGE =           0.0000              RECHARGE =           0.0000
      STREAM LEAKAGE =    58474186.1516        STREAM LEAKAGE =       46237.3126

           TOTAL OUT =    93322571.6833             TOTAL OUT =       97413.9046

            IN - OUT =          -1.5064              IN - OUT =       3.8251E-03

 PERCENT DISCREPANCY =          -0.00     PERCENT DISCREPANCY =           0.00






         TIME SUMMARY AT END OF TIME STEP    1 IN STRESS PERIOD   10
                    SECONDS     MINUTES      HOURS       DAYS        YEARS
                    -----------------------------------------------------------
   TIME STEP LENGTH 7.86240E+06 1.31040E+05  2184.0      91.000     0.24914    
 STRESS PERIOD TIME 7.86240E+06 1.31040E+05  2184.0      91.000     0.24914    
         TOTAL TIME 7.88832E+07 1.31472E+06  21912.      913.00      2.4997    
1
1
                            STRESS PERIOD NO.   11, LENGTH =   91.00000    
                            -----------------------------------------------

                              NUMBER OF TIME STEPS =     1

                               MULTIPLIER FOR DELT =     1.500

                            INITIAL TIME STEP SIZE =   91.00000    

 WELL NO.  LAYER   ROW   COL   STRESS RATE         
 --------------------------------------------------
      1      1     17     24      -1629.    
      2      1      9     25     -0.1155E+05
      3      1      8     20     -0.1367E+05
      4      1     10     13      -8797.    

      4 WELLS

                 RECHARGE =   0.00000    

 REUSING STREAM SEGMENT DATA FROM LAST STRESS PERIOD
 
 SOLVING FOR HEAD 


     7 CALLS TO PCG ROUTINE FOR TIME STEP   1 IN STRESS PERIOD   11
    26 TOTAL ITERATIONS

 OUTPUT CONTROL FOR STRESS PERIOD   11   TIME STEP    1
    SAVE BUDGET
    SAVE HEAD FOR ALL LAYERS
    PRINT HEAD FOR ALL LAYERS
 UBDSV2 SAVING "STREAMFLOW OUT  " ON UNIT  50 AT TIME STEP  1, STRESS PERIOD  11



 STREAM LISTING     PERIOD     11   STEP        1

 LAYER ROW COL. STREAM  RCH.  FLOW INTO     FLOW TO   FLOW OUT OF   OVRLND.     DIRECT     STREAM       STREAM     STREAM     STREAM   STREAMBED  STREAMBED
                SEG.NO.  NO.  STRM. RCH.    AQUIFER    STRM. RCH.    RUNOFF     PRECIP       ET          HEAD       DEPTH      WIDTH   CONDCTNC.   GRADIENT

   1   13    1     1     1    1.0000E+05 -1.3173E+03   1.0132E+05  0.000E+00  0.000E+00  0.000E+00  4.84066E+01  1.452E-01  2.000E+01  2.000E+04 -6.586E-02
   1   13    2     1     2    1.0132E+05 -2.2164E+03   1.0353E+05  0.000E+00  0.000E+00  0.000E+00  4.79308E+01  1.467E-01  2.000E+01  2.000E+04 -1.108E-01
   1   14    3     1     3    1.0353E+05 -3.3462E+02   1.0387E+05  0.000E+00  0.000E+00  0.000E+00  4.74547E+01  1.478E-01  2.000E+01  2.000E+04 -1.673E-02
   1   15    4     1     4    1.0387E+05 -3.1446E+02   1.0418E+05  0.000E+00  0.000E+00  0.000E+00  4.69777E+01  1.481E-01  2.000E+01  2.000E+04 -1.572E-02
   1   16    5     1     5    1.0418E+05 -1.3976E+03   1.0558E+05  0.000E+00  0.000E+00  0.000E+00  4.65011E+01  1.488E-01  2.000E+01  2.000E+04 -6.988E-02
   1   16    6     1     6    1.0558E+05 -8.7392E+02   1.0645E+05  0.000E+00  0.000E+00  0.000E+00  4.60248E+01  1.498E-01  2.000E+01  2.000E+04 -4.370E-02
   1   16    7     1     7    1.0645E+05 -8.5618E+02   1.0731E+05  0.000E+00  0.000E+00  0.000E+00  4.55483E+01  1.505E-01  2.000E+01  2.000E+04 -4.281E-02
   1   16    8     1     8    1.0731E+05 -8.5114E+02   1.0816E+05  0.000E+00  0.000E+00  0.000E+00  4.50717E+01  1.513E-01  2.000E+01  2.000E+04 -4.256E-02
   1   16    9     1     9    1.0816E+05 -8.4350E+02   1.0901E+05  0.000E+00  0.000E+00  0.000E+00  4.45952E+01  1.520E-01  2.000E+01  2.000E+04 -4.218E-02
   1   16   10     1    10    1.0901E+05 -8.3441E+02   1.0984E+05  0.000E+00  0.000E+00  0.000E+00  4.41186E+01  1.527E-01  2.000E+01  2.000E+04 -4.172E-02
   1   16   11     1    11    1.0984E+05 -8.4015E+02   1.1068E+05  0.000E+00  0.000E+00  0.000E+00  4.36420E+01  1.534E-01  2.000E+01  2.000E+04 -4.201E-02
   1   16   12     1    12    1.1068E+05 -1.2771E+03   1.1196E+05  0.000E+00  0.000E+00  0.000E+00  4.31656E+01  1.543E-01  2.000E+01  2.000E+04 -6.385E-02
   1   15   13     1    13    1.1196E+05 -6.2533E+02   1.1258E+05  0.000E+00  0.000E+00  0.000E+00  4.26891E+01  1.551E-01  2.000E+01  2.000E+04 -3.127E-02
   1   14   14     1    14    1.1258E+05 -3.5295E+02   1.1293E+05  0.000E+00  0.000E+00  0.000E+00  4.22123E+01  1.555E-01  2.000E+01  2.000E+04 -1.765E-02
   1   13   15     1    15    1.1293E+05 -1.6260E+02   1.1310E+05  0.000E+00  0.000E+00  0.000E+00  4.17352E+01  1.557E-01  2.000E+01  2.000E+04 -8.130E-03
   1   12   16     1    16    1.1310E+05 -4.9749E+01   1.1315E+05  0.000E+00  0.000E+00  0.000E+00  4.12580E+01  1.558E-01  2.000E+01  2.000E+04 -2.487E-03
   1   12   17     1    17    1.1315E+05 -2.4141E+02   1.1339E+05  0.000E+00  0.000E+00  0.000E+00  4.07809E+01  1.559E-01  2.000E+01  2.000E+04 -1.207E-02
   1   12   18     1    18    1.1339E+05 -1.2227E+02   1.1351E+05  0.000E+00  0.000E+00  0.000E+00  4.03038E+01  1.560E-01  2.000E+01  2.000E+04 -6.113E-03
   1   12   19     1    19    1.1351E+05  2.6246E+02   1.1325E+05  0.000E+00  0.000E+00  0.000E+00  3.98264E+01  1.560E-01  2.000E+01  2.000E+04  1.312E-02
   1   13   20     1    20    1.1325E+05 -3.7164E+02   1.1362E+05  0.000E+00  0.000E+00  0.000E+00  3.93492E+01  1.560E-01  2.000E+01  2.000E+04 -1.858E-02
   1   14   21     1    21    1.1362E+05 -9.1820E+02   1.1454E+05  0.000E+00  0.000E+00  0.000E+00  3.88725E+01  1.565E-01  2.000E+01  2.000E+04 -4.591E-02
   1   14   22     1    22    1.1454E+05  5.1849E+03   1.0935E+05  0.000E+00  0.000E+00  0.000E+00  3.83934E+01  1.548E-01  2.000E+01  2.000E+04  2.592E-01
   1    9   30     2     1    5.0000E+04  2.2074E+01   4.9978E+04  0.000E+00  0.000E+00  0.000E+00  4.02409E+01  1.159E-01  2.000E+01  2.000E+04  1.104E-03
   1    9   29     2     2    4.9978E+04 -1.9208E+02   5.0170E+04  0.000E+00  0.000E+00  0.000E+00  3.99910E+01  1.160E-01  2.000E+01  2.000E+04 -9.604E-03
   1    9   28     2     3    5.0170E+04 -1.8547E+02   5.0355E+04  0.000E+00  0.000E+00  0.000E+00  3.97412E+01  1.162E-01  2.000E+01  2.000E+04 -9.274E-03
   1    9   27     2     4    5.0355E+04  9.8716E+02   4.9368E+04  0.000E+00  0.000E+00  0.000E+00  3.94907E+01  1.157E-01  2.000E+01  2.000E+04  4.936E-02
   1   10   26     2     5    4.9368E+04  2.6427E+03   4.6726E+04  0.000E+00  0.000E+00  0.000E+00  3.92381E+01  1.131E-01  2.000E+01  2.000E+04  1.321E-01
   1   11   25     2     6    4.6726E+04  1.8515E+03   4.4874E+04  0.000E+00  0.000E+00  0.000E+00  3.89849E+01  1.099E-01  2.000E+01  2.000E+04  9.258E-02
   1   12   24     2     7    4.4874E+04  5.8577E+02   4.4288E+04  0.000E+00  0.000E+00  0.000E+00  3.87332E+01  1.082E-01  2.000E+01  2.000E+04  2.929E-02
   1   13   23     2     8    4.4288E+04  6.7488E+01   4.4221E+04  0.000E+00  0.000E+00  0.000E+00  3.84827E+01  1.077E-01  2.000E+01  2.000E+04  3.374E-03
   1   14   22     2     9    4.4221E+04  1.9407E+03   4.2280E+04  0.000E+00  0.000E+00  0.000E+00  3.82312E+01  1.062E-01  2.000E+01  2.000E+04  9.704E-02
   1   14   22     3     1    1.5163E+05 -8.4394E+03   1.6007E+05  0.000E+00  0.000E+00  0.000E+00  3.77122E+01  1.566E-01  2.000E+01  2.000E+04 -4.220E-01
   1   15   23     3     2    1.6007E+05 -3.5170E+02   1.6042E+05  0.000E+00  0.000E+00  0.000E+00  3.68260E+01  1.593E-01  2.000E+01  2.000E+04 -1.759E-02
   1   15   24     3     3    1.6042E+05  2.2545E+00   1.6042E+05  0.000E+00  0.000E+00  0.000E+00  3.59372E+01  1.594E-01  2.000E+01  2.000E+04  1.127E-04
   1   15   25     3     4    1.6042E+05 -6.9353E+01   1.6049E+05  0.000E+00  0.000E+00  0.000E+00  3.50483E+01  1.594E-01  2.000E+01  2.000E+04 -3.468E-03
   1   15   26     3     5    1.6049E+05 -1.8939E+02   1.6068E+05  0.000E+00  0.000E+00  0.000E+00  3.41595E+01  1.595E-01  2.000E+01  2.000E+04 -9.469E-03
   1   16   27     3     6    1.6068E+05 -1.8173E+02   1.6086E+05  0.000E+00  0.000E+00  0.000E+00  3.32707E+01  1.596E-01  2.000E+01  2.000E+04 -9.086E-03
   1   17   28     3     7    1.6086E+05 -1.2164E+03   1.6208E+05  0.000E+00  0.000E+00  0.000E+00  3.23822E+01  1.600E-01  2.000E+01  2.000E+04 -6.082E-02
   1   18   29     3     8    1.6208E+05 -2.5676E+03   1.6465E+05  0.000E+00  0.000E+00  0.000E+00  3.14945E+01  1.611E-01  2.000E+01  2.000E+04 -1.284E-01
   1   18   30     3     9    1.6465E+05 -2.9402E+03   1.6759E+05  0.000E+00  0.000E+00  0.000E+00  3.06072E+01  1.628E-01  2.000E+01  2.000E+04 -1.470E-01



1
              HEAD IN LAYER   1 AT END OF TIME STEP   1 IN STRESS PERIOD   11
  ---------------------------------------------------------------------------

          1      2      3      4      5      6      7      8      9     10
         11     12     13     14     15     16     17     18     19     20
         21     22     23     24     25     26     27     28     29     30
 .........................................................................
   1  ****** ****** ****** ****** ****** ****** ****** ****** ****** ******
      ****** ****** ****** ****** ****** ****** ****** ****** ****** ******
      ****** ****** ****** ****** ****** ****** ****** ****** ****** ******
   2  ****** ****** ****** ****** ****** ****** ****** ****** ****** ******
      ****** ****** ****** ****** ****** ****** ****** ****** ****** ******
      ****** ****** ****** ****** ****** ****** ****** ****** ****** ******
   3  ****** ****** ****** ****** ****** ****** ****** ****** ****** ******
      ****** ****** ****** ****** ****** ****** ****** ****** ****** ******
      ****** ****** ****** ****** ****** ****** ****** ****** ****** ******
   4  ****** ****** ****** ****** ****** ****** ****** ****** ****** ******
      ****** ****** ****** ****** ****** ****** ****** ****** ****** ******
      ****** ****** ****** ****** ****** ****** ****** ****** ****** ******
   5  ****** ****** ****** ****** ****** ****** ****** ****** ****** ******
      ****** ****** ****** ****** ****** ****** ****** ****** ****** ******
      ****** ****** ****** ****** ****** ****** ****** ****** ****** ******
   6  ****** ****** ****** ****** ****** ****** ****** ****** ****** ******
      ****** ****** ****** ****** ****** ****** ****** ****** ****** ******
      ****** ****** ****** ****** ****** ****** ****** ****** ****** ******
   7  ****** ****** ****** ****** ****** ****** ****** ****** ****** ******
      ****** ****** ****** ****** ****** ****** ****** ****** ****** ******
      ****** ****** ****** ****** ****** ****** ****** ****** ****** ******
   8  ****** ****** ****** ****** ****** ****** ****** ****** ****** ******
      ****** ****** ****** ****** ****** ****** ****** ****** ****** ******
      ****** ****** ****** ****** ****** ****** ****** ****** ****** ******
   9  ****** ****** ****** ****** ****** ****** ****** ****** ****** ******
      ****** ****** ****** ****** ****** ****** ****** ****** ****** ******
      ****** ****** ****** ****** ****** ****** ****** ****** ****** ******
  10  ****** ****** ****** ****** ****** ****** ****** ****** ****** ******
      ****** ****** ****** ****** ****** ****** ****** ****** ****** ******
      ****** ****** ****** ****** ****** ****** ****** ****** ****** ******
  11  ****** ****** ****** ****** ****** ****** ****** ****** ****** ******
      ****** ****** ****** ****** ****** ****** ****** ****** ****** ******
      ****** ****** ****** ****** ****** ****** ****** ****** ****** ******
  12  ****** ****** ****** ****** ****** ****** ****** ****** ****** ******
      ****** ****** ****** ****** ****** ****** ****** ****** ****** ******
      ****** ****** ****** ****** ****** ****** ****** ****** ****** ******
  13  ****** ****** ****** ****** ****** ****** ****** ****** ****** ******
      ****** ****** ****** ****** ****** ****** ****** ****** ****** ******
      ****** ****** ****** ****** ****** ****** ****** ****** ****** ******
  14  ****** ****** ****** ****** ****** ****** ****** ****** ****** ******
      ****** ****** ****** ****** ****** ****** ****** ****** ****** ******
      ****** ****** ****** ****** ****** ****** ****** ****** ****** ******
  15  ****** ****** ****** ****** ****** ****** ****** ****** ****** ******
      ****** ****** ****** ****** ****** ****** ****** ****** ****** ******
      ****** ****** ****** ****** ****** ****** ****** ****** ****** ******
  16  ****** ****** ****** ****** ****** ****** ****** ****** ****** ******
      ****** ****** ****** ****** ****** ****** ****** ****** ****** ******
      ****** ****** ****** ****** ****** ****** ****** ****** ****** ******
  17  ****** ****** ****** ****** ****** ****** ****** ****** ****** ******
      ****** ****** ****** ****** ****** ****** ****** ****** ****** ******
      ****** ****** ****** ****** ****** ****** ****** ****** ****** ******
  18  ****** ****** ****** ****** ****** ****** ****** ****** ****** ******
      ****** ****** ****** ****** ****** ****** ****** ****** ****** ******
      ****** ****** ****** ****** ****** ****** ****** ****** ****** ******
  19  ****** ****** ****** ****** ****** ****** ****** ****** ****** ******
      ****** ****** ****** ****** ****** ****** ****** ****** ****** ******
      ****** ****** ****** ****** ****** ****** ****** ****** ****** ******
  20  ****** ****** ****** ****** ****** ****** ****** ****** ****** ******
      ****** ****** ****** ****** ****** ****** ****** ****** ****** ******
      ****** ****** ****** ****** ****** ****** ****** ****** ****** ******
  21  ****** ****** ****** ****** ****** ****** ****** ****** ****** ******
      ****** ****** ****** ****** ****** ****** ****** ****** ****** ******
      ****** ****** ****** ****** ****** ****** ****** ****** ****** ******
  22  ****** ****** ****** ****** ****** ****** ****** ****** ****** ******
      ****** ****** ****** ****** ****** ****** ****** ****** ****** ******
      ****** ****** ****** ****** ****** ****** ****** ****** ****** ******
  23  ****** ****** ****** ****** ****** ****** ****** ****** ****** ******
      ****** ****** ****** ****** ****** ****** ****** ****** ****** ******
      ****** ****** ****** ****** ****** ****** ****** ****** ****** ******
  24  ****** ****** ****** ****** ****** ****** ****** ****** ****** ******
      ****** ****** ****** ****** ****** ****** ****** ****** ****** ******
      ****** ****** ****** ****** ****** ****** ****** ****** ****** ******
  25  ****** ****** ****** ****** ****** ****** ****** ****** ****** ******
      ****** ****** ****** ****** ****** ****** ****** ****** ****** ******
      ****** ****** ****** ****** ****** ****** ****** ****** ****** ******

 HEAD WILL BE SAVED ON UNIT   51 AT END OF TIME STEP    1, STRESS PERIOD   11
1
  VOLUMETRIC BUDGET FOR ENTIRE MODEL AT END OF TIME STEP    1, STRESS PERIOD  11
  ------------------------------------------------------------------------------

     CUMULATIVE VOLUMES      L**3       RATES FOR THIS TIME STEP      L**3/T
     ------------------                 ------------------------

           IN:                                      IN:
           ---                                      ---
             STORAGE =    36453926.4191               STORAGE =       18063.6305
       CONSTANT HEAD =    28786626.4736         CONSTANT HEAD =       35178.6780
               WELLS =           0.0000                 WELLS =           0.0000
            RECHARGE =    23901600.0000              RECHARGE =           0.0000
      STREAM LEAKAGE =    10258254.2621        STREAM LEAKAGE =       13547.1088

            TOTAL IN =    99400407.1548              TOTAL IN =       66789.4173

          OUT:                                     OUT:
          ----                                     ----
             STORAGE =     2295037.4523               STORAGE =           0.0000
       CONSTANT HEAD =           0.0000         CONSTANT HEAD =           0.0000
               WELLS =    35797986.2779                 WELLS =       35655.3648
            RECHARGE =           0.0000              RECHARGE =           0.0000
      STREAM LEAKAGE =    61307385.3797        STREAM LEAKAGE =       31134.0575

           TOTAL OUT =    99400409.1099             TOTAL OUT =       66789.4223

            IN - OUT =          -1.9550              IN - OUT =      -4.9304E-03

 PERCENT DISCREPANCY =          -0.00     PERCENT DISCREPANCY =          -0.00






         TIME SUMMARY AT END OF TIME STEP    1 IN STRESS PERIOD   11
                    SECONDS     MINUTES      HOURS       DAYS        YEARS
                    -----------------------------------------------------------
   TIME STEP LENGTH 7.86240E+06 1.31040E+05  2184.0      91.000     0.24914    
 STRESS PERIOD TIME 7.86240E+06 1.31040E+05  2184.0      91.000     0.24914    
         TOTAL TIME 8.67456E+07 1.44576E+06  24096.      1004.0      2.7488    
1
1
                            STRESS PERIOD NO.   12, LENGTH =   91.00000    
                            -----------------------------------------------

                              NUMBER OF TIME STEPS =     1

                               MULTIPLIER FOR DELT =     1.500

                            INITIAL TIME STEP SIZE =   91.00000    

 WELL NO.  LAYER   ROW   COL   STRESS RATE         
 --------------------------------------------------
      1      1     17     24      -1629.    
      2      1      9     25     -0.1155E+05
      3      1      8     20     -0.1367E+05
      4      1     10     13      -8797.    

      4 WELLS

                 RECHARGE =  1.000000E-03

 REUSING STREAM SEGMENT DATA FROM LAST STRESS PERIOD
 
 SOLVING FOR HEAD 


     7 CALLS TO PCG ROUTINE FOR TIME STEP   1 IN STRESS PERIOD   12
    24 TOTAL ITERATIONS

 OUTPUT CONTROL FOR STRESS PERIOD   12   TIME STEP    1
    SAVE BUDGET
    SAVE HEAD FOR ALL LAYERS
    PRINT HEAD FOR ALL LAYERS
 UBDSV2 SAVING "STREAMFLOW OUT  " ON UNIT  50 AT TIME STEP  1, STRESS PERIOD  12



 STREAM LISTING     PERIOD     12   STEP        1

 LAYER ROW COL. STREAM  RCH.  FLOW INTO     FLOW TO   FLOW OUT OF   OVRLND.     DIRECT     STREAM       STREAM     STREAM     STREAM   STREAMBED  STREAMBED
                SEG.NO.  NO.  STRM. RCH.    AQUIFER    STRM. RCH.    RUNOFF     PRECIP       ET          HEAD       DEPTH      WIDTH   CONDCTNC.   GRADIENT

   1   13    1     1     1    1.0000E+05 -1.4583E+03   1.0146E+05  0.000E+00  0.000E+00  0.000E+00  4.84066E+01  1.453E-01  2.000E+01  2.000E+04 -7.292E-02
   1   13    2     1     2    1.0146E+05 -2.3677E+03   1.0383E+05  0.000E+00  0.000E+00  0.000E+00  4.79310E+01  1.469E-01  2.000E+01  2.000E+04 -1.184E-01
   1   14    3     1     3    1.0383E+05 -4.1259E+02   1.0424E+05  0.000E+00  0.000E+00  0.000E+00  4.74549E+01  1.481E-01  2.000E+01  2.000E+04 -2.063E-02
   1   15    4     1     4    1.0424E+05 -3.9636E+02   1.0463E+05  0.000E+00  0.000E+00  0.000E+00  4.69780E+01  1.485E-01  2.000E+01  2.000E+04 -1.982E-02
   1   16    5     1     5    1.0463E+05 -1.6072E+03   1.0624E+05  0.000E+00  0.000E+00  0.000E+00  4.65016E+01  1.493E-01  2.000E+01  2.000E+04 -8.036E-02
   1   16    6     1     6    1.0624E+05 -1.0040E+03   1.0725E+05  0.000E+00  0.000E+00  0.000E+00  4.60254E+01  1.504E-01  2.000E+01  2.000E+04 -5.020E-02
   1   16    7     1     7    1.0725E+05 -9.8114E+02   1.0823E+05  0.000E+00  0.000E+00  0.000E+00  4.55490E+01  1.513E-01  2.000E+01  2.000E+04 -4.906E-02
   1   16    8     1     8    1.0823E+05 -9.7507E+02   1.0920E+05  0.000E+00  0.000E+00  0.000E+00  4.50725E+01  1.521E-01  2.000E+01  2.000E+04 -4.875E-02
   1   16    9     1     9    1.0920E+05 -9.6792E+02   1.1017E+05  0.000E+00  0.000E+00  0.000E+00  4.45961E+01  1.529E-01  2.000E+01  2.000E+04 -4.840E-02
   1   16   10     1    10    1.1017E+05 -9.6026E+02   1.1113E+05  0.000E+00  0.000E+00  0.000E+00  4.41196E+01  1.537E-01  2.000E+01  2.000E+04 -4.801E-02
   1   16   11     1    11    1.1113E+05 -9.6835E+02   1.1210E+05  0.000E+00  0.000E+00  0.000E+00  4.36431E+01  1.545E-01  2.000E+01  2.000E+04 -4.842E-02
   1   16   12     1    12    1.1210E+05 -1.4785E+03   1.1358E+05  0.000E+00  0.000E+00  0.000E+00  4.31669E+01  1.555E-01  2.000E+01  2.000E+04 -7.392E-02
   1   15   13     1    13    1.1358E+05 -8.4125E+02   1.1442E+05  0.000E+00  0.000E+00  0.000E+00  4.26906E+01  1.565E-01  2.000E+01  2.000E+04 -4.206E-02
   1   14   14     1    14    1.1442E+05 -5.6896E+02   1.1499E+05  0.000E+00  0.000E+00  0.000E+00  4.22139E+01  1.571E-01  2.000E+01  2.000E+04 -2.845E-02
   1   13   15     1    15    1.1499E+05 -3.7090E+02   1.1536E+05  0.000E+00  0.000E+00  0.000E+00  4.17370E+01  1.574E-01  2.000E+01  2.000E+04 -1.855E-02
   1   12   16     1    16    1.1536E+05 -2.3090E+02   1.1559E+05  0.000E+00  0.000E+00  0.000E+00  4.12600E+01  1.577E-01  2.000E+01  2.000E+04 -1.154E-02
   1   12   17     1    17    1.1559E+05 -3.9375E+02   1.1598E+05  0.000E+00  0.000E+00  0.000E+00  4.07829E+01  1.579E-01  2.000E+01  2.000E+04 -1.969E-02
   1   12   18     1    18    1.1598E+05 -2.7700E+02   1.1626E+05  0.000E+00  0.000E+00  0.000E+00  4.03060E+01  1.582E-01  2.000E+01  2.000E+04 -1.385E-02
   1   12   19     1    19    1.1626E+05  7.1104E+01   1.1619E+05  0.000E+00  0.000E+00  0.000E+00  3.98288E+01  1.583E-01  2.000E+01  2.000E+04  3.555E-03
   1   13   20     1    20    1.1619E+05 -5.8165E+02   1.1677E+05  0.000E+00  0.000E+00  0.000E+00  3.93517E+01  1.585E-01  2.000E+01  2.000E+04 -2.908E-02
   1   14   21     1    21    1.1677E+05 -1.1124E+03   1.1788E+05  0.000E+00  0.000E+00  0.000E+00  3.88751E+01  1.592E-01  2.000E+01  2.000E+04 -5.562E-02
   1   14   22     1    22    1.1788E+05  5.1306E+03   1.1275E+05  0.000E+00  0.000E+00  0.000E+00  3.83962E+01  1.576E-01  2.000E+01  2.000E+04  2.565E-01
   1    9   30     2     1    5.0000E+04 -1.5408E+02   5.0154E+04  0.000E+00  0.000E+00  0.000E+00  4.02410E+01  1.160E-01  2.000E+01  2.000E+04 -7.704E-03
   1    9   29     2     2    5.0154E+04 -3.6617E+02   5.0520E+04  0.000E+00  0.000E+00  0.000E+00  3.99913E+01  1.163E-01  2.000E+01  2.000E+04 -1.831E-02
   1    9   28     2     3    5.0520E+04 -3.5598E+02   5.0876E+04  0.000E+00  0.000E+00  0.000E+00  3.97418E+01  1.168E-01  2.000E+01  2.000E+04 -1.780E-02
   1    9   27     2     4    5.0876E+04  7.7874E+02   5.0097E+04  0.000E+00  0.000E+00  0.000E+00  3.94915E+01  1.165E-01  2.000E+01  2.000E+04  3.894E-02
   1   10   26     2     5    5.0097E+04  2.4135E+03   4.7684E+04  0.000E+00  0.000E+00  0.000E+00  3.92393E+01  1.143E-01  2.000E+01  2.000E+04  1.207E-01
   1   11   25     2     6    4.7684E+04  1.6262E+03   4.6058E+04  0.000E+00  0.000E+00  0.000E+00  3.89865E+01  1.115E-01  2.000E+01  2.000E+04  8.131E-02
   1   12   24     2     7    4.6058E+04  3.8024E+02   4.5677E+04  0.000E+00  0.000E+00  0.000E+00  3.87350E+01  1.100E-01  2.000E+01  2.000E+04  1.901E-02
   1   13   23     2     8    4.5677E+04 -1.0019E+01   4.5687E+04  0.000E+00  0.000E+00  0.000E+00  3.84848E+01  1.098E-01  2.000E+01  2.000E+04 -5.009E-04
   1   14   22     2     9    4.5687E+04  1.8746E+03   4.3813E+04  0.000E+00  0.000E+00  0.000E+00  3.82334E+01  1.084E-01  2.000E+01  2.000E+04  9.373E-02
   1   14   22     3     1    1.5657E+05 -8.4899E+03   1.6506E+05  0.000E+00  0.000E+00  0.000E+00  3.77152E+01  1.596E-01  2.000E+01  2.000E+04 -4.245E-01
   1   15   23     3     2    1.6506E+05 -4.2378E+02   1.6548E+05  0.000E+00  0.000E+00  0.000E+00  3.68289E+01  1.623E-01  2.000E+01  2.000E+04 -2.119E-02
   1   15   24     3     3    1.6548E+05 -6.2856E+01   1.6554E+05  0.000E+00  0.000E+00  0.000E+00  3.59402E+01  1.624E-01  2.000E+01  2.000E+04 -3.143E-03
   1   15   25     3     4    1.6554E+05 -1.3573E+02   1.6568E+05  0.000E+00  0.000E+00  0.000E+00  3.50514E+01  1.625E-01  2.000E+01  2.000E+04 -6.787E-03
   1   15   26     3     5    1.6568E+05 -2.6688E+02   1.6594E+05  0.000E+00  0.000E+00  0.000E+00  3.41626E+01  1.626E-01  2.000E+01  2.000E+04 -1.334E-02
   1   16   27     3     6    1.6594E+05 -2.6853E+02   1.6621E+05  0.000E+00  0.000E+00  0.000E+00  3.32738E+01  1.627E-01  2.000E+01  2.000E+04 -1.343E-02
   1   17   28     3     7    1.6621E+05 -1.4372E+03   1.6765E+05  0.000E+00  0.000E+00  0.000E+00  3.23855E+01  1.632E-01  2.000E+01  2.000E+04 -7.186E-02
   1   18   29     3     8    1.6765E+05 -2.7685E+03   1.7042E+05  0.000E+00  0.000E+00  0.000E+00  3.14978E+01  1.645E-01  2.000E+01  2.000E+04 -1.384E-01
   1   18   30     3     9    1.7042E+05 -3.1085E+03   1.7353E+05  0.000E+00  0.000E+00  0.000E+00  3.06106E+01  1.662E-01  2.000E+01  2.000E+04 -1.554E-01



1
              HEAD IN LAYER   1 AT END OF TIME STEP   1 IN STRESS PERIOD   12
  ---------------------------------------------------------------------------

          1      2      3      4      5      6      7      8      9     10
         11     12     13     14     15     16     17     18     19     20
         21     22     23     24     25     26     27     28     29     30
 .........................................................................
   1  ****** ****** ****** ****** ****** ****** ****** ****** ****** ******
      ****** ****** ****** ****** ****** ****** ****** ****** ****** ******
      ****** ****** ****** ****** ****** ****** ****** ****** ****** ******
   2  ****** ****** ****** ****** ****** ****** ****** ****** ****** ******
      ****** ****** ****** ****** ****** ****** ****** ****** ****** ******
      ****** ****** ****** ****** ****** ****** ****** ****** ****** ******
   3  ****** ****** ****** ****** ****** ****** ****** ****** ****** ******
      ****** ****** ****** ****** ****** ****** ****** ****** ****** ******
      ****** ****** ****** ****** ****** ****** ****** ****** ****** ******
   4  ****** ****** ****** ****** ****** ****** ****** ****** ****** ******
      ****** ****** ****** ****** ****** ****** ****** ****** ****** ******
      ****** ****** ****** ****** ****** ****** ****** ****** ****** ******
   5  ****** ****** ****** ****** ****** ****** ****** ****** ****** ******
      ****** ****** ****** ****** ****** ****** ****** ****** ****** ******
      ****** ****** ****** ****** ****** ****** ****** ****** ****** ******
   6  ****** ****** ****** ****** ****** ****** ****** ****** ****** ******
      ****** ****** ****** ****** ****** ****** ****** ****** ****** ******
      ****** ****** ****** ****** ****** ****** ****** ****** ****** ******
   7  ****** ****** ****** ****** ****** ****** ****** ****** ****** ******
      ****** ****** ****** ****** ****** ****** ****** ****** ****** ******
      ****** ****** ****** ****** ****** ****** ****** ****** ****** ******
   8  ****** ****** ****** ****** ****** ****** ****** ****** ****** ******
      ****** ****** ****** ****** ****** ****** ****** ****** ****** ******
      ****** ****** ****** ****** ****** ****** ****** ****** ****** ******
   9  ****** ****** ****** ****** ****** ****** ****** ****** ****** ******
      ****** ****** ****** ****** ****** ****** ****** ****** ****** ******
      ****** ****** ****** ****** ****** ****** ****** ****** ****** ******
  10  ****** ****** ****** ****** ****** ****** ****** ****** ****** ******
      ****** ****** ****** ****** ****** ****** ****** ****** ****** ******
      ****** ****** ****** ****** ****** ****** ****** ****** ****** ******
  11  ****** ****** ****** ****** ****** ****** ****** ****** ****** ******
      ****** ****** ****** ****** ****** ****** ****** ****** ****** ******
      ****** ****** ****** ****** ****** ****** ****** ****** ****** ******
  12  ****** ****** ****** ****** ****** ****** ****** ****** ****** ******
      ****** ****** ****** ****** ****** ****** ****** ****** ****** ******
      ****** ****** ****** ****** ****** ****** ****** ****** ****** ******
  13  ****** ****** ****** ****** ****** ****** ****** ****** ****** ******
      ****** ****** ****** ****** ****** ****** ****** ****** ****** ******
      ****** ****** ****** ****** ****** ****** ****** ****** ****** ******
  14  ****** ****** ****** ****** ****** ****** ****** ****** ****** ******
      ****** ****** ****** ****** ****** ****** ****** ****** ****** ******
      ****** ****** ****** ****** ****** ****** ****** ****** ****** ******
  15  ****** ****** ****** ****** ****** ****** ****** ****** ****** ******
      ****** ****** ****** ****** ****** ****** ****** ****** ****** ******
      ****** ****** ****** ****** ****** ****** ****** ****** ****** ******
  16  ****** ****** ****** ****** ****** ****** ****** ****** ****** ******
      ****** ****** ****** ****** ****** ****** ****** ****** ****** ******
      ****** ****** ****** ****** ****** ****** ****** ****** ****** ******
  17  ****** ****** ****** ****** ****** ****** ****** ****** ****** ******
      ****** ****** ****** ****** ****** ****** ****** ****** ****** ******
      ****** ****** ****** ****** ****** ****** ****** ****** ****** ******
  18  ****** ****** ****** ****** ****** ****** ****** ****** ****** ******
      ****** ****** ****** ****** ****** ****** ****** ****** ****** ******
      ****** ****** ****** ****** ****** ****** ****** ****** ****** ******
  19  ****** ****** ****** ****** ****** ****** ****** ****** ****** ******
      ****** ****** ****** ****** ****** ****** ****** ****** ****** ******
      ****** ****** ****** ****** ****** ****** ****** ****** ****** ******
  20  ****** ****** ****** ****** ****** ****** ****** ****** ****** ******
      ****** ****** ****** ****** ****** ****** ****** ****** ****** ******
      ****** ****** ****** ****** ****** ****** ****** ****** ****** ******
  21  ****** ****** ****** ****** ****** ****** ****** ****** ****** ******
      ****** ****** ****** ****** ****** ****** ****** ****** ****** ******
      ****** ****** ****** ****** ****** ****** ****** ****** ****** ******
  22  ****** ****** ****** ****** ****** ****** ****** ****** ****** ******
      ****** ****** ****** ****** ****** ****** ****** ****** ****** ******
      ****** ****** ****** ****** ****** ****** ****** ****** ****** ******
  23  ****** ****** ****** ****** ****** ****** ****** ****** ****** ******
      ****** ****** ****** ****** ****** ****** ****** ****** ****** ******
      ****** ****** ****** ****** ****** ****** ****** ****** ****** ******
  24  ****** ****** ****** ****** ****** ****** ****** ****** ****** ******
      ****** ****** ****** ****** ****** ****** ****** ****** ****** ******
      ****** ****** ****** ****** ****** ****** ****** ****** ****** ******
  25  ****** ****** ****** ****** ****** ****** ****** ****** ****** ******
      ****** ****** ****** ****** ****** ****** ****** ****** ****** ******
      ****** ****** ****** ****** ****** ****** ****** ****** ****** ******

 HEAD WILL BE SAVED ON UNIT   51 AT END OF TIME STEP    1, STRESS PERIOD   12
1
  VOLUMETRIC BUDGET FOR ENTIRE MODEL AT END OF TIME STEP    1, STRESS PERIOD  12
  ------------------------------------------------------------------------------

     CUMULATIVE VOLUMES      L**3       RATES FOR THIS TIME STEP      L**3/T
     ------------------                 ------------------------

           IN:                                      IN:
           ---                                      ---
             STORAGE =    36456743.4539               STORAGE =          30.9564
       CONSTANT HEAD =    31925421.2724         CONSTANT HEAD =       34492.2505
               WELLS =           0.0000                 WELLS =           0.0000
            RECHARGE =    26413200.0000              RECHARGE =       27600.0000
      STREAM LEAKAGE =    11375287.2960        STREAM LEAKAGE =       12275.0883

            TOTAL IN =   106170652.0223              TOTAL IN =       74398.2952

          OUT:                                     OUT:
          ----                                     ----
             STORAGE =     2562637.0012               STORAGE =        2940.6544
       CONSTANT HEAD =           0.0000         CONSTANT HEAD =           0.0000
               WELLS =    39042624.4764                 WELLS =       35655.3648
            RECHARGE =           0.0000              RECHARGE =           0.0000
      STREAM LEAKAGE =    64565392.4190        STREAM LEAKAGE =       35802.2752

           TOTAL OUT =   106170653.8966             TOTAL OUT =       74398.2944

            IN - OUT =          -1.8743              IN - OUT =       8.8749E-04

 PERCENT DISCREPANCY =          -0.00     PERCENT DISCREPANCY =           0.00






         TIME SUMMARY AT END OF TIME STEP    1 IN STRESS PERIOD   12
                    SECONDS     MINUTES      HOURS       DAYS        YEARS
                    -----------------------------------------------------------
   TIME STEP LENGTH 7.86240E+06 1.31040E+05  2184.0      91.000     0.24914    
 STRESS PERIOD TIME 7.86240E+06 1.31040E+05  2184.0      91.000     0.24914    
         TOTAL TIME 9.46080E+07 1.57680E+06  26280.      1095.0      2.9979    
1

 Run end date and time (yyyy/mm/dd hh:mm:ss): 2018/10/10 18:14:52
 Elapsed run time:  0.079 Seconds

