                                  MODFLOW-2005     
      U.S. GEOLOGICAL SURVEY MODULAR FINITE-DIFFERENCE GROUND-WATER FLOW MODEL
                            VERSION 1.11.00 8/8/2013

 LIST FILE: supply2.lst
                         UNIT   10

 OPENING ..\data\supply.dis
 FILE TYPE:DIS   UNIT   11   STATUS:OLD    
 FORMAT:FORMATTED              ACCESS:SEQUENTIAL          

 OPENING ..\data\supply.ba6
 FILE TYPE:BAS6   UNIT   12   STATUS:OLD    
 FORMAT:FORMATTED              ACCESS:SEQUENTIAL          

 OPENING ..\data\supply_het.bc6
 FILE TYPE:BCF6   UNIT   13   STATUS:OLD    
 FORMAT:FORMATTED              ACCESS:SEQUENTIAL          

 OPENING ..\data\supply.rch
 FILE TYPE:RCH   UNIT   15   STATUS:OLD    
 FORMAT:FORMATTED              ACCESS:SEQUENTIAL          

 OPENING ..\data\supply2.sfr
 FILE TYPE:SFR   UNIT   16   STATUS:OLD    
 FORMAT:FORMATTED              ACCESS:SEQUENTIAL          

 OPENING ..\data\supply.oc
 FILE TYPE:OC   UNIT   17   STATUS:OLD    
 FORMAT:FORMATTED              ACCESS:SEQUENTIAL          

 OPENING ..\data\supply.pcg
 FILE TYPE:PCG   UNIT   18   STATUS:OLD    
 FORMAT:FORMATTED              ACCESS:SEQUENTIAL          

 OPENING supply2.wel
 FILE TYPE:WEL   UNIT   19   STATUS:OLD    
 FORMAT:FORMATTED              ACCESS:SEQUENTIAL          

 OPENING supply2sf.cbc
 FILE TYPE:DATA(BINARY)   UNIT   50   STATUS:UNKNOWN
 FORMAT:BINARY                 ACCESS:SEQUENTIAL          

 OPENING supply2hd.bhd
 FILE TYPE:DATA(BINARY)   UNIT   51   STATUS:UNKNOWN
 FORMAT:BINARY                 ACCESS:SEQUENTIAL          

 BAS -- BASIC PACKAGE, VERSION 7, 5/2/2005 INPUT READ FROM UNIT   12
 
 MODFLOW was compiled using uniform precision
 Precision of REAL and DOUBLE PRECISION variables:          15

 DISCRETIZATION INPUT DATA READ FROM UNIT   11
    1 LAYERS        25 ROWS        30 COLUMNS
   12 STRESS PERIOD(S) IN SIMULATION
 MODEL TIME UNIT IS DAYS
 MODEL LENGTH UNIT IS UNDEFINED
  Confining bed flag for each layer:
   0

                     DELR =   200.000    

                     DELC =   200.000    

 TOP ELEVATION OF LAYER 1 =  100.0000    

   MODEL LAYER BOTTOM EL. =   0.00000     FOR LAYER   1


 STRESS PERIOD     LENGTH       TIME STEPS     MULTIPLIER FOR DELT    SS FLAG
 ----------------------------------------------------------------------------
        1         92.00000          1                    1.500         TR
        2         91.00000          1                    1.500         TR
        3         91.00000          1                    1.500         TR
        4         91.00000          1                    1.500         TR
        5         92.00000          1                    1.500         TR
        6         91.00000          1                    1.500         TR
        7         91.00000          1                    1.500         TR
        8         91.00000          1                    1.500         TR
        9         92.00000          1                    1.500         TR
       10         91.00000          1                    1.500         TR
       11         91.00000          1                    1.500         TR
       12         91.00000          1                    1.500         TR

 TRANSIENT SIMULATION



 
 #MODOFC transient water supply sample problem                                   
 #                                                                               
 THE FREE FORMAT OPTION HAS BEEN SELECTED



                     BOUNDARY ARRAY FOR LAYER   1
 READING ON UNIT   12 WITH FORMAT: (20I4)              

 AQUIFER HEAD WILL BE SET TO   0.0000     AT ALL NO-FLOW NODES (IBOUND=0).



                       INITIAL HEAD FOR LAYER   1
 READING ON UNIT   12 WITH FORMAT: (10F13.0)           

 OUTPUT CONTROL IS SPECIFIED ONLY AT TIME STEPS FOR WHICH OUTPUT IS DESIRED
 COMPACT CELL-BY-CELL BUDGET FILES WILL BE WRITTEN
 HEAD PRINT FORMAT CODE IS  18    DRAWDOWN PRINT FORMAT CODE IS   0
 HEADS WILL BE SAVED ON UNIT   51    DRAWDOWNS WILL BE SAVED ON UNIT    0

 BCF -- BLOCK-CENTERED FLOW PACKAGE, VERSION 7, 5/2/2005
         INPUT READ FROM UNIT 13
 TRANSIENT SIMULATION
 HEAD AT CELLS THAT CONVERT TO DRY=   0.0000    
 WETTING CAPABILITY IS NOT ACTIVE
      LAYER  LAYER-TYPE CODE     INTERBLOCK T
      --------------------------------------------
         1            0          0 -- HARMONIC    

 COLUMN TO ROW ANISOTROPY =  1.000000    

     PRIMARY STORAGE COEF =  5.000000E-02 FOR LAYER   1



               TRANSMIS. ALONG ROWS FOR LAYER   1
 READING ON UNIT   13 WITH FORMAT: (FREE)              

 WEL -- WELL PACKAGE, VERSION 7, 5/2/2005 INPUT READ FROM UNIT   19
 # Well package input file written by MMProc
 No named parameters
 MAXIMUM OF      4 ACTIVE WELLS AT ONE TIME


     0 Well parameters

 RCH -- RECHARGE PACKAGE, VERSION 7, 5/2/2005 INPUT READ FROM UNIT   15
 No named parameters
 OPTION 1 -- RECHARGE TO TOP LAYER


     0 Recharge parameters

 SFR7 -- STREAMFLOW ROUTING PACKAGE, VERSION 1.0.7, 2013-01-15
         INPUT READ FROM UNIT  16
 #  Supply2 test problem for GWM-VI
 #  The eighth entry in the first data line is ISTCB2 -
 #    Setting this to a negative number indicates that
 #    streamflows out of the reach will be saved to a
 #    binary file.  The absolute value of ISTCB2 is the
 #    unit to which unformatted flows will be written.
 #
 No named parameters
 Segment information will not be 
 read by reach
 No named parameters
 No specifed inflow files


 NUMBER OF STREAM REACHES IS   40

 NUMBER OF STREAM SEGMENTS IS    3

 NUMBER OF STREAM PARAMETERS IS    0

 NUMBER OF STREAM SEGMENTS DEFINED USING PARAMETERS IS              0

 MAXIMUM ERROR FOR STREAM LEAKAGE RATES IS  1.00E-04

 CONSTANT FOR MANNINGS EQUATION IS  1.2839E+05





   STREAM NETWORK DESCRIPTION: 

   LAYER    ROW    COL   SEGMENT   REACH     LENGTH
                          NUMBER   NUMBER    IN CELL        
   --------------------------------------------------
      1     13      1       1        1    2.0000E+02
      1     13      2       1        2    2.0000E+02
      1     14      3       1        3    2.0000E+02
      1     15      4       1        4    2.0000E+02
      1     16      5       1        5    2.0000E+02
      1     16      6       1        6    2.0000E+02
      1     16      7       1        7    2.0000E+02
      1     16      8       1        8    2.0000E+02
      1     16      9       1        9    2.0000E+02
      1     16     10       1       10    2.0000E+02
      1     16     11       1       11    2.0000E+02
      1     16     12       1       12    2.0000E+02
      1     15     13       1       13    2.0000E+02
      1     14     14       1       14    2.0000E+02
      1     13     15       1       15    2.0000E+02
      1     12     16       1       16    2.0000E+02
      1     12     17       1       17    2.0000E+02
      1     12     18       1       18    2.0000E+02
      1     12     19       1       19    2.0000E+02
      1     13     20       1       20    2.0000E+02
      1     14     21       1       21    2.0000E+02
      1     14     22       1       22    2.0000E+02
      1      9     30       2        1    2.0000E+02
      1      9     29       2        2    2.0000E+02
      1      9     28       2        3    2.0000E+02
      1      9     27       2        4    2.0000E+02
      1     10     26       2        5    2.0000E+02
      1     11     25       2        6    2.0000E+02
      1     12     24       2        7    2.0000E+02
      1     13     23       2        8    2.0000E+02
      1     14     22       2        9    2.0000E+02
      1     14     22       3        1    2.0000E+02
      1     15     23       3        2    2.0000E+02
      1     15     24       3        3    2.0000E+02
      1     15     25       3        4    2.0000E+02
      1     15     26       3        5    2.0000E+02
      1     16     27       3        6    2.0000E+02
      1     17     28       3        7    2.0000E+02
      1     18     29       3        8    2.0000E+02
      1     18     30       3        9    2.0000E+02




 PCG -- CONJUGATE-GRADIENT SOLUTION PACKAGE, VERSION 7, 5/2/2005
 MAXIMUM OF    500 CALLS OF SOLUTION ROUTINE
 MAXIMUM OF      5 INTERNAL ITERATIONS PER CALL TO SOLUTION ROUTINE
 MATRIX PRECONDITIONING TYPE :    1



                                    SOLUTION BY THE CONJUGATE-GRADIENT METHOD
                                   -------------------------------------------
                    MAXIMUM NUMBER OF CALLS TO PCG ROUTINE =      500
                        MAXIMUM ITERATIONS PER CALL TO PCG =        5
                               MATRIX PRECONDITIONING TYPE =        1
        RELAXATION FACTOR (ONLY USED WITH PRECOND. TYPE 1) =    0.10000E+01
 PARAMETER OF POLYNOMIAL PRECOND. = 2 (2) OR IS CALCULATED :        0
                         HEAD CHANGE CRITERION FOR CLOSURE =    0.10000E-05
                     RESIDUAL CHANGE CRITERION FOR CLOSURE =    0.10000E+01
            PCG HEAD AND RESIDUAL CHANGE PRINTOUT INTERVAL =        1
     PRINTING FROM SOLVER IS LIMITED(1) OR SUPPRESSED (>1) =        1
                            STEADY-STATE DAMPING PARAMETER =    0.10000E+01
                               TRANSIENT DAMPING PARAMETER =    0.10000E+01
1
                            STRESS PERIOD NO.    1, LENGTH =   92.00000    
                            -----------------------------------------------

                              NUMBER OF TIME STEPS =     1

                               MULTIPLIER FOR DELT =     1.500

                            INITIAL TIME STEP SIZE =   92.00000    

 WELL NO.  LAYER   ROW   COL   STRESS RATE         
 --------------------------------------------------
      1      1     18     15      -8387.    
      2      1     17     18      -8258.    
      3      1     14     29     -0.1305E+05
      4      1     19     28      -9288.    

      4 WELLS

                 RECHARGE =  5.000000E-04



 CLASSIFICATION & COUNT OF STREAM SEGMENTS BASED ON SOURCE OF INFLOW:

                HEADWATER     DIVERSION     RECEIVES TRIBUTARY FLOW
                ---------     ---------     -----------------------
                     2              0               1



                    INPUT DATA FOR EACH STREAM SEGMENT
 ---------------------------------------------------------------------------------------------

 SEGMENT    SEG.     INFLOW   OVERLAND   STREAM    STREAM   ICALC  OUTFLOW  DIVERSION PRIORITY
    NO.    LENGTH     RATE     RUNOFF      ET       PPT.    METH.  TO SEG.  FROM SEG.    NO.

      1  4.400E+03 1.000E+05 0.000E+00 0.000E+00 0.000E+00    1        3        0        0
      2  1.800E+03 5.000E+04 0.000E+00 0.000E+00 0.000E+00    1        3        0        0
      3  1.800E+03 0.000E+00 0.000E+00 0.000E+00 0.000E+00    1        0        0        0


         STREAMBED PROPERTIES AND STREAM DIMENSIONS

 SEGMENT     BED HYD. COND.      BED THICKNESS     ELEV.-TOP OF BED     WIDTH OF STREAM     DEPTH OF STREAM    STREAM ROUGHNESS
    No.     UPPER     LOWER     UPPER     LOWER     UPPER     LOWER     UPPER     LOWER     UPPER     LOWER   CHANNEL      BANK

     1  5.000E+00 5.000E+00 1.000E+00 1.000E+00 4.850E+01 3.800E+01 2.000E+01 2.000E+01                     5.000E-02
     2  5.000E+00 5.000E+00 1.000E+00 1.000E+00 4.025E+01 3.800E+01 2.000E+01 2.000E+01                     5.000E-02
     3  5.000E+00 5.000E+00 1.000E+00 1.000E+00 3.800E+01 3.000E+01 2.000E+01 2.000E+01                     5.000E-02



 
 SOLVING FOR HEAD 


     9 CALLS TO PCG ROUTINE FOR TIME STEP   1 IN STRESS PERIOD    1
    36 TOTAL ITERATIONS

 OUTPUT CONTROL FOR STRESS PERIOD    1   TIME STEP    1
    SAVE BUDGET
    SAVE HEAD FOR ALL LAYERS
    PRINT HEAD FOR ALL LAYERS
 UBDSV2 SAVING "STREAMFLOW OUT  " ON UNIT  50 AT TIME STEP  1, STRESS PERIOD   1



 STREAM LISTING     PERIOD      1   STEP        1

 LAYER ROW COL. STREAM  RCH.  FLOW INTO     FLOW TO   FLOW OUT OF   OVRLND.     DIRECT     STREAM       STREAM     STREAM     STREAM   STREAMBED  STREAMBED
                SEG.NO.  NO.  STRM. RCH.    AQUIFER    STRM. RCH.    RUNOFF     PRECIP       ET          HEAD       DEPTH      WIDTH   CONDCTNC.   GRADIENT

   1   13    1     1     1    1.0000E+05 -6.1189E+03   1.0612E+05  0.000E+00  0.000E+00  0.000E+00  4.84087E+01  1.473E-01  2.000E+01  2.000E+04 -3.059E-01
   1   13    2     1     2    1.0612E+05 -7.5889E+03   1.1371E+05  0.000E+00  0.000E+00  0.000E+00  4.79372E+01  1.531E-01  2.000E+01  2.000E+04 -3.794E-01
   1   14    3     1     3    1.1371E+05 -2.1971E+03   1.1590E+05  0.000E+00  0.000E+00  0.000E+00  4.74640E+01  1.571E-01  2.000E+01  2.000E+04 -1.099E-01
   1   15    4     1     4    1.1590E+05 -2.2664E+03   1.1817E+05  0.000E+00  0.000E+00  0.000E+00  4.69885E+01  1.590E-01  2.000E+01  2.000E+04 -1.133E-01
   1   16    5     1     5    1.1817E+05 -7.1382E+03   1.2531E+05  0.000E+00  0.000E+00  0.000E+00  4.65150E+01  1.628E-01  2.000E+01  2.000E+04 -3.569E-01
   1   16    6     1     6    1.2531E+05 -4.2617E+03   1.2957E+05  0.000E+00  0.000E+00  0.000E+00  4.60423E+01  1.673E-01  2.000E+01  2.000E+04 -2.131E-01
   1   16    7     1     7    1.2957E+05 -4.0802E+03   1.3365E+05  0.000E+00  0.000E+00  0.000E+00  4.55683E+01  1.706E-01  2.000E+01  2.000E+04 -2.040E-01
   1   16    8     1     8    1.3365E+05 -4.0127E+03   1.3766E+05  0.000E+00  0.000E+00  0.000E+00  4.50942E+01  1.737E-01  2.000E+01  2.000E+04 -2.006E-01
   1   16    9     1     9    1.3766E+05 -3.9588E+03   1.4162E+05  0.000E+00  0.000E+00  0.000E+00  4.46199E+01  1.767E-01  2.000E+01  2.000E+04 -1.979E-01
   1   16   10     1    10    1.4162E+05 -3.8832E+03   1.4551E+05  0.000E+00  0.000E+00  0.000E+00  4.41456E+01  1.797E-01  2.000E+01  2.000E+04 -1.942E-01
   1   16   11     1    11    1.4551E+05 -3.7764E+03   1.4928E+05  0.000E+00  0.000E+00  0.000E+00  4.36712E+01  1.826E-01  2.000E+01  2.000E+04 -1.888E-01
   1   16   12     1    12    1.4928E+05 -5.9049E+03   1.5519E+05  0.000E+00  0.000E+00  0.000E+00  4.31975E+01  1.861E-01  2.000E+01  2.000E+04 -2.952E-01
   1   15   13     1    13    1.5519E+05 -6.2669E+03   1.6145E+05  0.000E+00  0.000E+00  0.000E+00  4.27247E+01  1.906E-01  2.000E+01  2.000E+04 -3.133E-01
   1   14   14     1    14    1.6145E+05 -6.9308E+03   1.6839E+05  0.000E+00  0.000E+00  0.000E+00  4.22521E+01  1.953E-01  2.000E+01  2.000E+04 -3.465E-01
   1   13   15     1    15    1.6839E+05 -7.5555E+03   1.7594E+05  0.000E+00  0.000E+00  0.000E+00  4.17799E+01  2.004E-01  2.000E+01  2.000E+04 -3.778E-01
   1   12   16     1    16    1.7594E+05 -8.6284E+03   1.8457E+05  0.000E+00  0.000E+00  0.000E+00  4.13083E+01  2.060E-01  2.000E+01  2.000E+04 -4.314E-01
   1   12   17     1    17    1.8457E+05 -5.9754E+03   1.9054E+05  0.000E+00  0.000E+00  0.000E+00  4.08360E+01  2.110E-01  2.000E+01  2.000E+04 -2.988E-01
   1   12   18     1    18    1.9054E+05 -5.8203E+03   1.9636E+05  0.000E+00  0.000E+00  0.000E+00  4.03626E+01  2.149E-01  2.000E+01  2.000E+04 -2.910E-01
   1   12   19     1    19    1.9636E+05 -7.5155E+03   2.0388E+05  0.000E+00  0.000E+00  0.000E+00  3.98898E+01  2.193E-01  2.000E+01  2.000E+04 -3.758E-01
   1   13   20     1    20    2.0388E+05 -6.2403E+03   2.1012E+05  0.000E+00  0.000E+00  0.000E+00  3.94170E+01  2.238E-01  2.000E+01  2.000E+04 -3.120E-01
   1   14   21     1    21    2.1012E+05 -5.5275E+03   2.1565E+05  0.000E+00  0.000E+00  0.000E+00  3.89435E+01  2.276E-01  2.000E+01  2.000E+04 -2.764E-01
   1   14   22     1    22    2.1565E+05  3.7892E+03   2.1186E+05  0.000E+00  0.000E+00  0.000E+00  3.84668E+01  2.282E-01  2.000E+01  2.000E+04  1.895E-01
   1    9   30     2     1    5.0000E+04 -4.0218E+03   5.4022E+04  0.000E+00  0.000E+00  0.000E+00  4.02436E+01  1.186E-01  2.000E+01  2.000E+04 -2.011E-01
   1    9   29     2     2    5.4022E+04 -4.3882E+03   5.8410E+04  0.000E+00  0.000E+00  0.000E+00  3.99993E+01  1.243E-01  2.000E+01  2.000E+04 -2.194E-01
   1    9   28     2     3    5.8410E+04 -4.8360E+03   6.3246E+04  0.000E+00  0.000E+00  0.000E+00  3.97553E+01  1.303E-01  2.000E+01  2.000E+04 -2.418E-01
   1    9   27     2     4    6.3246E+04 -7.9422E+03   7.1188E+04  0.000E+00  0.000E+00  0.000E+00  3.95134E+01  1.384E-01  2.000E+01  2.000E+04 -3.971E-01
   1   10   26     2     5    7.1188E+04 -6.6559E+03   7.7844E+04  0.000E+00  0.000E+00  0.000E+00  3.92722E+01  1.472E-01  2.000E+01  2.000E+04 -3.328E-01
   1   11   25     2     6    7.7844E+04 -6.2534E+03   8.4098E+04  0.000E+00  0.000E+00  0.000E+00  3.90297E+01  1.547E-01  2.000E+01  2.000E+04 -3.127E-01
   1   12   24     2     7    8.4098E+04 -6.0970E+03   9.0195E+04  0.000E+00  0.000E+00  0.000E+00  3.87867E+01  1.617E-01  2.000E+01  2.000E+04 -3.049E-01
   1   13   23     2     8    9.0195E+04 -1.6460E+03   9.1841E+04  0.000E+00  0.000E+00  0.000E+00  3.85410E+01  1.660E-01  2.000E+01  2.000E+04 -8.230E-02
   1   14   22     2     9    9.1841E+04  2.8728E+02   9.1553E+04  0.000E+00  0.000E+00  0.000E+00  3.82917E+01  1.667E-01  2.000E+01  2.000E+04  1.436E-02
   1   14   22     3     1    3.0341E+05 -9.7187E+03   3.1313E+05  0.000E+00  0.000E+00  0.000E+00  3.77914E+01  2.359E-01  2.000E+01  2.000E+04 -4.859E-01
   1   15   23     3     2    3.1313E+05 -1.8644E+03   3.1500E+05  0.000E+00  0.000E+00  0.000E+00  3.69052E+01  2.385E-01  2.000E+01  2.000E+04 -9.322E-02
   1   15   24     3     3    3.1500E+05 -1.4981E+03   3.1649E+05  0.000E+00  0.000E+00  0.000E+00  3.60171E+01  2.393E-01  2.000E+01  2.000E+04 -7.490E-02
   1   15   25     3     4    3.1649E+05 -1.5354E+03   3.1803E+05  0.000E+00  0.000E+00  0.000E+00  3.51289E+01  2.400E-01  2.000E+01  2.000E+04 -7.677E-02
   1   15   26     3     5    3.1803E+05 -1.6124E+03   3.1964E+05  0.000E+00  0.000E+00  0.000E+00  3.42407E+01  2.407E-01  2.000E+01  2.000E+04 -8.062E-02
   1   16   27     3     6    3.1964E+05 -1.5974E+03   3.2124E+05  0.000E+00  0.000E+00  0.000E+00  3.33525E+01  2.414E-01  2.000E+01  2.000E+04 -7.987E-02
   1   17   28     3     7    3.2124E+05 -2.2943E+03   3.2353E+05  0.000E+00  0.000E+00  0.000E+00  3.24645E+01  2.423E-01  2.000E+01  2.000E+04 -1.147E-01
   1   18   29     3     8    3.2353E+05 -3.6847E+03   3.2722E+05  0.000E+00  0.000E+00  0.000E+00  3.15770E+01  2.436E-01  2.000E+01  2.000E+04 -1.842E-01
   1   18   30     3     9    3.2722E+05 -4.8786E+03   3.3210E+05  0.000E+00  0.000E+00  0.000E+00  3.06900E+01  2.455E-01  2.000E+01  2.000E+04 -2.439E-01



1
              HEAD IN LAYER   1 AT END OF TIME STEP   1 IN STRESS PERIOD    1
  ---------------------------------------------------------------------------

          1      2      3      4      5      6      7      8      9     10
         11     12     13     14     15     16     17     18     19     20
         21     22     23     24     25     26     27     28     29     30
 .........................................................................
   1  ****** ****** ****** ****** ****** ****** ****** ****** ****** ******
      ****** ****** ****** ****** ****** ****** ****** ****** ****** ******
      ****** ****** ****** ****** ****** ****** ****** ****** ****** ******
   2  ****** ****** ****** ****** ****** ****** ****** ****** ****** ******
      ****** ****** ****** ****** ****** ****** ****** ****** ****** ******
      ****** ****** ****** ****** ****** ****** ****** ****** ****** ******
   3  ****** ****** ****** ****** ****** ****** ****** ****** ****** ******
      ****** ****** ****** ****** ****** ****** ****** ****** ****** ******
      ****** ****** ****** ****** ****** ****** ****** ****** ****** ******
   4  ****** ****** ****** ****** ****** ****** ****** ****** ****** ******
      ****** ****** ****** ****** ****** ****** ****** ****** ****** ******
      ****** ****** ****** ****** ****** ****** ****** ****** ****** ******
   5  ****** ****** ****** ****** ****** ****** ****** ****** ****** ******
      ****** ****** ****** ****** ****** ****** ****** ****** ****** ******
      ****** ****** ****** ****** ****** ****** ****** ****** ****** ******
   6  ****** ****** ****** ****** ****** ****** ****** ****** ****** ******
      ****** ****** ****** ****** ****** ****** ****** ****** ****** ******
      ****** ****** ****** ****** ****** ****** ****** ****** ****** ******
   7  ****** ****** ****** ****** ****** ****** ****** ****** ****** ******
      ****** ****** ****** ****** ****** ****** ****** ****** ****** ******
      ****** ****** ****** ****** ****** ****** ****** ****** ****** ******
   8  ****** ****** ****** ****** ****** ****** ****** ****** ****** ******
      ****** ****** ****** ****** ****** ****** ****** ****** ****** ******
      ****** ****** ****** ****** ****** ****** ****** ****** ****** ******
   9  ****** ****** ****** ****** ****** ****** ****** ****** ****** ******
      ****** ****** ****** ****** ****** ****** ****** ****** ****** ******
      ****** ****** ****** ****** ****** ****** ****** ****** ****** ******
  10  ****** ****** ****** ****** ****** ****** ****** ****** ****** ******
      ****** ****** ****** ****** ****** ****** ****** ****** ****** ******
      ****** ****** ****** ****** ****** ****** ****** ****** ****** ******
  11  ****** ****** ****** ****** ****** ****** ****** ****** ****** ******
      ****** ****** ****** ****** ****** ****** ****** ****** ****** ******
      ****** ****** ****** ****** ****** ****** ****** ****** ****** ******
  12  ****** ****** ****** ****** ****** ****** ****** ****** ****** ******
      ****** ****** ****** ****** ****** ****** ****** ****** ****** ******
      ****** ****** ****** ****** ****** ****** ****** ****** ****** ******
  13  ****** ****** ****** ****** ****** ****** ****** ****** ****** ******
      ****** ****** ****** ****** ****** ****** ****** ****** ****** ******
      ****** ****** ****** ****** ****** ****** ****** ****** ****** ******
  14  ****** ****** ****** ****** ****** ****** ****** ****** ****** ******
      ****** ****** ****** ****** ****** ****** ****** ****** ****** ******
      ****** ****** ****** ****** ****** ****** ****** ****** ****** ******
  15  ****** ****** ****** ****** ****** ****** ****** ****** ****** ******
      ****** ****** ****** ****** ****** ****** ****** ****** ****** ******
      ****** ****** ****** ****** ****** ****** ****** ****** ****** ******
  16  ****** ****** ****** ****** ****** ****** ****** ****** ****** ******
      ****** ****** ****** ****** ****** ****** ****** ****** ****** ******
      ****** ****** ****** ****** ****** ****** ****** ****** ****** ******
  17  ****** ****** ****** ****** ****** ****** ****** ****** ****** ******
      ****** ****** ****** ****** ****** ****** ****** ****** ****** ******
      ****** ****** ****** ****** ****** ****** ****** ****** ****** ******
  18  ****** ****** ****** ****** ****** ****** ****** ****** ****** ******
      ****** ****** ****** ****** ****** ****** ****** ****** ****** ******
      ****** ****** ****** ****** ****** ****** ****** ****** ****** ******
  19  ****** ****** ****** ****** ****** ****** ****** ****** ****** ******
      ****** ****** ****** ****** ****** ****** ****** ****** ****** ******
      ****** ****** ****** ****** ****** ****** ****** ****** ****** ******
  20  ****** ****** ****** ****** ****** ****** ****** ****** ****** ******
      ****** ****** ****** ****** ****** ****** ****** ****** ****** ******
      ****** ****** ****** ****** ****** ****** ****** ****** ****** ******
  21  ****** ****** ****** ****** ****** ****** ****** ****** ****** ******
      ****** ****** ****** ****** ****** ****** ****** ****** ****** ******
      ****** ****** ****** ****** ****** ****** ****** ****** ****** ******
  22  ****** ****** ****** ****** ****** ****** ****** ****** ****** ******
      ****** ****** ****** ****** ****** ****** ****** ****** ****** ******
      ****** ****** ****** ****** ****** ****** ****** ****** ****** ******
  23  ****** ****** ****** ****** ****** ****** ****** ****** ****** ******
      ****** ****** ****** ****** ****** ****** ****** ****** ****** ******
      ****** ****** ****** ****** ****** ****** ****** ****** ****** ******
  24  ****** ****** ****** ****** ****** ****** ****** ****** ****** ******
      ****** ****** ****** ****** ****** ****** ****** ****** ****** ******
      ****** ****** ****** ****** ****** ****** ****** ****** ****** ******
  25  ****** ****** ****** ****** ****** ****** ****** ****** ****** ******
      ****** ****** ****** ****** ****** ****** ****** ****** ****** ******
      ****** ****** ****** ****** ****** ****** ****** ****** ****** ******

 HEAD WILL BE SAVED ON UNIT   51 AT END OF TIME STEP    1, STRESS PERIOD    1
1
  VOLUMETRIC BUDGET FOR ENTIRE MODEL AT END OF TIME STEP    1, STRESS PERIOD   1
  ------------------------------------------------------------------------------

     CUMULATIVE VOLUMES      L**3       RATES FOR THIS TIME STEP      L**3/T
     ------------------                 ------------------------

           IN:                                      IN:
           ---                                      ---
             STORAGE =    17919951.0882               STORAGE =      194782.0770
       CONSTANT HEAD =     1149747.7297         CONSTANT HEAD =       12497.2579
               WELLS =           0.0000                 WELLS =           0.0000
            RECHARGE =     1269600.0000              RECHARGE =       13800.0000
      STREAM LEAKAGE =      375033.7156        STREAM LEAKAGE =        4076.4534

            TOTAL IN =    20714332.5335              TOTAL IN =      225155.7884

          OUT:                                     OUT:
          ----                                     ----
             STORAGE =           0.0000               STORAGE =           0.0000
       CONSTANT HEAD =           0.0000         CONSTANT HEAD =           0.0000
               WELLS =     3586439.5372                 WELLS =       38983.0384
            RECHARGE =           0.0000              RECHARGE =           0.0000
      STREAM LEAKAGE =    17127893.2833        STREAM LEAKAGE =      186172.7531

           TOTAL OUT =    20714332.8205             TOTAL OUT =      225155.7915

            IN - OUT =          -0.2870              IN - OUT =      -3.1192E-03

 PERCENT DISCREPANCY =          -0.00     PERCENT DISCREPANCY =          -0.00






         TIME SUMMARY AT END OF TIME STEP    1 IN STRESS PERIOD    1
                    SECONDS     MINUTES      HOURS       DAYS        YEARS
                    -----------------------------------------------------------
   TIME STEP LENGTH 7.94880E+06 1.32480E+05  2208.0      92.000     0.25188    
 STRESS PERIOD TIME 7.94880E+06 1.32480E+05  2208.0      92.000     0.25188    
         TOTAL TIME 7.94880E+06 1.32480E+05  2208.0      92.000     0.25188    
1
1
                            STRESS PERIOD NO.    2, LENGTH =   91.00000    
                            -----------------------------------------------

                              NUMBER OF TIME STEPS =     1

                               MULTIPLIER FOR DELT =     1.500

                            INITIAL TIME STEP SIZE =   91.00000    

 WELL NO.  LAYER   ROW   COL   STRESS RATE         
 --------------------------------------------------
      1      1     18     15      -8387.    
      2      1     17     18      -8258.    
      3      1     14     29     -0.1305E+05
      4      1     19     28      -9288.    

      4 WELLS

                 RECHARGE =  2.000000E-03

 REUSING STREAM SEGMENT DATA FROM LAST STRESS PERIOD
 
 SOLVING FOR HEAD 


     7 CALLS TO PCG ROUTINE FOR TIME STEP   1 IN STRESS PERIOD    2
    27 TOTAL ITERATIONS

 OUTPUT CONTROL FOR STRESS PERIOD    2   TIME STEP    1
    SAVE BUDGET
    SAVE HEAD FOR ALL LAYERS
    PRINT HEAD FOR ALL LAYERS
 UBDSV2 SAVING "STREAMFLOW OUT  " ON UNIT  50 AT TIME STEP  1, STRESS PERIOD   2



 STREAM LISTING     PERIOD      2   STEP        1

 LAYER ROW COL. STREAM  RCH.  FLOW INTO     FLOW TO   FLOW OUT OF   OVRLND.     DIRECT     STREAM       STREAM     STREAM     STREAM   STREAMBED  STREAMBED
                SEG.NO.  NO.  STRM. RCH.    AQUIFER    STRM. RCH.    RUNOFF     PRECIP       ET          HEAD       DEPTH      WIDTH   CONDCTNC.   GRADIENT

   1   13    1     1     1    1.0000E+05 -4.0024E+03   1.0400E+05  0.000E+00  0.000E+00  0.000E+00  4.84077E+01  1.464E-01  2.000E+01  2.000E+04 -2.001E-01
   1   13    2     1     2    1.0400E+05 -5.2657E+03   1.0927E+05  0.000E+00  0.000E+00  0.000E+00  4.79344E+01  1.503E-01  2.000E+01  2.000E+04 -2.633E-01
   1   14    3     1     3    1.0927E+05 -1.1121E+03   1.1038E+05  0.000E+00  0.000E+00  0.000E+00  4.74598E+01  1.530E-01  2.000E+01  2.000E+04 -5.561E-02
   1   15    4     1     4    1.1038E+05 -1.1355E+03   1.1152E+05  0.000E+00  0.000E+00  0.000E+00  4.69835E+01  1.540E-01  2.000E+01  2.000E+04 -5.677E-02
   1   16    5     1     5    1.1152E+05 -4.1560E+03   1.1567E+05  0.000E+00  0.000E+00  0.000E+00  4.65084E+01  1.561E-01  2.000E+01  2.000E+04 -2.078E-01
   1   16    6     1     6    1.1567E+05 -2.4274E+03   1.1810E+05  0.000E+00  0.000E+00  0.000E+00  4.60338E+01  1.588E-01  2.000E+01  2.000E+04 -1.214E-01
   1   16    7     1     7    1.1810E+05 -2.3078E+03   1.2041E+05  0.000E+00  0.000E+00  0.000E+00  4.55585E+01  1.608E-01  2.000E+01  2.000E+04 -1.154E-01
   1   16    8     1     8    1.2041E+05 -2.2379E+03   1.2264E+05  0.000E+00  0.000E+00  0.000E+00  4.50831E+01  1.626E-01  2.000E+01  2.000E+04 -1.119E-01
   1   16    9     1     9    1.2264E+05 -2.1540E+03   1.2480E+05  0.000E+00  0.000E+00  0.000E+00  4.46075E+01  1.644E-01  2.000E+01  2.000E+04 -1.077E-01
   1   16   10     1    10    1.2480E+05 -2.0279E+03   1.2683E+05  0.000E+00  0.000E+00  0.000E+00  4.41319E+01  1.660E-01  2.000E+01  2.000E+04 -1.014E-01
   1   16   11     1    11    1.2683E+05 -1.8445E+03   1.2867E+05  0.000E+00  0.000E+00  0.000E+00  4.36562E+01  1.675E-01  2.000E+01  2.000E+04 -9.223E-02
   1   16   12     1    12    1.2867E+05 -2.6419E+03   1.3131E+05  0.000E+00  0.000E+00  0.000E+00  4.31807E+01  1.693E-01  2.000E+01  2.000E+04 -1.321E-01
   1   15   13     1    13    1.3131E+05 -2.7240E+03   1.3404E+05  0.000E+00  0.000E+00  0.000E+00  4.27055E+01  1.714E-01  2.000E+01  2.000E+04 -1.362E-01
   1   14   14     1    14    1.3404E+05 -3.3309E+03   1.3737E+05  0.000E+00  0.000E+00  0.000E+00  4.22305E+01  1.737E-01  2.000E+01  2.000E+04 -1.665E-01
   1   13   15     1    15    1.3737E+05 -4.0525E+03   1.4142E+05  0.000E+00  0.000E+00  0.000E+00  4.17561E+01  1.766E-01  2.000E+01  2.000E+04 -2.026E-01
   1   12   16     1    16    1.4142E+05 -5.4797E+03   1.4690E+05  0.000E+00  0.000E+00  0.000E+00  4.12824E+01  1.801E-01  2.000E+01  2.000E+04 -2.740E-01
   1   12   17     1    17    1.4690E+05 -3.4163E+03   1.5032E+05  0.000E+00  0.000E+00  0.000E+00  4.08085E+01  1.835E-01  2.000E+01  2.000E+04 -1.708E-01
   1   12   18     1    18    1.5032E+05 -3.2552E+03   1.5357E+05  0.000E+00  0.000E+00  0.000E+00  4.03337E+01  1.859E-01  2.000E+01  2.000E+04 -1.628E-01
   1   12   19     1    19    1.5357E+05 -4.3870E+03   1.5796E+05  0.000E+00  0.000E+00  0.000E+00  3.98592E+01  1.887E-01  2.000E+01  2.000E+04 -2.194E-01
   1   13   20     1    20    1.5796E+05 -2.9503E+03   1.6091E+05  0.000E+00  0.000E+00  0.000E+00  3.93846E+01  1.914E-01  2.000E+01  2.000E+04 -1.475E-01
   1   14   21     1    21    1.6091E+05 -2.4528E+03   1.6336E+05  0.000E+00  0.000E+00  0.000E+00  3.89092E+01  1.933E-01  2.000E+01  2.000E+04 -1.226E-01
   1   14   22     1    22    1.6336E+05  4.6087E+03   1.5875E+05  0.000E+00  0.000E+00  0.000E+00  3.84312E+01  1.925E-01  2.000E+01  2.000E+04  2.304E-01
   1    9   30     2     1    5.0000E+04 -1.0633E+03   5.1063E+04  0.000E+00  0.000E+00  0.000E+00  4.02416E+01  1.166E-01  2.000E+01  2.000E+04 -5.317E-02
   1    9   29     2     2    5.1063E+04 -1.4665E+03   5.2530E+04  0.000E+00  0.000E+00  0.000E+00  3.99933E+01  1.183E-01  2.000E+01  2.000E+04 -7.332E-02
   1    9   28     2     3    5.2530E+04 -1.9813E+03   5.4511E+04  0.000E+00  0.000E+00  0.000E+00  3.97457E+01  1.207E-01  2.000E+01  2.000E+04 -9.906E-02
   1    9   27     2     4    5.4511E+04 -4.4140E+03   5.8925E+04  0.000E+00  0.000E+00  0.000E+00  3.95000E+01  1.250E-01  2.000E+01  2.000E+04 -2.207E-01
   1   10   26     2     5    5.8925E+04 -2.8756E+03   6.1801E+04  0.000E+00  0.000E+00  0.000E+00  3.92547E+01  1.297E-01  2.000E+01  2.000E+04 -1.438E-01
   1   11   25     2     6    6.1801E+04 -2.6657E+03   6.4466E+04  0.000E+00  0.000E+00  0.000E+00  3.90083E+01  1.333E-01  2.000E+01  2.000E+04 -1.333E-01
   1   12   24     2     7    6.4466E+04 -2.9730E+03   6.7439E+04  0.000E+00  0.000E+00  0.000E+00  3.87618E+01  1.368E-01  2.000E+01  2.000E+04 -1.486E-01
   1   13   23     2     8    6.7439E+04 -6.0502E+02   6.8044E+04  0.000E+00  0.000E+00  0.000E+00  3.85140E+01  1.390E-01  2.000E+01  2.000E+04 -3.025E-02
   1   14   22     2     9    6.8044E+04  1.2576E+03   6.6787E+04  0.000E+00  0.000E+00  0.000E+00  3.82636E+01  1.386E-01  2.000E+01  2.000E+04  6.288E-02
   1   14   22     3     1    2.2554E+05 -8.9465E+03   2.3449E+05  0.000E+00  0.000E+00  0.000E+00  3.77534E+01  1.979E-01  2.000E+01  2.000E+04 -4.473E-01
   1   15   23     3     2    2.3449E+05 -8.5397E+02   2.3534E+05  0.000E+00  0.000E+00  0.000E+00  3.68670E+01  2.004E-01  2.000E+01  2.000E+04 -4.270E-02
   1   15   24     3     3    2.3534E+05 -6.0331E+02   2.3594E+05  0.000E+00  0.000E+00  0.000E+00  3.59785E+01  2.007E-01  2.000E+01  2.000E+04 -3.017E-02
   1   15   25     3     4    2.3594E+05 -5.9195E+02   2.3654E+05  0.000E+00  0.000E+00  0.000E+00  3.50899E+01  2.011E-01  2.000E+01  2.000E+04 -2.960E-02
   1   15   26     3     5    2.3654E+05 -3.9339E+02   2.3693E+05  0.000E+00  0.000E+00  0.000E+00  3.42013E+01  2.013E-01  2.000E+01  2.000E+04 -1.967E-02
   1   16   27     3     6    2.3693E+05 -1.6609E+02   2.3710E+05  0.000E+00  0.000E+00  0.000E+00  3.33126E+01  2.014E-01  2.000E+01  2.000E+04 -8.304E-03
   1   17   28     3     7    2.3710E+05  1.8662E+03   2.3523E+05  0.000E+00  0.000E+00  0.000E+00  3.24232E+01  2.010E-01  2.000E+01  2.000E+04  9.331E-02
   1   18   29     3     8    2.3523E+05 -3.2271E+00   2.3523E+05  0.000E+00  0.000E+00  0.000E+00  3.15339E+01  2.005E-01  2.000E+01  2.000E+04 -1.614E-04
   1   18   30     3     9    2.3523E+05 -1.8158E+03   2.3705E+05  0.000E+00  0.000E+00  0.000E+00  3.06454E+01  2.010E-01  2.000E+01  2.000E+04 -9.079E-02



1
              HEAD IN LAYER   1 AT END OF TIME STEP   1 IN STRESS PERIOD    2
  ---------------------------------------------------------------------------

          1      2      3      4      5      6      7      8      9     10
         11     12     13     14     15     16     17     18     19     20
         21     22     23     24     25     26     27     28     29     30
 .........................................................................
   1  ****** ****** ****** ****** ****** ****** ****** ****** ****** ******
      ****** ****** ****** ****** ****** ****** ****** ****** ****** ******
      ****** ****** ****** ****** ****** ****** ****** ****** ****** ******
   2  ****** ****** ****** ****** ****** ****** ****** ****** ****** ******
      ****** ****** ****** ****** ****** ****** ****** ****** ****** ******
      ****** ****** ****** ****** ****** ****** ****** ****** ****** ******
   3  ****** ****** ****** ****** ****** ****** ****** ****** ****** ******
      ****** ****** ****** ****** ****** ****** ****** ****** ****** ******
      ****** ****** ****** ****** ****** ****** ****** ****** ****** ******
   4  ****** ****** ****** ****** ****** ****** ****** ****** ****** ******
      ****** ****** ****** ****** ****** ****** ****** ****** ****** ******
      ****** ****** ****** ****** ****** ****** ****** ****** ****** ******
   5  ****** ****** ****** ****** ****** ****** ****** ****** ****** ******
      ****** ****** ****** ****** ****** ****** ****** ****** ****** ******
      ****** ****** ****** ****** ****** ****** ****** ****** ****** ******
   6  ****** ****** ****** ****** ****** ****** ****** ****** ****** ******
      ****** ****** ****** ****** ****** ****** ****** ****** ****** ******
      ****** ****** ****** ****** ****** ****** ****** ****** ****** ******
   7  ****** ****** ****** ****** ****** ****** ****** ****** ****** ******
      ****** ****** ****** ****** ****** ****** ****** ****** ****** ******
      ****** ****** ****** ****** ****** ****** ****** ****** ****** ******
   8  ****** ****** ****** ****** ****** ****** ****** ****** ****** ******
      ****** ****** ****** ****** ****** ****** ****** ****** ****** ******
      ****** ****** ****** ****** ****** ****** ****** ****** ****** ******
   9  ****** ****** ****** ****** ****** ****** ****** ****** ****** ******
      ****** ****** ****** ****** ****** ****** ****** ****** ****** ******
      ****** ****** ****** ****** ****** ****** ****** ****** ****** ******
  10  ****** ****** ****** ****** ****** ****** ****** ****** ****** ******
      ****** ****** ****** ****** ****** ****** ****** ****** ****** ******
      ****** ****** ****** ****** ****** ****** ****** ****** ****** ******
  11  ****** ****** ****** ****** ****** ****** ****** ****** ****** ******
      ****** ****** ****** ****** ****** ****** ****** ****** ****** ******
      ****** ****** ****** ****** ****** ****** ****** ****** ****** ******
  12  ****** ****** ****** ****** ****** ****** ****** ****** ****** ******
      ****** ****** ****** ****** ****** ****** ****** ****** ****** ******
      ****** ****** ****** ****** ****** ****** ****** ****** ****** ******
  13  ****** ****** ****** ****** ****** ****** ****** ****** ****** ******
      ****** ****** ****** ****** ****** ****** ****** ****** ****** ******
      ****** ****** ****** ****** ****** ****** ****** ****** ****** ******
  14  ****** ****** ****** ****** ****** ****** ****** ****** ****** ******
      ****** ****** ****** ****** ****** ****** ****** ****** ****** ******
      ****** ****** ****** ****** ****** ****** ****** ****** ****** ******
  15  ****** ****** ****** ****** ****** ****** ****** ****** ****** ******
      ****** ****** ****** ****** ****** ****** ****** ****** ****** ******
      ****** ****** ****** ****** ****** ****** ****** ****** ****** ******
  16  ****** ****** ****** ****** ****** ****** ****** ****** ****** ******
      ****** ****** ****** ****** ****** ****** ****** ****** ****** ******
      ****** ****** ****** ****** ****** ****** ****** ****** ****** ******
  17  ****** ****** ****** ****** ****** ****** ****** ****** ****** ******
      ****** ****** ****** ****** ****** ****** ****** ****** ****** ******
      ****** ****** ****** ****** ****** ****** ****** ****** ****** ******
  18  ****** ****** ****** ****** ****** ****** ****** ****** ****** ******
      ****** ****** ****** ****** ****** ****** ****** ****** ****** ******
      ****** ****** ****** ****** ****** ****** ****** ****** ****** ******
  19  ****** ****** ****** ****** ****** ****** ****** ****** ****** ******
      ****** ****** ****** ****** ****** ****** ****** ****** ****** ******
      ****** ****** ****** ****** ****** ****** ****** ****** ****** ******
  20  ****** ****** ****** ****** ****** ****** ****** ****** ****** ******
      ****** ****** ****** ****** ****** ****** ****** ****** ****** ******
      ****** ****** ****** ****** ****** ****** ****** ****** ****** ******
  21  ****** ****** ****** ****** ****** ****** ****** ****** ****** ******
      ****** ****** ****** ****** ****** ****** ****** ****** ****** ******
      ****** ****** ****** ****** ****** ****** ****** ****** ****** ******
  22  ****** ****** ****** ****** ****** ****** ****** ****** ****** ******
      ****** ****** ****** ****** ****** ****** ****** ****** ****** ******
      ****** ****** ****** ****** ****** ****** ****** ****** ****** ******
  23  ****** ****** ****** ****** ****** ****** ****** ****** ****** ******
      ****** ****** ****** ****** ****** ****** ****** ****** ****** ******
      ****** ****** ****** ****** ****** ****** ****** ****** ****** ******
  24  ****** ****** ****** ****** ****** ****** ****** ****** ****** ******
      ****** ****** ****** ****** ****** ****** ****** ****** ****** ******
      ****** ****** ****** ****** ****** ****** ****** ****** ****** ******
  25  ****** ****** ****** ****** ****** ****** ****** ****** ****** ******
      ****** ****** ****** ****** ****** ****** ****** ****** ****** ******
      ****** ****** ****** ****** ****** ****** ****** ****** ****** ******

 HEAD WILL BE SAVED ON UNIT   51 AT END OF TIME STEP    1, STRESS PERIOD    2
1
  VOLUMETRIC BUDGET FOR ENTIRE MODEL AT END OF TIME STEP    1, STRESS PERIOD   2
  ------------------------------------------------------------------------------

     CUMULATIVE VOLUMES      L**3       RATES FOR THIS TIME STEP      L**3/T
     ------------------                 ------------------------

           IN:                                      IN:
           ---                                      ---
             STORAGE =    22819477.0333               STORAGE =       53840.9445
       CONSTANT HEAD =     2695844.8404         CONSTANT HEAD =       16990.0781
               WELLS =           0.0000                 WELLS =           0.0000
            RECHARGE =     6292800.0000              RECHARGE =       55200.0000
      STREAM LEAKAGE =     1078691.9395        STREAM LEAKAGE =        7732.5080

            TOTAL IN =    32886813.8132              TOTAL IN =      133763.5305

          OUT:                                     OUT:
          ----                                     ----
             STORAGE =           0.0000               STORAGE =           0.0000
       CONSTANT HEAD =           0.0000         CONSTANT HEAD =           0.0000
               WELLS =     7133896.0359                 WELLS =       38983.0384
            RECHARGE =           0.0000              RECHARGE =           0.0000
      STREAM LEAKAGE =    25752919.0125        STREAM LEAKAGE =       94780.5025

           TOTAL OUT =    32886815.0485             TOTAL OUT =      133763.5410

            IN - OUT =          -1.2353              IN - OUT =      -1.0421E-02

 PERCENT DISCREPANCY =          -0.00     PERCENT DISCREPANCY =          -0.00






         TIME SUMMARY AT END OF TIME STEP    1 IN STRESS PERIOD    2
                    SECONDS     MINUTES      HOURS       DAYS        YEARS
                    -----------------------------------------------------------
   TIME STEP LENGTH 7.86240E+06 1.31040E+05  2184.0      91.000     0.24914    
 STRESS PERIOD TIME 7.86240E+06 1.31040E+05  2184.0      91.000     0.24914    
         TOTAL TIME 1.58112E+07 2.63520E+05  4392.0      183.00     0.50103    
1
1
                            STRESS PERIOD NO.    3, LENGTH =   91.00000    
                            -----------------------------------------------

                              NUMBER OF TIME STEPS =     1

                               MULTIPLIER FOR DELT =     1.500

                            INITIAL TIME STEP SIZE =   91.00000    

 WELL NO.  LAYER   ROW   COL   STRESS RATE         
 --------------------------------------------------
      1      1     18     15      -8387.    
      2      1     17     18      -8258.    
      3      1     14     29     -0.1305E+05
      4      1     19     28      -9288.    

      4 WELLS

                 RECHARGE =   0.00000    

 REUSING STREAM SEGMENT DATA FROM LAST STRESS PERIOD
 
 SOLVING FOR HEAD 


     7 CALLS TO PCG ROUTINE FOR TIME STEP   1 IN STRESS PERIOD    3
    27 TOTAL ITERATIONS

 OUTPUT CONTROL FOR STRESS PERIOD    3   TIME STEP    1
    SAVE BUDGET
    SAVE HEAD FOR ALL LAYERS
    PRINT HEAD FOR ALL LAYERS
 UBDSV2 SAVING "STREAMFLOW OUT  " ON UNIT  50 AT TIME STEP  1, STRESS PERIOD   3



 STREAM LISTING     PERIOD      3   STEP        1

 LAYER ROW COL. STREAM  RCH.  FLOW INTO     FLOW TO   FLOW OUT OF   OVRLND.     DIRECT     STREAM       STREAM     STREAM     STREAM   STREAMBED  STREAMBED
                SEG.NO.  NO.  STRM. RCH.    AQUIFER    STRM. RCH.    RUNOFF     PRECIP       ET          HEAD       DEPTH      WIDTH   CONDCTNC.   GRADIENT

   1   13    1     1     1    1.0000E+05 -2.7578E+03   1.0276E+05  0.000E+00  0.000E+00  0.000E+00  4.84072E+01  1.458E-01  2.000E+01  2.000E+04 -1.379E-01
   1   13    2     1     2    1.0276E+05 -3.8691E+03   1.0663E+05  0.000E+00  0.000E+00  0.000E+00  4.79328E+01  1.487E-01  2.000E+01  2.000E+04 -1.935E-01
   1   14    3     1     3    1.0663E+05 -6.5015E+02   1.0728E+05  0.000E+00  0.000E+00  0.000E+00  4.74574E+01  1.506E-01  2.000E+01  2.000E+04 -3.251E-02
   1   15    4     1     4    1.0728E+05 -6.2730E+02   1.0790E+05  0.000E+00  0.000E+00  0.000E+00  4.69807E+01  1.511E-01  2.000E+01  2.000E+04 -3.136E-02
   1   16    5     1     5    1.0790E+05 -2.3248E+03   1.1023E+05  0.000E+00  0.000E+00  0.000E+00  4.65047E+01  1.524E-01  2.000E+01  2.000E+04 -1.162E-01
   1   16    6     1     6    1.1023E+05 -1.4001E+03   1.1163E+05  0.000E+00  0.000E+00  0.000E+00  4.60289E+01  1.539E-01  2.000E+01  2.000E+04 -7.001E-02
   1   16    7     1     7    1.1163E+05 -1.3352E+03   1.1296E+05  0.000E+00  0.000E+00  0.000E+00  4.55528E+01  1.551E-01  2.000E+01  2.000E+04 -6.676E-02
   1   16    8     1     8    1.1296E+05 -1.2774E+03   1.1424E+05  0.000E+00  0.000E+00  0.000E+00  4.50766E+01  1.562E-01  2.000E+01  2.000E+04 -6.387E-02
   1   16    9     1     9    1.1424E+05 -1.1901E+03   1.1543E+05  0.000E+00  0.000E+00  0.000E+00  4.46004E+01  1.572E-01  2.000E+01  2.000E+04 -5.950E-02
   1   16   10     1    10    1.1543E+05 -1.0536E+03   1.1649E+05  0.000E+00  0.000E+00  0.000E+00  4.41240E+01  1.581E-01  2.000E+01  2.000E+04 -5.268E-02
   1   16   11     1    11    1.1649E+05 -8.4775E+02   1.1733E+05  0.000E+00  0.000E+00  0.000E+00  4.36475E+01  1.589E-01  2.000E+01  2.000E+04 -4.239E-02
   1   16   12     1    12    1.1733E+05 -8.8259E+02   1.1822E+05  0.000E+00  0.000E+00  0.000E+00  4.31709E+01  1.596E-01  2.000E+01  2.000E+04 -4.413E-02
   1   15   13     1    13    1.1822E+05 -9.6631E+02   1.1918E+05  0.000E+00  0.000E+00  0.000E+00  4.26944E+01  1.603E-01  2.000E+01  2.000E+04 -4.832E-02
   1   14   14     1    14    1.1918E+05 -1.5543E+03   1.2074E+05  0.000E+00  0.000E+00  0.000E+00  4.22182E+01  1.613E-01  2.000E+01  2.000E+04 -7.771E-02
   1   13   15     1    15    1.2074E+05 -2.3065E+03   1.2304E+05  0.000E+00  0.000E+00  0.000E+00  4.17424E+01  1.629E-01  2.000E+01  2.000E+04 -1.153E-01
   1   12   16     1    16    1.2304E+05 -3.7364E+03   1.2678E+05  0.000E+00  0.000E+00  0.000E+00  4.12676E+01  1.653E-01  2.000E+01  2.000E+04 -1.868E-01
   1   12   17     1    17    1.2678E+05 -2.1298E+03   1.2891E+05  0.000E+00  0.000E+00  0.000E+00  4.07926E+01  1.676E-01  2.000E+01  2.000E+04 -1.065E-01
   1   12   18     1    18    1.2891E+05 -1.9849E+03   1.3089E+05  0.000E+00  0.000E+00  0.000E+00  4.03170E+01  1.692E-01  2.000E+01  2.000E+04 -9.925E-02
   1   12   19     1    19    1.3089E+05 -2.8164E+03   1.3371E+05  0.000E+00  0.000E+00  0.000E+00  3.98416E+01  1.711E-01  2.000E+01  2.000E+04 -1.408E-01
   1   13   20     1    20    1.3371E+05 -1.4353E+03   1.3515E+05  0.000E+00  0.000E+00  0.000E+00  3.93659E+01  1.728E-01  2.000E+01  2.000E+04 -7.177E-02
   1   14   21     1    21    1.3515E+05 -8.3279E+02   1.3598E+05  0.000E+00  0.000E+00  0.000E+00  3.88895E+01  1.736E-01  2.000E+01  2.000E+04 -4.164E-02
   1   14   22     1    22    1.3598E+05  4.9896E+03   1.3099E+05  0.000E+00  0.000E+00  0.000E+00  3.84107E+01  1.720E-01  2.000E+01  2.000E+04  2.495E-01
   1    9   30     2     1    5.0000E+04  1.8339E+02   4.9817E+04  0.000E+00  0.000E+00  0.000E+00  4.02407E+01  1.157E-01  2.000E+01  2.000E+04  9.170E-03
   1    9   29     2     2    4.9817E+04 -2.2724E+02   5.0044E+04  0.000E+00  0.000E+00  0.000E+00  3.99908E+01  1.158E-01  2.000E+01  2.000E+04 -1.136E-02
   1    9   28     2     3    5.0044E+04 -7.4168E+02   5.0786E+04  0.000E+00  0.000E+00  0.000E+00  3.97414E+01  1.164E-01  2.000E+01  2.000E+04 -3.708E-02
   1    9   27     2     4    5.0786E+04 -2.6773E+03   5.3463E+04  0.000E+00  0.000E+00  0.000E+00  3.94938E+01  1.188E-01  2.000E+01  2.000E+04 -1.339E-01
   1   10   26     2     5    5.3463E+04 -1.2210E+03   5.4684E+04  0.000E+00  0.000E+00  0.000E+00  3.92464E+01  1.214E-01  2.000E+01  2.000E+04 -6.105E-02
   1   11   25     2     6    5.4684E+04 -1.1269E+03   5.5811E+04  0.000E+00  0.000E+00  0.000E+00  3.89980E+01  1.230E-01  2.000E+01  2.000E+04 -5.635E-02
   1   12   24     2     7    5.5811E+04 -1.6199E+03   5.7431E+04  0.000E+00  0.000E+00  0.000E+00  3.87498E+01  1.248E-01  2.000E+01  2.000E+04 -8.099E-02
   1   13   23     2     8    5.7431E+04 -2.7041E+02   5.7701E+04  0.000E+00  0.000E+00  0.000E+00  3.85011E+01  1.261E-01  2.000E+01  2.000E+04 -1.352E-02
   1   14   22     2     9    5.7701E+04  1.7783E+03   5.5923E+04  0.000E+00  0.000E+00  0.000E+00  3.82501E+01  1.251E-01  2.000E+01  2.000E+04  8.892E-02
   1   14   22     3     1    1.8691E+05 -8.5707E+03   1.9548E+05  0.000E+00  0.000E+00  0.000E+00  3.77326E+01  1.771E-01  2.000E+01  2.000E+04 -4.285E-01
   1   15   23     3     2    1.9548E+05 -4.2690E+02   1.9591E+05  0.000E+00  0.000E+00  0.000E+00  3.68462E+01  1.796E-01  2.000E+01  2.000E+04 -2.135E-02
   1   15   24     3     3    1.9591E+05 -2.6317E+02   1.9617E+05  0.000E+00  0.000E+00  0.000E+00  3.59575E+01  1.798E-01  2.000E+01  2.000E+04 -1.316E-02
   1   15   25     3     4    1.9617E+05 -2.3390E+02   1.9641E+05  0.000E+00  0.000E+00  0.000E+00  3.50688E+01  1.799E-01  2.000E+01  2.000E+04 -1.170E-02
   1   15   26     3     5    1.9641E+05  4.6514E+01   1.9636E+05  0.000E+00  0.000E+00  0.000E+00  3.41800E+01  1.800E-01  2.000E+01  2.000E+04  2.326E-03
   1   16   27     3     6    1.9636E+05  3.4748E+02   1.9601E+05  0.000E+00  0.000E+00  0.000E+00  3.32910E+01  1.798E-01  2.000E+01  2.000E+04  1.737E-02
   1   17   28     3     7    1.9601E+05  3.4869E+03   1.9253E+05  0.000E+00  0.000E+00  0.000E+00  3.24010E+01  1.788E-01  2.000E+01  2.000E+04  1.743E-01
   1   18   29     3     8    1.9253E+05  1.7445E+03   1.9078E+05  0.000E+00  0.000E+00  0.000E+00  3.15107E+01  1.773E-01  2.000E+01  2.000E+04  8.723E-02
   1   18   30     3     9    1.9078E+05 -5.0784E+02   1.9129E+05  0.000E+00  0.000E+00  0.000E+00  3.06214E+01  1.770E-01  2.000E+01  2.000E+04 -2.539E-02



1
              HEAD IN LAYER   1 AT END OF TIME STEP   1 IN STRESS PERIOD    3
  ---------------------------------------------------------------------------

          1      2      3      4      5      6      7      8      9     10
         11     12     13     14     15     16     17     18     19     20
         21     22     23     24     25     26     27     28     29     30
 .........................................................................
   1  ****** ****** ****** ****** ****** ****** ****** ****** ****** ******
      ****** ****** ****** ****** ****** ****** ****** ****** ****** ******
      ****** ****** ****** ****** ****** ****** ****** ****** ****** ******
   2  ****** ****** ****** ****** ****** ****** ****** ****** ****** ******
      ****** ****** ****** ****** ****** ****** ****** ****** ****** ******
      ****** ****** ****** ****** ****** ****** ****** ****** ****** ******
   3  ****** ****** ****** ****** ****** ****** ****** ****** ****** ******
      ****** ****** ****** ****** ****** ****** ****** ****** ****** ******
      ****** ****** ****** ****** ****** ****** ****** ****** ****** ******
   4  ****** ****** ****** ****** ****** ****** ****** ****** ****** ******
      ****** ****** ****** ****** ****** ****** ****** ****** ****** ******
      ****** ****** ****** ****** ****** ****** ****** ****** ****** ******
   5  ****** ****** ****** ****** ****** ****** ****** ****** ****** ******
      ****** ****** ****** ****** ****** ****** ****** ****** ****** ******
      ****** ****** ****** ****** ****** ****** ****** ****** ****** ******
   6  ****** ****** ****** ****** ****** ****** ****** ****** ****** ******
      ****** ****** ****** ****** ****** ****** ****** ****** ****** ******
      ****** ****** ****** ****** ****** ****** ****** ****** ****** ******
   7  ****** ****** ****** ****** ****** ****** ****** ****** ****** ******
      ****** ****** ****** ****** ****** ****** ****** ****** ****** ******
      ****** ****** ****** ****** ****** ****** ****** ****** ****** ******
   8  ****** ****** ****** ****** ****** ****** ****** ****** ****** ******
      ****** ****** ****** ****** ****** ****** ****** ****** ****** ******
      ****** ****** ****** ****** ****** ****** ****** ****** ****** ******
   9  ****** ****** ****** ****** ****** ****** ****** ****** ****** ******
      ****** ****** ****** ****** ****** ****** ****** ****** ****** ******
      ****** ****** ****** ****** ****** ****** ****** ****** ****** ******
  10  ****** ****** ****** ****** ****** ****** ****** ****** ****** ******
      ****** ****** ****** ****** ****** ****** ****** ****** ****** ******
      ****** ****** ****** ****** ****** ****** ****** ****** ****** ******
  11  ****** ****** ****** ****** ****** ****** ****** ****** ****** ******
      ****** ****** ****** ****** ****** ****** ****** ****** ****** ******
      ****** ****** ****** ****** ****** ****** ****** ****** ****** ******
  12  ****** ****** ****** ****** ****** ****** ****** ****** ****** ******
      ****** ****** ****** ****** ****** ****** ****** ****** ****** ******
      ****** ****** ****** ****** ****** ****** ****** ****** ****** ******
  13  ****** ****** ****** ****** ****** ****** ****** ****** ****** ******
      ****** ****** ****** ****** ****** ****** ****** ****** ****** ******
      ****** ****** ****** ****** ****** ****** ****** ****** ****** ******
  14  ****** ****** ****** ****** ****** ****** ****** ****** ****** ******
      ****** ****** ****** ****** ****** ****** ****** ****** ****** ******
      ****** ****** ****** ****** ****** ****** ****** ****** ****** ******
  15  ****** ****** ****** ****** ****** ****** ****** ****** ****** ******
      ****** ****** ****** ****** ****** ****** ****** ****** ****** ******
      ****** ****** ****** ****** ****** ****** ****** ****** ****** ******
  16  ****** ****** ****** ****** ****** ****** ****** ****** ****** ******
      ****** ****** ****** ****** ****** ****** ****** ****** ****** ******
      ****** ****** ****** ****** ****** ****** ****** ****** ****** ******
  17  ****** ****** ****** ****** ****** ****** ****** ****** ****** ******
      ****** ****** ****** ****** ****** ****** ****** ****** ****** ******
      ****** ****** ****** ****** ****** ****** ****** ****** ****** ******
  18  ****** ****** ****** ****** ****** ****** ****** ****** ****** ******
      ****** ****** ****** ****** ****** ****** ****** ****** ****** ******
      ****** ****** ****** ****** ****** ****** ****** ****** ****** ******
  19  ****** ****** ****** ****** ****** ****** ****** ****** ****** ******
      ****** ****** ****** ****** ****** ****** ****** ****** ****** ******
      ****** ****** ****** ****** ****** ****** ****** ****** ****** ******
  20  ****** ****** ****** ****** ****** ****** ****** ****** ****** ******
      ****** ****** ****** ****** ****** ****** ****** ****** ****** ******
      ****** ****** ****** ****** ****** ****** ****** ****** ****** ******
  21  ****** ****** ****** ****** ****** ****** ****** ****** ****** ******
      ****** ****** ****** ****** ****** ****** ****** ****** ****** ******
      ****** ****** ****** ****** ****** ****** ****** ****** ****** ******
  22  ****** ****** ****** ****** ****** ****** ****** ****** ****** ******
      ****** ****** ****** ****** ****** ****** ****** ****** ****** ******
      ****** ****** ****** ****** ****** ****** ****** ****** ****** ******
  23  ****** ****** ****** ****** ****** ****** ****** ****** ****** ******
      ****** ****** ****** ****** ****** ****** ****** ****** ****** ******
      ****** ****** ****** ****** ****** ****** ****** ****** ****** ******
  24  ****** ****** ****** ****** ****** ****** ****** ****** ****** ******
      ****** ****** ****** ****** ****** ****** ****** ****** ****** ******
      ****** ****** ****** ****** ****** ****** ****** ****** ****** ******
  25  ****** ****** ****** ****** ****** ****** ****** ****** ****** ******
      ****** ****** ****** ****** ****** ****** ****** ****** ****** ******
      ****** ****** ****** ****** ****** ****** ****** ****** ****** ******

 HEAD WILL BE SAVED ON UNIT   51 AT END OF TIME STEP    1, STRESS PERIOD    3
1
  VOLUMETRIC BUDGET FOR ENTIRE MODEL AT END OF TIME STEP    1, STRESS PERIOD   3
  ------------------------------------------------------------------------------

     CUMULATIVE VOLUMES      L**3       RATES FOR THIS TIME STEP      L**3/T
     ------------------                 ------------------------

           IN:                                      IN:
           ---                                      ---
             STORAGE =    27800891.2918               STORAGE =       54740.8160
       CONSTANT HEAD =     5019154.4232         CONSTANT HEAD =       25530.8745
               WELLS =           0.0000                 WELLS =           0.0000
            RECHARGE =     6292800.0000              RECHARGE =           0.0000
      STREAM LEAKAGE =     2223182.7774        STREAM LEAKAGE =       12576.8224

            TOTAL IN =    41336028.4925              TOTAL IN =       92848.5130

          OUT:                                     OUT:
          ----                                     ----
             STORAGE =           0.0000               STORAGE =           0.0000
       CONSTANT HEAD =           0.0000         CONSTANT HEAD =           0.0000
               WELLS =    10681352.5347                 WELLS =       38983.0384
            RECHARGE =           0.0000              RECHARGE =           0.0000
      STREAM LEAKAGE =    30654677.8704        STREAM LEAKAGE =       53865.4820

           TOTAL OUT =    41336030.4051             TOTAL OUT =       92848.5204

            IN - OUT =          -1.9126              IN - OUT =      -7.4433E-03

 PERCENT DISCREPANCY =          -0.00     PERCENT DISCREPANCY =          -0.00






         TIME SUMMARY AT END OF TIME STEP    1 IN STRESS PERIOD    3
                    SECONDS     MINUTES      HOURS       DAYS        YEARS
                    -----------------------------------------------------------
   TIME STEP LENGTH 7.86240E+06 1.31040E+05  2184.0      91.000     0.24914    
 STRESS PERIOD TIME 7.86240E+06 1.31040E+05  2184.0      91.000     0.24914    
         TOTAL TIME 2.36736E+07 3.94560E+05  6576.0      274.00     0.75017    
1
1
                            STRESS PERIOD NO.    4, LENGTH =   91.00000    
                            -----------------------------------------------

                              NUMBER OF TIME STEPS =     1

                               MULTIPLIER FOR DELT =     1.500

                            INITIAL TIME STEP SIZE =   91.00000    

 WELL NO.  LAYER   ROW   COL   STRESS RATE         
 --------------------------------------------------
      1      1     18     15      -8387.    
      2      1     17     18      -8258.    
      3      1     14     29     -0.1305E+05
      4      1     19     28      -9288.    

      4 WELLS

                 RECHARGE =  1.000000E-03

 REUSING STREAM SEGMENT DATA FROM LAST STRESS PERIOD
 
 SOLVING FOR HEAD 


     6 CALLS TO PCG ROUTINE FOR TIME STEP   1 IN STRESS PERIOD    4
    23 TOTAL ITERATIONS

 OUTPUT CONTROL FOR STRESS PERIOD    4   TIME STEP    1
    SAVE BUDGET
    SAVE HEAD FOR ALL LAYERS
    PRINT HEAD FOR ALL LAYERS
 UBDSV2 SAVING "STREAMFLOW OUT  " ON UNIT  50 AT TIME STEP  1, STRESS PERIOD   4



 STREAM LISTING     PERIOD      4   STEP        1

 LAYER ROW COL. STREAM  RCH.  FLOW INTO     FLOW TO   FLOW OUT OF   OVRLND.     DIRECT     STREAM       STREAM     STREAM     STREAM   STREAMBED  STREAMBED
                SEG.NO.  NO.  STRM. RCH.    AQUIFER    STRM. RCH.    RUNOFF     PRECIP       ET          HEAD       DEPTH      WIDTH   CONDCTNC.   GRADIENT

   1   13    1     1     1    1.0000E+05 -2.5314E+03   1.0253E+05  0.000E+00  0.000E+00  0.000E+00  4.84071E+01  1.457E-01  2.000E+01  2.000E+04 -1.266E-01
   1   13    2     1     2    1.0253E+05 -3.6063E+03   1.0614E+05  0.000E+00  0.000E+00  0.000E+00  4.79325E+01  1.484E-01  2.000E+01  2.000E+04 -1.803E-01
   1   14    3     1     3    1.0614E+05 -6.2165E+02   1.0676E+05  0.000E+00  0.000E+00  0.000E+00  4.74570E+01  1.502E-01  2.000E+01  2.000E+04 -3.108E-02
   1   15    4     1     4    1.0676E+05 -5.8757E+02   1.0735E+05  0.000E+00  0.000E+00  0.000E+00  4.69802E+01  1.507E-01  2.000E+01  2.000E+04 -2.938E-02
   1   16    5     1     5    1.0735E+05 -2.0014E+03   1.0935E+05  0.000E+00  0.000E+00  0.000E+00  4.65041E+01  1.518E-01  2.000E+01  2.000E+04 -1.001E-01
   1   16    6     1     6    1.0935E+05 -1.2389E+03   1.1059E+05  0.000E+00  0.000E+00  0.000E+00  4.60281E+01  1.531E-01  2.000E+01  2.000E+04 -6.195E-02
   1   16    7     1     7    1.1059E+05 -1.1842E+03   1.1177E+05  0.000E+00  0.000E+00  0.000E+00  4.55519E+01  1.541E-01  2.000E+01  2.000E+04 -5.921E-02
   1   16    8     1     8    1.1177E+05 -1.1286E+03   1.1290E+05  0.000E+00  0.000E+00  0.000E+00  4.50756E+01  1.551E-01  2.000E+01  2.000E+04 -5.643E-02
   1   16    9     1     9    1.1290E+05 -1.0411E+03   1.1394E+05  0.000E+00  0.000E+00  0.000E+00  4.45992E+01  1.560E-01  2.000E+01  2.000E+04 -5.206E-02
   1   16   10     1    10    1.1394E+05 -9.0390E+02   1.1485E+05  0.000E+00  0.000E+00  0.000E+00  4.41227E+01  1.568E-01  2.000E+01  2.000E+04 -4.520E-02
   1   16   11     1    11    1.1485E+05 -6.9167E+02   1.1554E+05  0.000E+00  0.000E+00  0.000E+00  4.36461E+01  1.575E-01  2.000E+01  2.000E+04 -3.458E-02
   1   16   12     1    12    1.1554E+05 -5.5768E+02   1.1609E+05  0.000E+00  0.000E+00  0.000E+00  4.31693E+01  1.580E-01  2.000E+01  2.000E+04 -2.788E-02
   1   15   13     1    13    1.1609E+05 -6.8322E+02   1.1678E+05  0.000E+00  0.000E+00  0.000E+00  4.26926E+01  1.585E-01  2.000E+01  2.000E+04 -3.416E-02
   1   14   14     1    14    1.1678E+05 -1.2643E+03   1.1804E+05  0.000E+00  0.000E+00  0.000E+00  4.22161E+01  1.593E-01  2.000E+01  2.000E+04 -6.322E-02
   1   13   15     1    15    1.1804E+05 -2.0089E+03   1.2005E+05  0.000E+00  0.000E+00  0.000E+00  4.17401E+01  1.606E-01  2.000E+01  2.000E+04 -1.004E-01
   1   12   16     1    16    1.2005E+05 -3.3737E+03   1.2342E+05  0.000E+00  0.000E+00  0.000E+00  4.12650E+01  1.628E-01  2.000E+01  2.000E+04 -1.687E-01
   1   12   17     1    17    1.2342E+05 -1.9033E+03   1.2533E+05  0.000E+00  0.000E+00  0.000E+00  4.07899E+01  1.649E-01  2.000E+01  2.000E+04 -9.516E-02
   1   12   18     1    18    1.2533E+05 -1.7729E+03   1.2710E+05  0.000E+00  0.000E+00  0.000E+00  4.03141E+01  1.663E-01  2.000E+01  2.000E+04 -8.864E-02
   1   12   19     1    19    1.2710E+05 -2.5633E+03   1.2966E+05  0.000E+00  0.000E+00  0.000E+00  3.98385E+01  1.680E-01  2.000E+01  2.000E+04 -1.282E-01
   1   13   20     1    20    1.2966E+05 -1.2413E+03   1.3091E+05  0.000E+00  0.000E+00  0.000E+00  3.93627E+01  1.695E-01  2.000E+01  2.000E+04 -6.207E-02
   1   14   21     1    21    1.3091E+05 -5.3841E+02   1.3144E+05  0.000E+00  0.000E+00  0.000E+00  3.88861E+01  1.702E-01  2.000E+01  2.000E+04 -2.692E-02
   1   14   22     1    22    1.3144E+05  5.0354E+03   1.2641E+05  0.000E+00  0.000E+00  0.000E+00  3.84071E+01  1.685E-01  2.000E+01  2.000E+04  2.518E-01
   1    9   30     2     1    5.0000E+04  2.7574E+02   4.9724E+04  0.000E+00  0.000E+00  0.000E+00  4.02407E+01  1.157E-01  2.000E+01  2.000E+04  1.379E-02
   1    9   29     2     2    4.9724E+04 -1.2945E+02   4.9854E+04  0.000E+00  0.000E+00  0.000E+00  3.99906E+01  1.156E-01  2.000E+01  2.000E+04 -6.473E-03
   1    9   28     2     3    4.9854E+04 -6.2734E+02   5.0481E+04  0.000E+00  0.000E+00  0.000E+00  3.97411E+01  1.161E-01  2.000E+01  2.000E+04 -3.137E-02
   1    9   27     2     4    5.0481E+04 -2.4271E+03   5.2908E+04  0.000E+00  0.000E+00  0.000E+00  3.94932E+01  1.182E-01  2.000E+01  2.000E+04 -1.214E-01
   1   10   26     2     5    5.2908E+04 -1.0705E+03   5.3979E+04  0.000E+00  0.000E+00  0.000E+00  3.92456E+01  1.206E-01  2.000E+01  2.000E+04 -5.353E-02
   1   11   25     2     6    5.3979E+04 -1.0156E+03   5.4994E+04  0.000E+00  0.000E+00  0.000E+00  3.89970E+01  1.220E-01  2.000E+01  2.000E+04 -5.078E-02
   1   12   24     2     7    5.4994E+04 -1.5304E+03   5.6525E+04  0.000E+00  0.000E+00  0.000E+00  3.87487E+01  1.237E-01  2.000E+01  2.000E+04 -7.652E-02
   1   13   23     2     8    5.6525E+04 -2.9725E+02   5.6822E+04  0.000E+00  0.000E+00  0.000E+00  3.84999E+01  1.249E-01  2.000E+01  2.000E+04 -1.486E-02
   1   14   22     2     9    5.6822E+04  1.8706E+03   5.4951E+04  0.000E+00  0.000E+00  0.000E+00  3.82489E+01  1.239E-01  2.000E+01  2.000E+04  9.353E-02
   1   14   22     3     1    1.8136E+05 -8.5162E+03   1.8988E+05  0.000E+00  0.000E+00  0.000E+00  3.77295E+01  1.740E-01  2.000E+01  2.000E+04 -4.258E-01
   1   15   23     3     2    1.8988E+05 -3.8606E+02   1.9026E+05  0.000E+00  0.000E+00  0.000E+00  3.68431E+01  1.765E-01  2.000E+01  2.000E+04 -1.930E-02
   1   15   24     3     3    1.9026E+05 -2.5286E+02   1.9051E+05  0.000E+00  0.000E+00  0.000E+00  3.59544E+01  1.766E-01  2.000E+01  2.000E+04 -1.264E-02
   1   15   25     3     4    1.9051E+05 -2.2350E+02   1.9074E+05  0.000E+00  0.000E+00  0.000E+00  3.50657E+01  1.768E-01  2.000E+01  2.000E+04 -1.117E-02
   1   15   26     3     5    1.9074E+05  4.9696E+01   1.9069E+05  0.000E+00  0.000E+00  0.000E+00  3.41768E+01  1.768E-01  2.000E+01  2.000E+04  2.485E-03
   1   16   27     3     6    1.9069E+05  3.6371E+02   1.9032E+05  0.000E+00  0.000E+00  0.000E+00  3.32878E+01  1.767E-01  2.000E+01  2.000E+04  1.819E-02
   1   17   28     3     7    1.9032E+05  3.6166E+03   1.8671E+05  0.000E+00  0.000E+00  0.000E+00  3.23978E+01  1.756E-01  2.000E+01  2.000E+04  1.808E-01
   1   18   29     3     8    1.8671E+05  2.0578E+03   1.8465E+05  0.000E+00  0.000E+00  0.000E+00  3.15073E+01  1.740E-01  2.000E+01  2.000E+04  1.029E-01
   1   18   30     3     9    1.8465E+05 -3.3477E+02   1.8499E+05  0.000E+00  0.000E+00  0.000E+00  3.06180E+01  1.735E-01  2.000E+01  2.000E+04 -1.674E-02



1
              HEAD IN LAYER   1 AT END OF TIME STEP   1 IN STRESS PERIOD    4
  ---------------------------------------------------------------------------

          1      2      3      4      5      6      7      8      9     10
         11     12     13     14     15     16     17     18     19     20
         21     22     23     24     25     26     27     28     29     30
 .........................................................................
   1  ****** ****** ****** ****** ****** ****** ****** ****** ****** ******
      ****** ****** ****** ****** ****** ****** ****** ****** ****** ******
      ****** ****** ****** ****** ****** ****** ****** ****** ****** ******
   2  ****** ****** ****** ****** ****** ****** ****** ****** ****** ******
      ****** ****** ****** ****** ****** ****** ****** ****** ****** ******
      ****** ****** ****** ****** ****** ****** ****** ****** ****** ******
   3  ****** ****** ****** ****** ****** ****** ****** ****** ****** ******
      ****** ****** ****** ****** ****** ****** ****** ****** ****** ******
      ****** ****** ****** ****** ****** ****** ****** ****** ****** ******
   4  ****** ****** ****** ****** ****** ****** ****** ****** ****** ******
      ****** ****** ****** ****** ****** ****** ****** ****** ****** ******
      ****** ****** ****** ****** ****** ****** ****** ****** ****** ******
   5  ****** ****** ****** ****** ****** ****** ****** ****** ****** ******
      ****** ****** ****** ****** ****** ****** ****** ****** ****** ******
      ****** ****** ****** ****** ****** ****** ****** ****** ****** ******
   6  ****** ****** ****** ****** ****** ****** ****** ****** ****** ******
      ****** ****** ****** ****** ****** ****** ****** ****** ****** ******
      ****** ****** ****** ****** ****** ****** ****** ****** ****** ******
   7  ****** ****** ****** ****** ****** ****** ****** ****** ****** ******
      ****** ****** ****** ****** ****** ****** ****** ****** ****** ******
      ****** ****** ****** ****** ****** ****** ****** ****** ****** ******
   8  ****** ****** ****** ****** ****** ****** ****** ****** ****** ******
      ****** ****** ****** ****** ****** ****** ****** ****** ****** ******
      ****** ****** ****** ****** ****** ****** ****** ****** ****** ******
   9  ****** ****** ****** ****** ****** ****** ****** ****** ****** ******
      ****** ****** ****** ****** ****** ****** ****** ****** ****** ******
      ****** ****** ****** ****** ****** ****** ****** ****** ****** ******
  10  ****** ****** ****** ****** ****** ****** ****** ****** ****** ******
      ****** ****** ****** ****** ****** ****** ****** ****** ****** ******
      ****** ****** ****** ****** ****** ****** ****** ****** ****** ******
  11  ****** ****** ****** ****** ****** ****** ****** ****** ****** ******
      ****** ****** ****** ****** ****** ****** ****** ****** ****** ******
      ****** ****** ****** ****** ****** ****** ****** ****** ****** ******
  12  ****** ****** ****** ****** ****** ****** ****** ****** ****** ******
      ****** ****** ****** ****** ****** ****** ****** ****** ****** ******
      ****** ****** ****** ****** ****** ****** ****** ****** ****** ******
  13  ****** ****** ****** ****** ****** ****** ****** ****** ****** ******
      ****** ****** ****** ****** ****** ****** ****** ****** ****** ******
      ****** ****** ****** ****** ****** ****** ****** ****** ****** ******
  14  ****** ****** ****** ****** ****** ****** ****** ****** ****** ******
      ****** ****** ****** ****** ****** ****** ****** ****** ****** ******
      ****** ****** ****** ****** ****** ****** ****** ****** ****** ******
  15  ****** ****** ****** ****** ****** ****** ****** ****** ****** ******
      ****** ****** ****** ****** ****** ****** ****** ****** ****** ******
      ****** ****** ****** ****** ****** ****** ****** ****** ****** ******
  16  ****** ****** ****** ****** ****** ****** ****** ****** ****** ******
      ****** ****** ****** ****** ****** ****** ****** ****** ****** ******
      ****** ****** ****** ****** ****** ****** ****** ****** ****** ******
  17  ****** ****** ****** ****** ****** ****** ****** ****** ****** ******
      ****** ****** ****** ****** ****** ****** ****** ****** ****** ******
      ****** ****** ****** ****** ****** ****** ****** ****** ****** ******
  18  ****** ****** ****** ****** ****** ****** ****** ****** ****** ******
      ****** ****** ****** ****** ****** ****** ****** ****** ****** ******
      ****** ****** ****** ****** ****** ****** ****** ****** ****** ******
  19  ****** ****** ****** ****** ****** ****** ****** ****** ****** ******
      ****** ****** ****** ****** ****** ****** ****** ****** ****** ******
      ****** ****** ****** ****** ****** ****** ****** ****** ****** ******
  20  ****** ****** ****** ****** ****** ****** ****** ****** ****** ******
      ****** ****** ****** ****** ****** ****** ****** ****** ****** ******
      ****** ****** ****** ****** ****** ****** ****** ****** ****** ******
  21  ****** ****** ****** ****** ****** ****** ****** ****** ****** ******
      ****** ****** ****** ****** ****** ****** ****** ****** ****** ******
      ****** ****** ****** ****** ****** ****** ****** ****** ****** ******
  22  ****** ****** ****** ****** ****** ****** ****** ****** ****** ******
      ****** ****** ****** ****** ****** ****** ****** ****** ****** ******
      ****** ****** ****** ****** ****** ****** ****** ****** ****** ******
  23  ****** ****** ****** ****** ****** ****** ****** ****** ****** ******
      ****** ****** ****** ****** ****** ****** ****** ****** ****** ******
      ****** ****** ****** ****** ****** ****** ****** ****** ****** ******
  24  ****** ****** ****** ****** ****** ****** ****** ****** ****** ******
      ****** ****** ****** ****** ****** ****** ****** ****** ****** ******
      ****** ****** ****** ****** ****** ****** ****** ****** ****** ******
  25  ****** ****** ****** ****** ****** ****** ****** ****** ****** ******
      ****** ****** ****** ****** ****** ****** ****** ****** ****** ******
      ****** ****** ****** ****** ****** ****** ****** ****** ****** ******

 HEAD WILL BE SAVED ON UNIT   51 AT END OF TIME STEP    1, STRESS PERIOD    4
1
  VOLUMETRIC BUDGET FOR ENTIRE MODEL AT END OF TIME STEP    1, STRESS PERIOD   4
  ------------------------------------------------------------------------------

     CUMULATIVE VOLUMES      L**3       RATES FOR THIS TIME STEP      L**3/T
     ------------------                 ------------------------

           IN:                                      IN:
           ---                                      ---
             STORAGE =    29461254.4916               STORAGE =       18245.7494
       CONSTANT HEAD =     7578645.4310         CONSTANT HEAD =       28126.2748
               WELLS =           0.0000                 WELLS =           0.0000
            RECHARGE =     8804400.0000              RECHARGE =       27600.0000
      STREAM LEAKAGE =     3430711.8224        STREAM LEAKAGE =       13269.5499

            TOTAL IN =    49275011.7449              TOTAL IN =       87241.5742

          OUT:                                     OUT:
          ----                                     ----
             STORAGE =         328.5258               STORAGE =           3.6102
       CONSTANT HEAD =           0.0000         CONSTANT HEAD =           0.0000
               WELLS =    14228809.0334                 WELLS =       38983.0384
            RECHARGE =           0.0000              RECHARGE =           0.0000
      STREAM LEAKAGE =    35045876.1693        STREAM LEAKAGE =       48254.9264

           TOTAL OUT =    49275013.7285             TOTAL OUT =       87241.5750

            IN - OUT =          -1.9836              IN - OUT =      -7.8029E-04

 PERCENT DISCREPANCY =          -0.00     PERCENT DISCREPANCY =          -0.00






         TIME SUMMARY AT END OF TIME STEP    1 IN STRESS PERIOD    4
                    SECONDS     MINUTES      HOURS       DAYS        YEARS
                    -----------------------------------------------------------
   TIME STEP LENGTH 7.86240E+06 1.31040E+05  2184.0      91.000     0.24914    
 STRESS PERIOD TIME 7.86240E+06 1.31040E+05  2184.0      91.000     0.24914    
         TOTAL TIME 3.15360E+07 5.25600E+05  8760.0      365.00     0.99932    
1
1
                            STRESS PERIOD NO.    5, LENGTH =   92.00000    
                            -----------------------------------------------

                              NUMBER OF TIME STEPS =     1

                               MULTIPLIER FOR DELT =     1.500

                            INITIAL TIME STEP SIZE =   92.00000    

 WELL NO.  LAYER   ROW   COL   STRESS RATE         
 --------------------------------------------------
      1      1     18     15      -8387.    
      2      1     17     18      -8258.    
      3      1     14     29     -0.1305E+05
      4      1     19     28      -9288.    

      4 WELLS

                 RECHARGE =  5.000000E-04

 REUSING STREAM SEGMENT DATA FROM LAST STRESS PERIOD
 
 SOLVING FOR HEAD 


     7 CALLS TO PCG ROUTINE FOR TIME STEP   1 IN STRESS PERIOD    5
    26 TOTAL ITERATIONS

 OUTPUT CONTROL FOR STRESS PERIOD    5   TIME STEP    1
    SAVE BUDGET
    SAVE HEAD FOR ALL LAYERS
    PRINT HEAD FOR ALL LAYERS
 UBDSV2 SAVING "STREAMFLOW OUT  " ON UNIT  50 AT TIME STEP  1, STRESS PERIOD   5



 STREAM LISTING     PERIOD      5   STEP        1

 LAYER ROW COL. STREAM  RCH.  FLOW INTO     FLOW TO   FLOW OUT OF   OVRLND.     DIRECT     STREAM       STREAM     STREAM     STREAM   STREAMBED  STREAMBED
                SEG.NO.  NO.  STRM. RCH.    AQUIFER    STRM. RCH.    RUNOFF     PRECIP       ET          HEAD       DEPTH      WIDTH   CONDCTNC.   GRADIENT

   1   13    1     1     1    1.0000E+05 -2.1258E+03   1.0213E+05  0.000E+00  0.000E+00  0.000E+00  4.84069E+01  1.456E-01  2.000E+01  2.000E+04 -1.063E-01
   1   13    2     1     2    1.0213E+05 -3.1483E+03   1.0527E+05  0.000E+00  0.000E+00  0.000E+00  4.79319E+01  1.478E-01  2.000E+01  2.000E+04 -1.574E-01
   1   14    3     1     3    1.0527E+05 -5.0003E+02   1.0577E+05  0.000E+00  0.000E+00  0.000E+00  4.74562E+01  1.494E-01  2.000E+01  2.000E+04 -2.500E-02
   1   15    4     1     4    1.0577E+05 -4.5844E+02   1.0623E+05  0.000E+00  0.000E+00  0.000E+00  4.69793E+01  1.498E-01  2.000E+01  2.000E+04 -2.292E-02
   1   16    5     1     5    1.0623E+05 -1.5584E+03   1.0779E+05  0.000E+00  0.000E+00  0.000E+00  4.65029E+01  1.507E-01  2.000E+01  2.000E+04 -7.792E-02
   1   16    6     1     6    1.0779E+05 -9.8014E+02   1.0877E+05  0.000E+00  0.000E+00  0.000E+00  4.60267E+01  1.517E-01  2.000E+01  2.000E+04 -4.901E-02
   1   16    7     1     7    1.0877E+05 -9.3566E+02   1.0971E+05  0.000E+00  0.000E+00  0.000E+00  4.55503E+01  1.525E-01  2.000E+01  2.000E+04 -4.678E-02
   1   16    8     1     8    1.0971E+05 -8.8289E+02   1.1059E+05  0.000E+00  0.000E+00  0.000E+00  4.50737E+01  1.533E-01  2.000E+01  2.000E+04 -4.414E-02
   1   16    9     1     9    1.1059E+05 -7.9700E+02   1.1139E+05  0.000E+00  0.000E+00  0.000E+00  4.45972E+01  1.540E-01  2.000E+01  2.000E+04 -3.985E-02
   1   16   10     1    10    1.1139E+05 -6.6125E+02   1.1205E+05  0.000E+00  0.000E+00  0.000E+00  4.41205E+01  1.546E-01  2.000E+01  2.000E+04 -3.306E-02
   1   16   11     1    11    1.1205E+05 -4.4547E+02   1.1249E+05  0.000E+00  0.000E+00  0.000E+00  4.36437E+01  1.551E-01  2.000E+01  2.000E+04 -2.227E-02
   1   16   12     1    12    1.1249E+05 -1.1485E+02   1.1261E+05  0.000E+00  0.000E+00  0.000E+00  4.31667E+01  1.553E-01  2.000E+01  2.000E+04 -5.742E-03
   1   15   13     1    13    1.1261E+05 -2.3115E+02   1.1284E+05  0.000E+00  0.000E+00  0.000E+00  4.26895E+01  1.554E-01  2.000E+01  2.000E+04 -1.156E-02
   1   14   14     1    14    1.1284E+05 -7.9303E+02   1.1363E+05  0.000E+00  0.000E+00  0.000E+00  4.22127E+01  1.559E-01  2.000E+01  2.000E+04 -3.965E-02
   1   13   15     1    15    1.1363E+05 -1.5293E+03   1.1516E+05  0.000E+00  0.000E+00  0.000E+00  4.17364E+01  1.568E-01  2.000E+01  2.000E+04 -7.647E-02
   1   12   16     1    16    1.1516E+05 -2.8646E+03   1.1803E+05  0.000E+00  0.000E+00  0.000E+00  4.12609E+01  1.586E-01  2.000E+01  2.000E+04 -1.432E-01
   1   12   17     1    17    1.1803E+05 -1.5549E+03   1.1958E+05  0.000E+00  0.000E+00  0.000E+00  4.07854E+01  1.604E-01  2.000E+01  2.000E+04 -7.775E-02
   1   12   18     1    18    1.1958E+05 -1.4400E+03   1.2102E+05  0.000E+00  0.000E+00  0.000E+00  4.03093E+01  1.616E-01  2.000E+01  2.000E+04 -7.200E-02
   1   12   19     1    19    1.2102E+05 -2.1648E+03   1.2319E+05  0.000E+00  0.000E+00  0.000E+00  3.98335E+01  1.631E-01  2.000E+01  2.000E+04 -1.082E-01
   1   13   20     1    20    1.2319E+05 -8.7533E+02   1.2406E+05  0.000E+00  0.000E+00  0.000E+00  3.93575E+01  1.643E-01  2.000E+01  2.000E+04 -4.377E-02
   1   14   21     1    21    1.2406E+05 -1.2684E+02   1.2419E+05  0.000E+00  0.000E+00  0.000E+00  3.88806E+01  1.647E-01  2.000E+01  2.000E+04 -6.342E-03
   1   14   22     1    22    1.2419E+05  5.1201E+03   1.1907E+05  0.000E+00  0.000E+00  0.000E+00  3.84013E+01  1.627E-01  2.000E+01  2.000E+04  2.560E-01
   1    9   30     2     1    5.0000E+04  5.0407E+02   4.9496E+04  0.000E+00  0.000E+00  0.000E+00  4.02405E+01  1.155E-01  2.000E+01  2.000E+04  2.520E-02
   1    9   29     2     2    4.9496E+04  1.0183E+02   4.9394E+04  0.000E+00  0.000E+00  0.000E+00  3.99901E+01  1.151E-01  2.000E+01  2.000E+04  5.092E-03
   1    9   28     2     3    4.9394E+04 -3.8567E+02   4.9780E+04  0.000E+00  0.000E+00  0.000E+00  3.97403E+01  1.153E-01  2.000E+01  2.000E+04 -1.928E-02
   1    9   27     2     4    4.9780E+04 -2.0512E+03   5.1831E+04  0.000E+00  0.000E+00  0.000E+00  3.94920E+01  1.170E-01  2.000E+01  2.000E+04 -1.026E-01
   1   10   26     2     5    5.1831E+04 -7.3943E+02   5.2570E+04  0.000E+00  0.000E+00  0.000E+00  3.92439E+01  1.189E-01  2.000E+01  2.000E+04 -3.697E-02
   1   11   25     2     6    5.2570E+04 -7.1128E+02   5.3282E+04  0.000E+00  0.000E+00  0.000E+00  3.89949E+01  1.199E-01  2.000E+01  2.000E+04 -3.556E-02
   1   12   24     2     7    5.3282E+04 -1.2536E+03   5.4535E+04  0.000E+00  0.000E+00  0.000E+00  3.87462E+01  1.212E-01  2.000E+01  2.000E+04 -6.268E-02
   1   13   23     2     8    5.4535E+04 -2.2982E+02   5.4765E+04  0.000E+00  0.000E+00  0.000E+00  3.84972E+01  1.222E-01  2.000E+01  2.000E+04 -1.149E-02
   1   14   22     2     9    5.4765E+04  2.0140E+03   5.2751E+04  0.000E+00  0.000E+00  0.000E+00  3.82460E+01  1.210E-01  2.000E+01  2.000E+04  1.007E-01
   1   14   22     3     1    1.7182E+05 -8.4248E+03   1.8024E+05  0.000E+00  0.000E+00  0.000E+00  3.77241E+01  1.685E-01  2.000E+01  2.000E+04 -4.212E-01
   1   15   23     3     2    1.8024E+05 -2.7787E+02   1.8052E+05  0.000E+00  0.000E+00  0.000E+00  3.68377E+01  1.710E-01  2.000E+01  2.000E+04 -1.389E-02
   1   15   24     3     3    1.8052E+05 -1.7511E+02   1.8070E+05  0.000E+00  0.000E+00  0.000E+00  3.59489E+01  1.711E-01  2.000E+01  2.000E+04 -8.755E-03
   1   15   25     3     4    1.8070E+05 -1.4670E+02   1.8084E+05  0.000E+00  0.000E+00  0.000E+00  3.50601E+01  1.712E-01  2.000E+01  2.000E+04 -7.335E-03
   1   15   26     3     5    1.8084E+05  1.2686E+02   1.8072E+05  0.000E+00  0.000E+00  0.000E+00  3.41712E+01  1.712E-01  2.000E+01  2.000E+04  6.343E-03
   1   16   27     3     6    1.8072E+05  4.6184E+02   1.8026E+05  0.000E+00  0.000E+00  0.000E+00  3.32822E+01  1.711E-01  2.000E+01  2.000E+04  2.309E-02
   1   17   28     3     7    1.8026E+05  3.9131E+03   1.7634E+05  0.000E+00  0.000E+00  0.000E+00  3.23920E+01  1.698E-01  2.000E+01  2.000E+04  1.957E-01
   1   18   29     3     8    1.7634E+05  2.4829E+03   1.7386E+05  0.000E+00  0.000E+00  0.000E+00  3.15013E+01  1.680E-01  2.000E+01  2.000E+04  1.241E-01
   1   18   30     3     9    1.7386E+05 -4.4634E+01   1.7390E+05  0.000E+00  0.000E+00  0.000E+00  3.06117E+01  1.673E-01  2.000E+01  2.000E+04 -2.232E-03



1
              HEAD IN LAYER   1 AT END OF TIME STEP   1 IN STRESS PERIOD    5
  ---------------------------------------------------------------------------

          1      2      3      4      5      6      7      8      9     10
         11     12     13     14     15     16     17     18     19     20
         21     22     23     24     25     26     27     28     29     30
 .........................................................................
   1  ****** ****** ****** ****** ****** ****** ****** ****** ****** ******
      ****** ****** ****** ****** ****** ****** ****** ****** ****** ******
      ****** ****** ****** ****** ****** ****** ****** ****** ****** ******
   2  ****** ****** ****** ****** ****** ****** ****** ****** ****** ******
      ****** ****** ****** ****** ****** ****** ****** ****** ****** ******
      ****** ****** ****** ****** ****** ****** ****** ****** ****** ******
   3  ****** ****** ****** ****** ****** ****** ****** ****** ****** ******
      ****** ****** ****** ****** ****** ****** ****** ****** ****** ******
      ****** ****** ****** ****** ****** ****** ****** ****** ****** ******
   4  ****** ****** ****** ****** ****** ****** ****** ****** ****** ******
      ****** ****** ****** ****** ****** ****** ****** ****** ****** ******
      ****** ****** ****** ****** ****** ****** ****** ****** ****** ******
   5  ****** ****** ****** ****** ****** ****** ****** ****** ****** ******
      ****** ****** ****** ****** ****** ****** ****** ****** ****** ******
      ****** ****** ****** ****** ****** ****** ****** ****** ****** ******
   6  ****** ****** ****** ****** ****** ****** ****** ****** ****** ******
      ****** ****** ****** ****** ****** ****** ****** ****** ****** ******
      ****** ****** ****** ****** ****** ****** ****** ****** ****** ******
   7  ****** ****** ****** ****** ****** ****** ****** ****** ****** ******
      ****** ****** ****** ****** ****** ****** ****** ****** ****** ******
      ****** ****** ****** ****** ****** ****** ****** ****** ****** ******
   8  ****** ****** ****** ****** ****** ****** ****** ****** ****** ******
      ****** ****** ****** ****** ****** ****** ****** ****** ****** ******
      ****** ****** ****** ****** ****** ****** ****** ****** ****** ******
   9  ****** ****** ****** ****** ****** ****** ****** ****** ****** ******
      ****** ****** ****** ****** ****** ****** ****** ****** ****** ******
      ****** ****** ****** ****** ****** ****** ****** ****** ****** ******
  10  ****** ****** ****** ****** ****** ****** ****** ****** ****** ******
      ****** ****** ****** ****** ****** ****** ****** ****** ****** ******
      ****** ****** ****** ****** ****** ****** ****** ****** ****** ******
  11  ****** ****** ****** ****** ****** ****** ****** ****** ****** ******
      ****** ****** ****** ****** ****** ****** ****** ****** ****** ******
      ****** ****** ****** ****** ****** ****** ****** ****** ****** ******
  12  ****** ****** ****** ****** ****** ****** ****** ****** ****** ******
      ****** ****** ****** ****** ****** ****** ****** ****** ****** ******
      ****** ****** ****** ****** ****** ****** ****** ****** ****** ******
  13  ****** ****** ****** ****** ****** ****** ****** ****** ****** ******
      ****** ****** ****** ****** ****** ****** ****** ****** ****** ******
      ****** ****** ****** ****** ****** ****** ****** ****** ****** ******
  14  ****** ****** ****** ****** ****** ****** ****** ****** ****** ******
      ****** ****** ****** ****** ****** ****** ****** ****** ****** ******
      ****** ****** ****** ****** ****** ****** ****** ****** ****** ******
  15  ****** ****** ****** ****** ****** ****** ****** ****** ****** ******
      ****** ****** ****** ****** ****** ****** ****** ****** ****** ******
      ****** ****** ****** ****** ****** ****** ****** ****** ****** ******
  16  ****** ****** ****** ****** ****** ****** ****** ****** ****** ******
      ****** ****** ****** ****** ****** ****** ****** ****** ****** ******
      ****** ****** ****** ****** ****** ****** ****** ****** ****** ******
  17  ****** ****** ****** ****** ****** ****** ****** ****** ****** ******
      ****** ****** ****** ****** ****** ****** ****** ****** ****** ******
      ****** ****** ****** ****** ****** ****** ****** ****** ****** ******
  18  ****** ****** ****** ****** ****** ****** ****** ****** ****** ******
      ****** ****** ****** ****** ****** ****** ****** ****** ****** ******
      ****** ****** ****** ****** ****** ****** ****** ****** ****** ******
  19  ****** ****** ****** ****** ****** ****** ****** ****** ****** ******
      ****** ****** ****** ****** ****** ****** ****** ****** ****** ******
      ****** ****** ****** ****** ****** ****** ****** ****** ****** ******
  20  ****** ****** ****** ****** ****** ****** ****** ****** ****** ******
      ****** ****** ****** ****** ****** ****** ****** ****** ****** ******
      ****** ****** ****** ****** ****** ****** ****** ****** ****** ******
  21  ****** ****** ****** ****** ****** ****** ****** ****** ****** ******
      ****** ****** ****** ****** ****** ****** ****** ****** ****** ******
      ****** ****** ****** ****** ****** ****** ****** ****** ****** ******
  22  ****** ****** ****** ****** ****** ****** ****** ****** ****** ******
      ****** ****** ****** ****** ****** ****** ****** ****** ****** ******
      ****** ****** ****** ****** ****** ****** ****** ****** ****** ******
  23  ****** ****** ****** ****** ****** ****** ****** ****** ****** ******
      ****** ****** ****** ****** ****** ****** ****** ****** ****** ******
      ****** ****** ****** ****** ****** ****** ****** ****** ****** ******
  24  ****** ****** ****** ****** ****** ****** ****** ****** ****** ******
      ****** ****** ****** ****** ****** ****** ****** ****** ****** ******
      ****** ****** ****** ****** ****** ****** ****** ****** ****** ******
  25  ****** ****** ****** ****** ****** ****** ****** ****** ****** ******
      ****** ****** ****** ****** ****** ****** ****** ****** ****** ******
      ****** ****** ****** ****** ****** ****** ****** ****** ****** ******

 HEAD WILL BE SAVED ON UNIT   51 AT END OF TIME STEP    1, STRESS PERIOD    5
1
  VOLUMETRIC BUDGET FOR ENTIRE MODEL AT END OF TIME STEP    1, STRESS PERIOD   5
  ------------------------------------------------------------------------------

     CUMULATIVE VOLUMES      L**3       RATES FOR THIS TIME STEP      L**3/T
     ------------------                 ------------------------

           IN:                                      IN:
           ---                                      ---
             STORAGE =    31121704.6869               STORAGE =       18048.3717
       CONSTANT HEAD =    10434179.1630         CONSTANT HEAD =       31038.4101
               WELLS =           0.0000                 WELLS =           0.0000
            RECHARGE =    10074000.0000              RECHARGE =       13800.0000
      STREAM LEAKAGE =     4785378.8763        STREAM LEAKAGE =       14724.6419

            TOTAL IN =    56415262.7262              TOTAL IN =       77611.4237

          OUT:                                     OUT:
          ----                                     ----
             STORAGE =         328.5258               STORAGE =           0.0000
       CONSTANT HEAD =           0.0000         CONSTANT HEAD =           0.0000
               WELLS =    17815248.5706                 WELLS =       38983.0384
            RECHARGE =           0.0000              RECHARGE =           0.0000
      STREAM LEAKAGE =    38599687.8942        STREAM LEAKAGE =       38628.3883

           TOTAL OUT =    56415264.9907             TOTAL OUT =       77611.4268

            IN - OUT =          -2.2645              IN - OUT =      -3.0526E-03

 PERCENT DISCREPANCY =          -0.00     PERCENT DISCREPANCY =          -0.00






         TIME SUMMARY AT END OF TIME STEP    1 IN STRESS PERIOD    5
                    SECONDS     MINUTES      HOURS       DAYS        YEARS
                    -----------------------------------------------------------
   TIME STEP LENGTH 7.94880E+06 1.32480E+05  2208.0      92.000     0.25188    
 STRESS PERIOD TIME 7.94880E+06 1.32480E+05  2208.0      92.000     0.25188    
         TOTAL TIME 3.94848E+07 6.58080E+05  10968.      457.00      1.2512    
1
1
                            STRESS PERIOD NO.    6, LENGTH =   91.00000    
                            -----------------------------------------------

                              NUMBER OF TIME STEPS =     1

                               MULTIPLIER FOR DELT =     1.500

                            INITIAL TIME STEP SIZE =   91.00000    

 WELL NO.  LAYER   ROW   COL   STRESS RATE         
 --------------------------------------------------
      1      1     18     15      -8387.    
      2      1     17     18      -8258.    
      3      1     14     29     -0.1305E+05
      4      1     19     28      -9288.    

      4 WELLS

                 RECHARGE =  2.000000E-03

 REUSING STREAM SEGMENT DATA FROM LAST STRESS PERIOD
 
 SOLVING FOR HEAD 


     7 CALLS TO PCG ROUTINE FOR TIME STEP   1 IN STRESS PERIOD    6
    26 TOTAL ITERATIONS

 OUTPUT CONTROL FOR STRESS PERIOD    6   TIME STEP    1
    SAVE BUDGET
    SAVE HEAD FOR ALL LAYERS
    PRINT HEAD FOR ALL LAYERS
 UBDSV2 SAVING "STREAMFLOW OUT  " ON UNIT  50 AT TIME STEP  1, STRESS PERIOD   6



 STREAM LISTING     PERIOD      6   STEP        1

 LAYER ROW COL. STREAM  RCH.  FLOW INTO     FLOW TO   FLOW OUT OF   OVRLND.     DIRECT     STREAM       STREAM     STREAM     STREAM   STREAMBED  STREAMBED
                SEG.NO.  NO.  STRM. RCH.    AQUIFER    STRM. RCH.    RUNOFF     PRECIP       ET          HEAD       DEPTH      WIDTH   CONDCTNC.   GRADIENT

   1   13    1     1     1    1.0000E+05 -2.4493E+03   1.0245E+05  0.000E+00  0.000E+00  0.000E+00  4.84071E+01  1.457E-01  2.000E+01  2.000E+04 -1.225E-01
   1   13    2     1     2    1.0245E+05 -3.5033E+03   1.0595E+05  0.000E+00  0.000E+00  0.000E+00  4.79324E+01  1.483E-01  2.000E+01  2.000E+04 -1.752E-01
   1   14    3     1     3    1.0595E+05 -6.5583E+02   1.0661E+05  0.000E+00  0.000E+00  0.000E+00  4.74569E+01  1.500E-01  2.000E+01  2.000E+04 -3.279E-02
   1   15    4     1     4    1.0661E+05 -6.2502E+02   1.0723E+05  0.000E+00  0.000E+00  0.000E+00  4.69801E+01  1.506E-01  2.000E+01  2.000E+04 -3.125E-02
   1   16    5     1     5    1.0723E+05 -2.0482E+03   1.0928E+05  0.000E+00  0.000E+00  0.000E+00  4.65040E+01  1.517E-01  2.000E+01  2.000E+04 -1.024E-01
   1   16    6     1     6    1.0928E+05 -1.2682E+03   1.1055E+05  0.000E+00  0.000E+00  0.000E+00  4.60281E+01  1.531E-01  2.000E+01  2.000E+04 -6.341E-02
   1   16    7     1     7    1.1055E+05 -1.2085E+03   1.1176E+05  0.000E+00  0.000E+00  0.000E+00  4.55519E+01  1.541E-01  2.000E+01  2.000E+04 -6.042E-02
   1   16    8     1     8    1.1176E+05 -1.1508E+03   1.1291E+05  0.000E+00  0.000E+00  0.000E+00  4.50756E+01  1.551E-01  2.000E+01  2.000E+04 -5.754E-02
   1   16    9     1     9    1.1291E+05 -1.0638E+03   1.1397E+05  0.000E+00  0.000E+00  0.000E+00  4.45992E+01  1.560E-01  2.000E+01  2.000E+04 -5.319E-02
   1   16   10     1    10    1.1397E+05 -9.2860E+02   1.1490E+05  0.000E+00  0.000E+00  0.000E+00  4.41228E+01  1.568E-01  2.000E+01  2.000E+04 -4.643E-02
   1   16   11     1    11    1.1490E+05 -7.1445E+02   1.1562E+05  0.000E+00  0.000E+00  0.000E+00  4.36462E+01  1.575E-01  2.000E+01  2.000E+04 -3.572E-02
   1   16   12     1    12    1.1562E+05 -5.4724E+02   1.1616E+05  0.000E+00  0.000E+00  0.000E+00  4.31694E+01  1.580E-01  2.000E+01  2.000E+04 -2.736E-02
   1   15   13     1    13    1.1616E+05 -6.8077E+02   1.1684E+05  0.000E+00  0.000E+00  0.000E+00  4.26926E+01  1.585E-01  2.000E+01  2.000E+04 -3.404E-02
   1   14   14     1    14    1.1684E+05 -1.2425E+03   1.1809E+05  0.000E+00  0.000E+00  0.000E+00  4.22161E+01  1.593E-01  2.000E+01  2.000E+04 -6.213E-02
   1   13   15     1    15    1.1809E+05 -1.9644E+03   1.2005E+05  0.000E+00  0.000E+00  0.000E+00  4.17402E+01  1.606E-01  2.000E+01  2.000E+04 -9.822E-02
   1   12   16     1    16    1.2005E+05 -3.2626E+03   1.2331E+05  0.000E+00  0.000E+00  0.000E+00  4.12650E+01  1.627E-01  2.000E+01  2.000E+04 -1.631E-01
   1   12   17     1    17    1.2331E+05 -1.8736E+03   1.2519E+05  0.000E+00  0.000E+00  0.000E+00  4.07898E+01  1.648E-01  2.000E+01  2.000E+04 -9.368E-02
   1   12   18     1    18    1.2519E+05 -1.7613E+03   1.2695E+05  0.000E+00  0.000E+00  0.000E+00  4.03139E+01  1.662E-01  2.000E+01  2.000E+04 -8.807E-02
   1   12   19     1    19    1.2695E+05 -2.5664E+03   1.2951E+05  0.000E+00  0.000E+00  0.000E+00  3.98384E+01  1.679E-01  2.000E+01  2.000E+04 -1.283E-01
   1   13   20     1    20    1.2951E+05 -1.2929E+03   1.3081E+05  0.000E+00  0.000E+00  0.000E+00  3.93626E+01  1.694E-01  2.000E+01  2.000E+04 -6.465E-02
   1   14   21     1    21    1.3081E+05 -5.2236E+02   1.3133E+05  0.000E+00  0.000E+00  0.000E+00  3.88861E+01  1.701E-01  2.000E+01  2.000E+04 -2.612E-02
   1   14   22     1    22    1.3133E+05  5.0156E+03   1.2631E+05  0.000E+00  0.000E+00  0.000E+00  3.84070E+01  1.684E-01  2.000E+01  2.000E+04  2.508E-01
   1    9   30     2     1    5.0000E+04  1.3725E+02   4.9863E+04  0.000E+00  0.000E+00  0.000E+00  4.02408E+01  1.158E-01  2.000E+01  2.000E+04  6.863E-03
   1    9   29     2     2    4.9863E+04 -2.6089E+02   5.0124E+04  0.000E+00  0.000E+00  0.000E+00  3.99909E+01  1.159E-01  2.000E+01  2.000E+04 -1.304E-02
   1    9   28     2     3    5.0124E+04 -7.4236E+02   5.0866E+04  0.000E+00  0.000E+00  0.000E+00  3.97416E+01  1.166E-01  2.000E+01  2.000E+04 -3.712E-02
   1    9   27     2     4    5.0866E+04 -2.5057E+03   5.3372E+04  0.000E+00  0.000E+00  0.000E+00  3.94938E+01  1.188E-01  2.000E+01  2.000E+04 -1.253E-01
   1   10   26     2     5    5.3372E+04 -1.2159E+03   5.4588E+04  0.000E+00  0.000E+00  0.000E+00  3.92463E+01  1.213E-01  2.000E+01  2.000E+04 -6.079E-02
   1   11   25     2     6    5.4588E+04 -1.1723E+03   5.5760E+04  0.000E+00  0.000E+00  0.000E+00  3.89979E+01  1.229E-01  2.000E+01  2.000E+04 -5.862E-02
   1   12   24     2     7    5.5760E+04 -1.6697E+03   5.7430E+04  0.000E+00  0.000E+00  0.000E+00  3.87498E+01  1.248E-01  2.000E+01  2.000E+04 -8.349E-02
   1   13   23     2     8    5.7430E+04 -3.6856E+02   5.7798E+04  0.000E+00  0.000E+00  0.000E+00  3.85012E+01  1.262E-01  2.000E+01  2.000E+04 -1.843E-02
   1   14   22     2     9    5.7798E+04  1.8782E+03   5.5920E+04  0.000E+00  0.000E+00  0.000E+00  3.82502E+01  1.252E-01  2.000E+01  2.000E+04  9.391E-02
   1   14   22     3     1    1.8223E+05 -8.5245E+03   1.9076E+05  0.000E+00  0.000E+00  0.000E+00  3.77300E+01  1.745E-01  2.000E+01  2.000E+04 -4.262E-01
   1   15   23     3     2    1.9076E+05 -4.1045E+02   1.9117E+05  0.000E+00  0.000E+00  0.000E+00  3.68436E+01  1.770E-01  2.000E+01  2.000E+04 -2.052E-02
   1   15   24     3     3    1.9117E+05 -2.9429E+02   1.9146E+05  0.000E+00  0.000E+00  0.000E+00  3.59549E+01  1.772E-01  2.000E+01  2.000E+04 -1.471E-02
   1   15   25     3     4    1.9146E+05 -2.7059E+02   1.9173E+05  0.000E+00  0.000E+00  0.000E+00  3.50662E+01  1.773E-01  2.000E+01  2.000E+04 -1.353E-02
   1   15   26     3     5    1.9173E+05 -2.2544E+01   1.9176E+05  0.000E+00  0.000E+00  0.000E+00  3.41774E+01  1.774E-01  2.000E+01  2.000E+04 -1.127E-03
   1   16   27     3     6    1.9176E+05  2.9635E+02   1.9146E+05  0.000E+00  0.000E+00  0.000E+00  3.32884E+01  1.773E-01  2.000E+01  2.000E+04  1.482E-02
   1   17   28     3     7    1.9146E+05  3.4618E+03   1.8800E+05  0.000E+00  0.000E+00  0.000E+00  3.23985E+01  1.763E-01  2.000E+01  2.000E+04  1.731E-01
   1   18   29     3     8    1.8800E+05  2.0659E+03   1.8593E+05  0.000E+00  0.000E+00  0.000E+00  3.15081E+01  1.747E-01  2.000E+01  2.000E+04  1.033E-01
   1   18   30     3     9    1.8593E+05 -3.8680E+02   1.8632E+05  0.000E+00  0.000E+00  0.000E+00  3.06187E+01  1.743E-01  2.000E+01  2.000E+04 -1.934E-02



1
              HEAD IN LAYER   1 AT END OF TIME STEP   1 IN STRESS PERIOD    6
  ---------------------------------------------------------------------------

          1      2      3      4      5      6      7      8      9     10
         11     12     13     14     15     16     17     18     19     20
         21     22     23     24     25     26     27     28     29     30
 .........................................................................
   1  ****** ****** ****** ****** ****** ****** ****** ****** ****** ******
      ****** ****** ****** ****** ****** ****** ****** ****** ****** ******
      ****** ****** ****** ****** ****** ****** ****** ****** ****** ******
   2  ****** ****** ****** ****** ****** ****** ****** ****** ****** ******
      ****** ****** ****** ****** ****** ****** ****** ****** ****** ******
      ****** ****** ****** ****** ****** ****** ****** ****** ****** ******
   3  ****** ****** ****** ****** ****** ****** ****** ****** ****** ******
      ****** ****** ****** ****** ****** ****** ****** ****** ****** ******
      ****** ****** ****** ****** ****** ****** ****** ****** ****** ******
   4  ****** ****** ****** ****** ****** ****** ****** ****** ****** ******
      ****** ****** ****** ****** ****** ****** ****** ****** ****** ******
      ****** ****** ****** ****** ****** ****** ****** ****** ****** ******
   5  ****** ****** ****** ****** ****** ****** ****** ****** ****** ******
      ****** ****** ****** ****** ****** ****** ****** ****** ****** ******
      ****** ****** ****** ****** ****** ****** ****** ****** ****** ******
   6  ****** ****** ****** ****** ****** ****** ****** ****** ****** ******
      ****** ****** ****** ****** ****** ****** ****** ****** ****** ******
      ****** ****** ****** ****** ****** ****** ****** ****** ****** ******
   7  ****** ****** ****** ****** ****** ****** ****** ****** ****** ******
      ****** ****** ****** ****** ****** ****** ****** ****** ****** ******
      ****** ****** ****** ****** ****** ****** ****** ****** ****** ******
   8  ****** ****** ****** ****** ****** ****** ****** ****** ****** ******
      ****** ****** ****** ****** ****** ****** ****** ****** ****** ******
      ****** ****** ****** ****** ****** ****** ****** ****** ****** ******
   9  ****** ****** ****** ****** ****** ****** ****** ****** ****** ******
      ****** ****** ****** ****** ****** ****** ****** ****** ****** ******
      ****** ****** ****** ****** ****** ****** ****** ****** ****** ******
  10  ****** ****** ****** ****** ****** ****** ****** ****** ****** ******
      ****** ****** ****** ****** ****** ****** ****** ****** ****** ******
      ****** ****** ****** ****** ****** ****** ****** ****** ****** ******
  11  ****** ****** ****** ****** ****** ****** ****** ****** ****** ******
      ****** ****** ****** ****** ****** ****** ****** ****** ****** ******
      ****** ****** ****** ****** ****** ****** ****** ****** ****** ******
  12  ****** ****** ****** ****** ****** ****** ****** ****** ****** ******
      ****** ****** ****** ****** ****** ****** ****** ****** ****** ******
      ****** ****** ****** ****** ****** ****** ****** ****** ****** ******
  13  ****** ****** ****** ****** ****** ****** ****** ****** ****** ******
      ****** ****** ****** ****** ****** ****** ****** ****** ****** ******
      ****** ****** ****** ****** ****** ****** ****** ****** ****** ******
  14  ****** ****** ****** ****** ****** ****** ****** ****** ****** ******
      ****** ****** ****** ****** ****** ****** ****** ****** ****** ******
      ****** ****** ****** ****** ****** ****** ****** ****** ****** ******
  15  ****** ****** ****** ****** ****** ****** ****** ****** ****** ******
      ****** ****** ****** ****** ****** ****** ****** ****** ****** ******
      ****** ****** ****** ****** ****** ****** ****** ****** ****** ******
  16  ****** ****** ****** ****** ****** ****** ****** ****** ****** ******
      ****** ****** ****** ****** ****** ****** ****** ****** ****** ******
      ****** ****** ****** ****** ****** ****** ****** ****** ****** ******
  17  ****** ****** ****** ****** ****** ****** ****** ****** ****** ******
      ****** ****** ****** ****** ****** ****** ****** ****** ****** ******
      ****** ****** ****** ****** ****** ****** ****** ****** ****** ******
  18  ****** ****** ****** ****** ****** ****** ****** ****** ****** ******
      ****** ****** ****** ****** ****** ****** ****** ****** ****** ******
      ****** ****** ****** ****** ****** ****** ****** ****** ****** ******
  19  ****** ****** ****** ****** ****** ****** ****** ****** ****** ******
      ****** ****** ****** ****** ****** ****** ****** ****** ****** ******
      ****** ****** ****** ****** ****** ****** ****** ****** ****** ******
  20  ****** ****** ****** ****** ****** ****** ****** ****** ****** ******
      ****** ****** ****** ****** ****** ****** ****** ****** ****** ******
      ****** ****** ****** ****** ****** ****** ****** ****** ****** ******
  21  ****** ****** ****** ****** ****** ****** ****** ****** ****** ******
      ****** ****** ****** ****** ****** ****** ****** ****** ****** ******
      ****** ****** ****** ****** ****** ****** ****** ****** ****** ******
  22  ****** ****** ****** ****** ****** ****** ****** ****** ****** ******
      ****** ****** ****** ****** ****** ****** ****** ****** ****** ******
      ****** ****** ****** ****** ****** ****** ****** ****** ****** ******
  23  ****** ****** ****** ****** ****** ****** ****** ****** ****** ******
      ****** ****** ****** ****** ****** ****** ****** ****** ****** ******
      ****** ****** ****** ****** ****** ****** ****** ****** ****** ******
  24  ****** ****** ****** ****** ****** ****** ****** ****** ****** ******
      ****** ****** ****** ****** ****** ****** ****** ****** ****** ******
      ****** ****** ****** ****** ****** ****** ****** ****** ****** ******
  25  ****** ****** ****** ****** ****** ****** ****** ****** ****** ******
      ****** ****** ****** ****** ****** ****** ****** ****** ****** ******
      ****** ****** ****** ****** ****** ****** ****** ****** ****** ******

 HEAD WILL BE SAVED ON UNIT   51 AT END OF TIME STEP    1, STRESS PERIOD    6
1
  VOLUMETRIC BUDGET FOR ENTIRE MODEL AT END OF TIME STEP    1, STRESS PERIOD   6
  ------------------------------------------------------------------------------

     CUMULATIVE VOLUMES      L**3       RATES FOR THIS TIME STEP      L**3/T
     ------------------                 ------------------------

           IN:                                      IN:
           ---                                      ---
             STORAGE =    31121704.6869               STORAGE =           0.0000
       CONSTANT HEAD =    13083896.0191         CONSTANT HEAD =       29117.7676
               WELLS =           0.0000                 WELLS =           0.0000
            RECHARGE =    15097200.0000              RECHARGE =       55200.0000
      STREAM LEAKAGE =     5955197.6369        STREAM LEAKAGE =       12855.1512

            TOTAL IN =    65257998.3429              TOTAL IN =       97172.9189

          OUT:                                     OUT:
          ----                                     ----
             STORAGE =      820693.2095               STORAGE =        9014.9965
       CONSTANT HEAD =           0.0000         CONSTANT HEAD =           0.0000
               WELLS =    21362705.0694                 WELLS =       38983.0384
            RECHARGE =           0.0000              RECHARGE =           0.0000
      STREAM LEAKAGE =    43074602.0686        STREAM LEAKAGE =       49174.8810

           TOTAL OUT =    65258000.3475             TOTAL OUT =       97172.9160

            IN - OUT =          -2.0046              IN - OUT =       2.8560E-03

 PERCENT DISCREPANCY =          -0.00     PERCENT DISCREPANCY =           0.00






         TIME SUMMARY AT END OF TIME STEP    1 IN STRESS PERIOD    6
                    SECONDS     MINUTES      HOURS       DAYS        YEARS
                    -----------------------------------------------------------
   TIME STEP LENGTH 7.86240E+06 1.31040E+05  2184.0      91.000     0.24914    
 STRESS PERIOD TIME 7.86240E+06 1.31040E+05  2184.0      91.000     0.24914    
         TOTAL TIME 4.73472E+07 7.89120E+05  13152.      548.00      1.5003    
1
1
                            STRESS PERIOD NO.    7, LENGTH =   91.00000    
                            -----------------------------------------------

                              NUMBER OF TIME STEPS =     1

                               MULTIPLIER FOR DELT =     1.500

                            INITIAL TIME STEP SIZE =   91.00000    

 WELL NO.  LAYER   ROW   COL   STRESS RATE         
 --------------------------------------------------
      1      1     18     15      -8387.    
      2      1     17     18      -8258.    
      3      1     14     29     -0.1305E+05
      4      1     19     28      -9288.    

      4 WELLS

                 RECHARGE =   0.00000    

 REUSING STREAM SEGMENT DATA FROM LAST STRESS PERIOD
 
 SOLVING FOR HEAD 


     7 CALLS TO PCG ROUTINE FOR TIME STEP   1 IN STRESS PERIOD    7
    26 TOTAL ITERATIONS

 OUTPUT CONTROL FOR STRESS PERIOD    7   TIME STEP    1
    SAVE BUDGET
    SAVE HEAD FOR ALL LAYERS
    PRINT HEAD FOR ALL LAYERS
 UBDSV2 SAVING "STREAMFLOW OUT  " ON UNIT  50 AT TIME STEP  1, STRESS PERIOD   7



 STREAM LISTING     PERIOD      7   STEP        1

 LAYER ROW COL. STREAM  RCH.  FLOW INTO     FLOW TO   FLOW OUT OF   OVRLND.     DIRECT     STREAM       STREAM     STREAM     STREAM   STREAMBED  STREAMBED
                SEG.NO.  NO.  STRM. RCH.    AQUIFER    STRM. RCH.    RUNOFF     PRECIP       ET          HEAD       DEPTH      WIDTH   CONDCTNC.   GRADIENT

   1   13    1     1     1    1.0000E+05 -1.7909E+03   1.0179E+05  0.000E+00  0.000E+00  0.000E+00  4.84068E+01  1.454E-01  2.000E+01  2.000E+04 -8.955E-02
   1   13    2     1     2    1.0179E+05 -2.7671E+03   1.0456E+05  0.000E+00  0.000E+00  0.000E+00  4.79315E+01  1.474E-01  2.000E+01  2.000E+04 -1.384E-01
   1   14    3     1     3    1.0456E+05 -4.0486E+02   1.0496E+05  0.000E+00  0.000E+00  0.000E+00  4.74556E+01  1.487E-01  2.000E+01  2.000E+04 -2.024E-02
   1   15    4     1     4    1.0496E+05 -3.6281E+02   1.0533E+05  0.000E+00  0.000E+00  0.000E+00  4.69786E+01  1.491E-01  2.000E+01  2.000E+04 -1.814E-02
   1   16    5     1     5    1.0533E+05 -1.2914E+03   1.0662E+05  0.000E+00  0.000E+00  0.000E+00  4.65020E+01  1.498E-01  2.000E+01  2.000E+04 -6.457E-02
   1   16    6     1     6    1.0662E+05 -8.1231E+02   1.0743E+05  0.000E+00  0.000E+00  0.000E+00  4.60257E+01  1.507E-01  2.000E+01  2.000E+04 -4.062E-02
   1   16    7     1     7    1.0743E+05 -7.7108E+02   1.0820E+05  0.000E+00  0.000E+00  0.000E+00  4.55491E+01  1.513E-01  2.000E+01  2.000E+04 -3.855E-02
   1   16    8     1     8    1.0820E+05 -7.1914E+02   1.0892E+05  0.000E+00  0.000E+00  0.000E+00  4.50724E+01  1.520E-01  2.000E+01  2.000E+04 -3.596E-02
   1   16    9     1     9    1.0892E+05 -6.3487E+02   1.0955E+05  0.000E+00  0.000E+00  0.000E+00  4.45957E+01  1.525E-01  2.000E+01  2.000E+04 -3.174E-02
   1   16   10     1    10    1.0955E+05 -5.0153E+02   1.1006E+05  0.000E+00  0.000E+00  0.000E+00  4.41189E+01  1.530E-01  2.000E+01  2.000E+04 -2.508E-02
   1   16   11     1    11    1.1006E+05 -2.8518E+02   1.1034E+05  0.000E+00  0.000E+00  0.000E+00  4.36420E+01  1.533E-01  2.000E+01  2.000E+04 -1.426E-02
   1   16   12     1    12    1.1034E+05  1.7492E+02   1.1017E+05  0.000E+00  0.000E+00  0.000E+00  4.31647E+01  1.534E-01  2.000E+01  2.000E+04  8.746E-03
   1   15   13     1    13    1.1017E+05  8.8758E+01   1.1008E+05  0.000E+00  0.000E+00  0.000E+00  4.26874E+01  1.533E-01  2.000E+01  2.000E+04  4.438E-03
   1   14   14     1    14    1.1008E+05 -4.4829E+02   1.1053E+05  0.000E+00  0.000E+00  0.000E+00  4.22102E+01  1.534E-01  2.000E+01  2.000E+04 -2.241E-02
   1   13   15     1    15    1.1053E+05 -1.1713E+03   1.1170E+05  0.000E+00  0.000E+00  0.000E+00  4.17336E+01  1.541E-01  2.000E+01  2.000E+04 -5.856E-02
   1   12   16     1    16    1.1170E+05 -2.4813E+03   1.1418E+05  0.000E+00  0.000E+00  0.000E+00  4.12579E+01  1.556E-01  2.000E+01  2.000E+04 -1.241E-01
   1   12   17     1    17    1.1418E+05 -1.3020E+03   1.1548E+05  0.000E+00  0.000E+00  0.000E+00  4.07822E+01  1.572E-01  2.000E+01  2.000E+04 -6.510E-02
   1   12   18     1    18    1.1548E+05 -1.2028E+03   1.1668E+05  0.000E+00  0.000E+00  0.000E+00  4.03059E+01  1.582E-01  2.000E+01  2.000E+04 -6.014E-02
   1   12   19     1    19    1.1668E+05 -1.8851E+03   1.1857E+05  0.000E+00  0.000E+00  0.000E+00  3.98299E+01  1.595E-01  2.000E+01  2.000E+04 -9.426E-02
   1   13   20     1    20    1.1857E+05 -6.2223E+02   1.1919E+05  0.000E+00  0.000E+00  0.000E+00  3.93536E+01  1.605E-01  2.000E+01  2.000E+04 -3.111E-02
   1   14   21     1    21    1.1919E+05  1.4632E+02   1.1904E+05  0.000E+00  0.000E+00  0.000E+00  3.88766E+01  1.607E-01  2.000E+01  2.000E+04  7.316E-03
   1   14   22     1    22    1.1904E+05  5.1749E+03   1.1387E+05  0.000E+00  0.000E+00  0.000E+00  3.83971E+01  1.585E-01  2.000E+01  2.000E+04  2.587E-01
   1    9   30     2     1    5.0000E+04  6.4874E+02   4.9351E+04  0.000E+00  0.000E+00  0.000E+00  4.02404E+01  1.154E-01  2.000E+01  2.000E+04  3.244E-02
   1    9   29     2     2    4.9351E+04  2.4865E+02   4.9103E+04  0.000E+00  0.000E+00  0.000E+00  3.99898E+01  1.148E-01  2.000E+01  2.000E+04  1.243E-02
   1    9   28     2     3    4.9103E+04 -2.3190E+02   4.9335E+04  0.000E+00  0.000E+00  0.000E+00  3.97398E+01  1.148E-01  2.000E+01  2.000E+04 -1.160E-02
   1    9   27     2     4    4.9335E+04 -1.8140E+03   5.1149E+04  0.000E+00  0.000E+00  0.000E+00  3.94912E+01  1.162E-01  2.000E+01  2.000E+04 -9.070E-02
   1   10   26     2     5    5.1149E+04 -5.2113E+02   5.1670E+04  0.000E+00  0.000E+00  0.000E+00  3.92428E+01  1.178E-01  2.000E+01  2.000E+04 -2.606E-02
   1   11   25     2     6    5.1670E+04 -5.0587E+02   5.2176E+04  0.000E+00  0.000E+00  0.000E+00  3.89935E+01  1.185E-01  2.000E+01  2.000E+04 -2.529E-02
   1   12   24     2     7    5.2176E+04 -1.0623E+03   5.3238E+04  0.000E+00  0.000E+00  0.000E+00  3.87446E+01  1.196E-01  2.000E+01  2.000E+04 -5.312E-02
   1   13   23     2     8    5.3238E+04 -1.7729E+02   5.3415E+04  0.000E+00  0.000E+00  0.000E+00  3.84954E+01  1.204E-01  2.000E+01  2.000E+04 -8.865E-03
   1   14   22     2     9    5.3415E+04  2.1144E+03   5.1301E+04  0.000E+00  0.000E+00  0.000E+00  3.82441E+01  1.191E-01  2.000E+01  2.000E+04  1.057E-01
   1   14   22     3     1    1.6517E+05 -8.3636E+03   1.7353E+05  0.000E+00  0.000E+00  0.000E+00  3.77202E+01  1.647E-01  2.000E+01  2.000E+04 -4.182E-01
   1   15   23     3     2    1.7353E+05 -2.0188E+02   1.7374E+05  0.000E+00  0.000E+00  0.000E+00  3.68338E+01  1.671E-01  2.000E+01  2.000E+04 -1.009E-02
   1   15   24     3     3    1.7374E+05 -1.1941E+02   1.7386E+05  0.000E+00  0.000E+00  0.000E+00  3.59450E+01  1.672E-01  2.000E+01  2.000E+04 -5.971E-03
   1   15   25     3     4    1.7386E+05 -9.2751E+01   1.7395E+05  0.000E+00  0.000E+00  0.000E+00  3.50562E+01  1.673E-01  2.000E+01  2.000E+04 -4.638E-03
   1   15   26     3     5    1.7395E+05  1.7947E+02   1.7377E+05  0.000E+00  0.000E+00  0.000E+00  3.41673E+01  1.673E-01  2.000E+01  2.000E+04  8.973E-03
   1   16   27     3     6    1.7377E+05  5.3008E+02   1.7324E+05  0.000E+00  0.000E+00  0.000E+00  3.32782E+01  1.671E-01  2.000E+01  2.000E+04  2.650E-02
   1   17   28     3     7    1.7324E+05  4.1083E+03   1.6913E+05  0.000E+00  0.000E+00  0.000E+00  3.23879E+01  1.657E-01  2.000E+01  2.000E+04  2.054E-01
   1   18   29     3     8    1.6913E+05  2.7622E+03   1.6637E+05  0.000E+00  0.000E+00  0.000E+00  3.14971E+01  1.637E-01  2.000E+01  2.000E+04  1.381E-01
   1   18   30     3     9    1.6637E+05  1.4785E+02   1.6622E+05  0.000E+00  0.000E+00  0.000E+00  3.06073E+01  1.629E-01  2.000E+01  2.000E+04  7.393E-03



1
              HEAD IN LAYER   1 AT END OF TIME STEP   1 IN STRESS PERIOD    7
  ---------------------------------------------------------------------------

          1      2      3      4      5      6      7      8      9     10
         11     12     13     14     15     16     17     18     19     20
         21     22     23     24     25     26     27     28     29     30
 .........................................................................
   1  ****** ****** ****** ****** ****** ****** ****** ****** ****** ******
      ****** ****** ****** ****** ****** ****** ****** ****** ****** ******
      ****** ****** ****** ****** ****** ****** ****** ****** ****** ******
   2  ****** ****** ****** ****** ****** ****** ****** ****** ****** ******
      ****** ****** ****** ****** ****** ****** ****** ****** ****** ******
      ****** ****** ****** ****** ****** ****** ****** ****** ****** ******
   3  ****** ****** ****** ****** ****** ****** ****** ****** ****** ******
      ****** ****** ****** ****** ****** ****** ****** ****** ****** ******
      ****** ****** ****** ****** ****** ****** ****** ****** ****** ******
   4  ****** ****** ****** ****** ****** ****** ****** ****** ****** ******
      ****** ****** ****** ****** ****** ****** ****** ****** ****** ******
      ****** ****** ****** ****** ****** ****** ****** ****** ****** ******
   5  ****** ****** ****** ****** ****** ****** ****** ****** ****** ******
      ****** ****** ****** ****** ****** ****** ****** ****** ****** ******
      ****** ****** ****** ****** ****** ****** ****** ****** ****** ******
   6  ****** ****** ****** ****** ****** ****** ****** ****** ****** ******
      ****** ****** ****** ****** ****** ****** ****** ****** ****** ******
      ****** ****** ****** ****** ****** ****** ****** ****** ****** ******
   7  ****** ****** ****** ****** ****** ****** ****** ****** ****** ******
      ****** ****** ****** ****** ****** ****** ****** ****** ****** ******
      ****** ****** ****** ****** ****** ****** ****** ****** ****** ******
   8  ****** ****** ****** ****** ****** ****** ****** ****** ****** ******
      ****** ****** ****** ****** ****** ****** ****** ****** ****** ******
      ****** ****** ****** ****** ****** ****** ****** ****** ****** ******
   9  ****** ****** ****** ****** ****** ****** ****** ****** ****** ******
      ****** ****** ****** ****** ****** ****** ****** ****** ****** ******
      ****** ****** ****** ****** ****** ****** ****** ****** ****** ******
  10  ****** ****** ****** ****** ****** ****** ****** ****** ****** ******
      ****** ****** ****** ****** ****** ****** ****** ****** ****** ******
      ****** ****** ****** ****** ****** ****** ****** ****** ****** ******
  11  ****** ****** ****** ****** ****** ****** ****** ****** ****** ******
      ****** ****** ****** ****** ****** ****** ****** ****** ****** ******
      ****** ****** ****** ****** ****** ****** ****** ****** ****** ******
  12  ****** ****** ****** ****** ****** ****** ****** ****** ****** ******
      ****** ****** ****** ****** ****** ****** ****** ****** ****** ******
      ****** ****** ****** ****** ****** ****** ****** ****** ****** ******
  13  ****** ****** ****** ****** ****** ****** ****** ****** ****** ******
      ****** ****** ****** ****** ****** ****** ****** ****** ****** ******
      ****** ****** ****** ****** ****** ****** ****** ****** ****** ******
  14  ****** ****** ****** ****** ****** ****** ****** ****** ****** ******
      ****** ****** ****** ****** ****** ****** ****** ****** ****** ******
      ****** ****** ****** ****** ****** ****** ****** ****** ****** ******
  15  ****** ****** ****** ****** ****** ****** ****** ****** ****** ******
      ****** ****** ****** ****** ****** ****** ****** ****** ****** ******
      ****** ****** ****** ****** ****** ****** ****** ****** ****** ******
  16  ****** ****** ****** ****** ****** ****** ****** ****** ****** ******
      ****** ****** ****** ****** ****** ****** ****** ****** ****** ******
      ****** ****** ****** ****** ****** ****** ****** ****** ****** ******
  17  ****** ****** ****** ****** ****** ****** ****** ****** ****** ******
      ****** ****** ****** ****** ****** ****** ****** ****** ****** ******
      ****** ****** ****** ****** ****** ****** ****** ****** ****** ******
  18  ****** ****** ****** ****** ****** ****** ****** ****** ****** ******
      ****** ****** ****** ****** ****** ****** ****** ****** ****** ******
      ****** ****** ****** ****** ****** ****** ****** ****** ****** ******
  19  ****** ****** ****** ****** ****** ****** ****** ****** ****** ******
      ****** ****** ****** ****** ****** ****** ****** ****** ****** ******
      ****** ****** ****** ****** ****** ****** ****** ****** ****** ******
  20  ****** ****** ****** ****** ****** ****** ****** ****** ****** ******
      ****** ****** ****** ****** ****** ****** ****** ****** ****** ******
      ****** ****** ****** ****** ****** ****** ****** ****** ****** ******
  21  ****** ****** ****** ****** ****** ****** ****** ****** ****** ******
      ****** ****** ****** ****** ****** ****** ****** ****** ****** ******
      ****** ****** ****** ****** ****** ****** ****** ****** ****** ******
  22  ****** ****** ****** ****** ****** ****** ****** ****** ****** ******
      ****** ****** ****** ****** ****** ****** ****** ****** ****** ******
      ****** ****** ****** ****** ****** ****** ****** ****** ****** ******
  23  ****** ****** ****** ****** ****** ****** ****** ****** ****** ******
      ****** ****** ****** ****** ****** ****** ****** ****** ****** ******
      ****** ****** ****** ****** ****** ****** ****** ****** ****** ******
  24  ****** ****** ****** ****** ****** ****** ****** ****** ****** ******
      ****** ****** ****** ****** ****** ****** ****** ****** ****** ******
      ****** ****** ****** ****** ****** ****** ****** ****** ****** ******
  25  ****** ****** ****** ****** ****** ****** ****** ****** ****** ******
      ****** ****** ****** ****** ****** ****** ****** ****** ****** ******
      ****** ****** ****** ****** ****** ****** ****** ****** ****** ******

 HEAD WILL BE SAVED ON UNIT   51 AT END OF TIME STEP    1, STRESS PERIOD    7
1
  VOLUMETRIC BUDGET FOR ENTIRE MODEL AT END OF TIME STEP    1, STRESS PERIOD   7
  ------------------------------------------------------------------------------

     CUMULATIVE VOLUMES      L**3       RATES FOR THIS TIME STEP      L**3/T
     ------------------                 ------------------------

           IN:                                      IN:
           ---                                      ---
             STORAGE =    33139470.6040               STORAGE =       22173.2518
       CONSTANT HEAD =    16089597.3464         CONSTANT HEAD =       33029.6849
               WELLS =           0.0000                 WELLS =           0.0000
            RECHARGE =    15097200.0000              RECHARGE =           0.0000
      STREAM LEAKAGE =     7440735.5128        STREAM LEAKAGE =       16324.5920

            TOTAL IN =    71767003.4632              TOTAL IN =       71527.5288

          OUT:                                     OUT:
          ----                                     ----
             STORAGE =      820693.2095               STORAGE =           0.0000
       CONSTANT HEAD =           0.0000         CONSTANT HEAD =           0.0000
               WELLS =    24910161.5681                 WELLS =       38983.0384
            RECHARGE =           0.0000              RECHARGE =           0.0000
      STREAM LEAKAGE =    46036151.1827        STREAM LEAKAGE =       32544.4958

           TOTAL OUT =    71767005.9603             TOTAL OUT =       71527.5342

            IN - OUT =          -2.4972              IN - OUT =      -5.4134E-03

 PERCENT DISCREPANCY =          -0.00     PERCENT DISCREPANCY =          -0.00






         TIME SUMMARY AT END OF TIME STEP    1 IN STRESS PERIOD    7
                    SECONDS     MINUTES      HOURS       DAYS        YEARS
                    -----------------------------------------------------------
   TIME STEP LENGTH 7.86240E+06 1.31040E+05  2184.0      91.000     0.24914    
 STRESS PERIOD TIME 7.86240E+06 1.31040E+05  2184.0      91.000     0.24914    
         TOTAL TIME 5.52096E+07 9.20160E+05  15336.      639.00      1.7495    
1
1
                            STRESS PERIOD NO.    8, LENGTH =   91.00000    
                            -----------------------------------------------

                              NUMBER OF TIME STEPS =     1

                               MULTIPLIER FOR DELT =     1.500

                            INITIAL TIME STEP SIZE =   91.00000    

 WELL NO.  LAYER   ROW   COL   STRESS RATE         
 --------------------------------------------------
      1      1     18     15      -8387.    
      2      1     17     18      -8258.    
      3      1     14     29     -0.1305E+05
      4      1     19     28      -9288.    

      4 WELLS

                 RECHARGE =  1.000000E-03

 REUSING STREAM SEGMENT DATA FROM LAST STRESS PERIOD
 
 SOLVING FOR HEAD 


     6 CALLS TO PCG ROUTINE FOR TIME STEP   1 IN STRESS PERIOD    8
    22 TOTAL ITERATIONS

 OUTPUT CONTROL FOR STRESS PERIOD    8   TIME STEP    1
    SAVE BUDGET
    SAVE HEAD FOR ALL LAYERS
    PRINT HEAD FOR ALL LAYERS
 UBDSV2 SAVING "STREAMFLOW OUT  " ON UNIT  50 AT TIME STEP  1, STRESS PERIOD   8



 STREAM LISTING     PERIOD      8   STEP        1

 LAYER ROW COL. STREAM  RCH.  FLOW INTO     FLOW TO   FLOW OUT OF   OVRLND.     DIRECT     STREAM       STREAM     STREAM     STREAM   STREAMBED  STREAMBED
                SEG.NO.  NO.  STRM. RCH.    AQUIFER    STRM. RCH.    RUNOFF     PRECIP       ET          HEAD       DEPTH      WIDTH   CONDCTNC.   GRADIENT

   1   13    1     1     1    1.0000E+05 -1.8706E+03   1.0187E+05  0.000E+00  0.000E+00  0.000E+00  4.84068E+01  1.455E-01  2.000E+01  2.000E+04 -9.353E-02
   1   13    2     1     2    1.0187E+05 -2.8475E+03   1.0472E+05  0.000E+00  0.000E+00  0.000E+00  4.79316E+01  1.475E-01  2.000E+01  2.000E+04 -1.424E-01
   1   14    3     1     3    1.0472E+05 -4.6977E+02   1.0519E+05  0.000E+00  0.000E+00  0.000E+00  4.74557E+01  1.489E-01  2.000E+01  2.000E+04 -2.349E-02
   1   15    4     1     4    1.0519E+05 -4.3202E+02   1.0562E+05  0.000E+00  0.000E+00  0.000E+00  4.69788E+01  1.493E-01  2.000E+01  2.000E+04 -2.160E-02
   1   16    5     1     5    1.0562E+05 -1.4634E+03   1.0708E+05  0.000E+00  0.000E+00  0.000E+00  4.65024E+01  1.501E-01  2.000E+01  2.000E+04 -7.317E-02
   1   16    6     1     6    1.0708E+05 -9.1868E+02   1.0800E+05  0.000E+00  0.000E+00  0.000E+00  4.60261E+01  1.511E-01  2.000E+01  2.000E+04 -4.593E-02
   1   16    7     1     7    1.0800E+05 -8.7253E+02   1.0887E+05  0.000E+00  0.000E+00  0.000E+00  4.55496E+01  1.519E-01  2.000E+01  2.000E+04 -4.363E-02
   1   16    8     1     8    1.0887E+05 -8.1967E+02   1.0969E+05  0.000E+00  0.000E+00  0.000E+00  4.50730E+01  1.526E-01  2.000E+01  2.000E+04 -4.098E-02
   1   16    9     1     9    1.0969E+05 -7.3634E+02   1.1043E+05  0.000E+00  0.000E+00  0.000E+00  4.45964E+01  1.532E-01  2.000E+01  2.000E+04 -3.682E-02
   1   16   10     1    10    1.1043E+05 -6.0515E+02   1.1104E+05  0.000E+00  0.000E+00  0.000E+00  4.41197E+01  1.538E-01  2.000E+01  2.000E+04 -3.026E-02
   1   16   11     1    11    1.1104E+05 -3.9131E+02   1.1143E+05  0.000E+00  0.000E+00  0.000E+00  4.36428E+01  1.542E-01  2.000E+01  2.000E+04 -1.957E-02
   1   16   12     1    12    1.1143E+05  1.6763E+01   1.1141E+05  0.000E+00  0.000E+00  0.000E+00  4.31657E+01  1.543E-01  2.000E+01  2.000E+04  8.382E-04
   1   15   13     1    13    1.1141E+05 -7.8876E+01   1.1149E+05  0.000E+00  0.000E+00  0.000E+00  4.26885E+01  1.544E-01  2.000E+01  2.000E+04 -3.944E-03
   1   14   14     1    14    1.1149E+05 -6.1057E+02   1.1210E+05  0.000E+00  0.000E+00  0.000E+00  4.22115E+01  1.547E-01  2.000E+01  2.000E+04 -3.053E-02
   1   13   15     1    15    1.1210E+05 -1.3222E+03   1.1342E+05  0.000E+00  0.000E+00  0.000E+00  4.17350E+01  1.555E-01  2.000E+01  2.000E+04 -6.611E-02
   1   12   16     1    16    1.1342E+05 -2.5970E+03   1.1602E+05  0.000E+00  0.000E+00  0.000E+00  4.12593E+01  1.571E-01  2.000E+01  2.000E+04 -1.299E-01
   1   12   17     1    17    1.1602E+05 -1.4150E+03   1.1743E+05  0.000E+00  0.000E+00  0.000E+00  4.07837E+01  1.587E-01  2.000E+01  2.000E+04 -7.075E-02
   1   12   18     1    18    1.1743E+05 -1.3220E+03   1.1876E+05  0.000E+00  0.000E+00  0.000E+00  4.03076E+01  1.598E-01  2.000E+01  2.000E+04 -6.610E-02
   1   12   19     1    19    1.1876E+05 -2.0360E+03   1.2079E+05  0.000E+00  0.000E+00  0.000E+00  3.98316E+01  1.612E-01  2.000E+01  2.000E+04 -1.018E-01
   1   13   20     1    20    1.2079E+05 -7.9908E+02   1.2159E+05  0.000E+00  0.000E+00  0.000E+00  3.93555E+01  1.623E-01  2.000E+01  2.000E+04 -3.995E-02
   1   14   21     1    21    1.2159E+05 -7.6987E+00   1.2160E+05  0.000E+00  0.000E+00  0.000E+00  3.88786E+01  1.627E-01  2.000E+01  2.000E+04 -3.849E-04
   1   14   22     1    22    1.2160E+05  5.1279E+03   1.1647E+05  0.000E+00  0.000E+00  0.000E+00  3.83992E+01  1.606E-01  2.000E+01  2.000E+04  2.564E-01
   1    9   30     2     1    5.0000E+04  4.8466E+02   4.9515E+04  0.000E+00  0.000E+00  0.000E+00  4.02405E+01  1.155E-01  2.000E+01  2.000E+04  2.423E-02
   1    9   29     2     2    4.9515E+04  8.7309E+01   4.9428E+04  0.000E+00  0.000E+00  0.000E+00  3.99901E+01  1.151E-01  2.000E+01  2.000E+04  4.365E-03
   1    9   28     2     3    4.9428E+04 -3.8783E+02   4.9816E+04  0.000E+00  0.000E+00  0.000E+00  3.97403E+01  1.153E-01  2.000E+01  2.000E+04 -1.939E-02
   1    9   27     2     4    4.9816E+04 -1.9943E+03   5.1810E+04  0.000E+00  0.000E+00  0.000E+00  3.94920E+01  1.170E-01  2.000E+01  2.000E+04 -9.971E-02
   1   10   26     2     5    5.1810E+04 -7.2802E+02   5.2538E+04  0.000E+00  0.000E+00  0.000E+00  3.92439E+01  1.189E-01  2.000E+01  2.000E+04 -3.640E-02
   1   11   25     2     6    5.2538E+04 -7.1106E+02   5.3249E+04  0.000E+00  0.000E+00  0.000E+00  3.89948E+01  1.198E-01  2.000E+01  2.000E+04 -3.555E-02
   1   12   24     2     7    5.3249E+04 -1.2487E+03   5.4498E+04  0.000E+00  0.000E+00  0.000E+00  3.87462E+01  1.212E-01  2.000E+01  2.000E+04 -6.243E-02
   1   13   23     2     8    5.4498E+04 -2.5177E+02   5.4750E+04  0.000E+00  0.000E+00  0.000E+00  3.84972E+01  1.222E-01  2.000E+01  2.000E+04 -1.259E-02
   1   14   22     2     9    5.4750E+04  2.0625E+03   5.2687E+04  0.000E+00  0.000E+00  0.000E+00  3.82460E+01  1.210E-01  2.000E+01  2.000E+04  1.031E-01
   1   14   22     3     1    1.6916E+05 -8.4060E+03   1.7756E+05  0.000E+00  0.000E+00  0.000E+00  3.77225E+01  1.670E-01  2.000E+01  2.000E+04 -4.203E-01
   1   15   23     3     2    1.7756E+05 -2.6477E+02   1.7783E+05  0.000E+00  0.000E+00  0.000E+00  3.68361E+01  1.695E-01  2.000E+01  2.000E+04 -1.324E-02
   1   15   24     3     3    1.7783E+05 -1.7914E+02   1.7801E+05  0.000E+00  0.000E+00  0.000E+00  3.59474E+01  1.696E-01  2.000E+01  2.000E+04 -8.957E-03
   1   15   25     3     4    1.7801E+05 -1.5428E+02   1.7816E+05  0.000E+00  0.000E+00  0.000E+00  3.50586E+01  1.697E-01  2.000E+01  2.000E+04 -7.714E-03
   1   15   26     3     5    1.7816E+05  1.0529E+02   1.7806E+05  0.000E+00  0.000E+00  0.000E+00  3.41697E+01  1.697E-01  2.000E+01  2.000E+04  5.265E-03
   1   16   27     3     6    1.7806E+05  4.4912E+02   1.7761E+05  0.000E+00  0.000E+00  0.000E+00  3.32807E+01  1.696E-01  2.000E+01  2.000E+04  2.246E-02
   1   17   28     3     7    1.7761E+05  3.9075E+03   1.7370E+05  0.000E+00  0.000E+00  0.000E+00  3.23905E+01  1.683E-01  2.000E+01  2.000E+04  1.954E-01
   1   18   29     3     8    1.7370E+05  2.6031E+03   1.7110E+05  0.000E+00  0.000E+00  0.000E+00  3.14998E+01  1.664E-01  2.000E+01  2.000E+04  1.302E-01
   1   18   30     3     9    1.7110E+05  5.0827E+00   1.7109E+05  0.000E+00  0.000E+00  0.000E+00  3.06101E+01  1.657E-01  2.000E+01  2.000E+04  2.541E-04



1
              HEAD IN LAYER   1 AT END OF TIME STEP   1 IN STRESS PERIOD    8
  ---------------------------------------------------------------------------

          1      2      3      4      5      6      7      8      9     10
         11     12     13     14     15     16     17     18     19     20
         21     22     23     24     25     26     27     28     29     30
 .........................................................................
   1  ****** ****** ****** ****** ****** ****** ****** ****** ****** ******
      ****** ****** ****** ****** ****** ****** ****** ****** ****** ******
      ****** ****** ****** ****** ****** ****** ****** ****** ****** ******
   2  ****** ****** ****** ****** ****** ****** ****** ****** ****** ******
      ****** ****** ****** ****** ****** ****** ****** ****** ****** ******
      ****** ****** ****** ****** ****** ****** ****** ****** ****** ******
   3  ****** ****** ****** ****** ****** ****** ****** ****** ****** ******
      ****** ****** ****** ****** ****** ****** ****** ****** ****** ******
      ****** ****** ****** ****** ****** ****** ****** ****** ****** ******
   4  ****** ****** ****** ****** ****** ****** ****** ****** ****** ******
      ****** ****** ****** ****** ****** ****** ****** ****** ****** ******
      ****** ****** ****** ****** ****** ****** ****** ****** ****** ******
   5  ****** ****** ****** ****** ****** ****** ****** ****** ****** ******
      ****** ****** ****** ****** ****** ****** ****** ****** ****** ******
      ****** ****** ****** ****** ****** ****** ****** ****** ****** ******
   6  ****** ****** ****** ****** ****** ****** ****** ****** ****** ******
      ****** ****** ****** ****** ****** ****** ****** ****** ****** ******
      ****** ****** ****** ****** ****** ****** ****** ****** ****** ******
   7  ****** ****** ****** ****** ****** ****** ****** ****** ****** ******
      ****** ****** ****** ****** ****** ****** ****** ****** ****** ******
      ****** ****** ****** ****** ****** ****** ****** ****** ****** ******
   8  ****** ****** ****** ****** ****** ****** ****** ****** ****** ******
      ****** ****** ****** ****** ****** ****** ****** ****** ****** ******
      ****** ****** ****** ****** ****** ****** ****** ****** ****** ******
   9  ****** ****** ****** ****** ****** ****** ****** ****** ****** ******
      ****** ****** ****** ****** ****** ****** ****** ****** ****** ******
      ****** ****** ****** ****** ****** ****** ****** ****** ****** ******
  10  ****** ****** ****** ****** ****** ****** ****** ****** ****** ******
      ****** ****** ****** ****** ****** ****** ****** ****** ****** ******
      ****** ****** ****** ****** ****** ****** ****** ****** ****** ******
  11  ****** ****** ****** ****** ****** ****** ****** ****** ****** ******
      ****** ****** ****** ****** ****** ****** ****** ****** ****** ******
      ****** ****** ****** ****** ****** ****** ****** ****** ****** ******
  12  ****** ****** ****** ****** ****** ****** ****** ****** ****** ******
      ****** ****** ****** ****** ****** ****** ****** ****** ****** ******
      ****** ****** ****** ****** ****** ****** ****** ****** ****** ******
  13  ****** ****** ****** ****** ****** ****** ****** ****** ****** ******
      ****** ****** ****** ****** ****** ****** ****** ****** ****** ******
      ****** ****** ****** ****** ****** ****** ****** ****** ****** ******
  14  ****** ****** ****** ****** ****** ****** ****** ****** ****** ******
      ****** ****** ****** ****** ****** ****** ****** ****** ****** ******
      ****** ****** ****** ****** ****** ****** ****** ****** ****** ******
  15  ****** ****** ****** ****** ****** ****** ****** ****** ****** ******
      ****** ****** ****** ****** ****** ****** ****** ****** ****** ******
      ****** ****** ****** ****** ****** ****** ****** ****** ****** ******
  16  ****** ****** ****** ****** ****** ****** ****** ****** ****** ******
      ****** ****** ****** ****** ****** ****** ****** ****** ****** ******
      ****** ****** ****** ****** ****** ****** ****** ****** ****** ******
  17  ****** ****** ****** ****** ****** ****** ****** ****** ****** ******
      ****** ****** ****** ****** ****** ****** ****** ****** ****** ******
      ****** ****** ****** ****** ****** ****** ****** ****** ****** ******
  18  ****** ****** ****** ****** ****** ****** ****** ****** ****** ******
      ****** ****** ****** ****** ****** ****** ****** ****** ****** ******
      ****** ****** ****** ****** ****** ****** ****** ****** ****** ******
  19  ****** ****** ****** ****** ****** ****** ****** ****** ****** ******
      ****** ****** ****** ****** ****** ****** ****** ****** ****** ******
      ****** ****** ****** ****** ****** ****** ****** ****** ****** ******
  20  ****** ****** ****** ****** ****** ****** ****** ****** ****** ******
      ****** ****** ****** ****** ****** ****** ****** ****** ****** ******
      ****** ****** ****** ****** ****** ****** ****** ****** ****** ******
  21  ****** ****** ****** ****** ****** ****** ****** ****** ****** ******
      ****** ****** ****** ****** ****** ****** ****** ****** ****** ******
      ****** ****** ****** ****** ****** ****** ****** ****** ****** ******
  22  ****** ****** ****** ****** ****** ****** ****** ****** ****** ******
      ****** ****** ****** ****** ****** ****** ****** ****** ****** ******
      ****** ****** ****** ****** ****** ****** ****** ****** ****** ******
  23  ****** ****** ****** ****** ****** ****** ****** ****** ****** ******
      ****** ****** ****** ****** ****** ****** ****** ****** ****** ******
      ****** ****** ****** ****** ****** ****** ****** ****** ****** ******
  24  ****** ****** ****** ****** ****** ****** ****** ****** ****** ******
      ****** ****** ****** ****** ****** ****** ****** ****** ****** ******
      ****** ****** ****** ****** ****** ****** ****** ****** ****** ******
  25  ****** ****** ****** ****** ****** ****** ****** ****** ****** ******
      ****** ****** ****** ****** ****** ****** ****** ****** ****** ******
      ****** ****** ****** ****** ****** ****** ****** ****** ****** ******

 HEAD WILL BE SAVED ON UNIT   51 AT END OF TIME STEP    1, STRESS PERIOD    8
1
  VOLUMETRIC BUDGET FOR ENTIRE MODEL AT END OF TIME STEP    1, STRESS PERIOD   8
  ------------------------------------------------------------------------------

     CUMULATIVE VOLUMES      L**3       RATES FOR THIS TIME STEP      L**3/T
     ------------------                 ------------------------

           IN:                                      IN:
           ---                                      ---
             STORAGE =    33255330.3594               STORAGE =        1273.1841
       CONSTANT HEAD =    19067250.3126         CONSTANT HEAD =       32721.4612
               WELLS =           0.0000                 WELLS =           0.0000
            RECHARGE =    17608800.0000              RECHARGE =       27600.0000
      STREAM LEAKAGE =     8792018.2543        STREAM LEAKAGE =       14849.2609

            TOTAL IN =    78723398.9263              TOTAL IN =       76443.9062

          OUT:                                     OUT:
          ----                                     ----
             STORAGE =      958978.8374               STORAGE =        1519.6223
       CONSTANT HEAD =           0.0000         CONSTANT HEAD =           0.0000
               WELLS =    28457618.0668                 WELLS =       38983.0384
            RECHARGE =           0.0000              RECHARGE =           0.0000
      STREAM LEAKAGE =    49306803.7493        STREAM LEAKAGE =       35941.2370

           TOTAL OUT =    78723400.6535             TOTAL OUT =       76443.8977

            IN - OUT =          -1.7273              IN - OUT =       8.4605E-03

 PERCENT DISCREPANCY =          -0.00     PERCENT DISCREPANCY =           0.00






         TIME SUMMARY AT END OF TIME STEP    1 IN STRESS PERIOD    8
                    SECONDS     MINUTES      HOURS       DAYS        YEARS
                    -----------------------------------------------------------
   TIME STEP LENGTH 7.86240E+06 1.31040E+05  2184.0      91.000     0.24914    
 STRESS PERIOD TIME 7.86240E+06 1.31040E+05  2184.0      91.000     0.24914    
         TOTAL TIME 6.30720E+07 1.05120E+06  17520.      730.00      1.9986    
1
1
                            STRESS PERIOD NO.    9, LENGTH =   92.00000    
                            -----------------------------------------------

                              NUMBER OF TIME STEPS =     1

                               MULTIPLIER FOR DELT =     1.500

                            INITIAL TIME STEP SIZE =   92.00000    

 WELL NO.  LAYER   ROW   COL   STRESS RATE         
 --------------------------------------------------
      1      1     18     15      -8387.    
      2      1     17     18      -8258.    
      3      1     14     29     -0.1305E+05
      4      1     19     28      -9288.    

      4 WELLS

                 RECHARGE =  5.000000E-04

 REUSING STREAM SEGMENT DATA FROM LAST STRESS PERIOD
 
 SOLVING FOR HEAD 


     6 CALLS TO PCG ROUTINE FOR TIME STEP   1 IN STRESS PERIOD    9
    23 TOTAL ITERATIONS

 OUTPUT CONTROL FOR STRESS PERIOD    9   TIME STEP    1
    SAVE BUDGET
    SAVE HEAD FOR ALL LAYERS
    PRINT HEAD FOR ALL LAYERS
 UBDSV2 SAVING "STREAMFLOW OUT  " ON UNIT  50 AT TIME STEP  1, STRESS PERIOD   9



 STREAM LISTING     PERIOD      9   STEP        1

 LAYER ROW COL. STREAM  RCH.  FLOW INTO     FLOW TO   FLOW OUT OF   OVRLND.     DIRECT     STREAM       STREAM     STREAM     STREAM   STREAMBED  STREAMBED
                SEG.NO.  NO.  STRM. RCH.    AQUIFER    STRM. RCH.    RUNOFF     PRECIP       ET          HEAD       DEPTH      WIDTH   CONDCTNC.   GRADIENT

   1   13    1     1     1    1.0000E+05 -1.6609E+03   1.0166E+05  0.000E+00  0.000E+00  0.000E+00  4.84067E+01  1.454E-01  2.000E+01  2.000E+04 -8.305E-02
   1   13    2     1     2    1.0166E+05 -2.6103E+03   1.0427E+05  0.000E+00  0.000E+00  0.000E+00  4.79313E+01  1.472E-01  2.000E+01  2.000E+04 -1.305E-01
   1   14    3     1     3    1.0427E+05 -3.9969E+02   1.0467E+05  0.000E+00  0.000E+00  0.000E+00  4.74553E+01  1.485E-01  2.000E+01  2.000E+04 -1.998E-02
   1   15    4     1     4    1.0467E+05 -3.6069E+02   1.0503E+05  0.000E+00  0.000E+00  0.000E+00  4.69784E+01  1.488E-01  2.000E+01  2.000E+04 -1.803E-02
   1   16    5     1     5    1.0503E+05 -1.2702E+03   1.0630E+05  0.000E+00  0.000E+00  0.000E+00  4.65018E+01  1.495E-01  2.000E+01  2.000E+04 -6.351E-02
   1   16    6     1     6    1.0630E+05 -7.9862E+02   1.0710E+05  0.000E+00  0.000E+00  0.000E+00  4.60254E+01  1.504E-01  2.000E+01  2.000E+04 -3.993E-02
   1   16    7     1     7    1.0710E+05 -7.5627E+02   1.0786E+05  0.000E+00  0.000E+00  0.000E+00  4.55488E+01  1.510E-01  2.000E+01  2.000E+04 -3.781E-02
   1   16    8     1     8    1.0786E+05 -7.0489E+02   1.0856E+05  0.000E+00  0.000E+00  0.000E+00  4.50721E+01  1.517E-01  2.000E+01  2.000E+04 -3.524E-02
   1   16    9     1     9    1.0856E+05 -6.2302E+02   1.0918E+05  0.000E+00  0.000E+00  0.000E+00  4.45954E+01  1.522E-01  2.000E+01  2.000E+04 -3.115E-02
   1   16   10     1    10    1.0918E+05 -4.9361E+02   1.0968E+05  0.000E+00  0.000E+00  0.000E+00  4.41186E+01  1.527E-01  2.000E+01  2.000E+04 -2.468E-02
   1   16   11     1    11    1.0968E+05 -2.8043E+02   1.0996E+05  0.000E+00  0.000E+00  0.000E+00  4.36416E+01  1.530E-01  2.000E+01  2.000E+04 -1.402E-02
   1   16   12     1    12    1.0996E+05  2.0652E+02   1.0975E+05  0.000E+00  0.000E+00  0.000E+00  4.31644E+01  1.530E-01  2.000E+01  2.000E+04  1.033E-02
   1   15   13     1    13    1.0975E+05  1.3037E+02   1.0962E+05  0.000E+00  0.000E+00  0.000E+00  4.26870E+01  1.529E-01  2.000E+01  2.000E+04  6.518E-03
   1   14   14     1    14    1.0962E+05 -3.8909E+02   1.1001E+05  0.000E+00  0.000E+00  0.000E+00  4.22098E+01  1.530E-01  2.000E+01  2.000E+04 -1.945E-02
   1   13   15     1    15    1.1001E+05 -1.0960E+03   1.1111E+05  0.000E+00  0.000E+00  0.000E+00  4.17332E+01  1.536E-01  2.000E+01  2.000E+04 -5.480E-02
   1   12   16     1    16    1.1111E+05 -2.3646E+03   1.1347E+05  0.000E+00  0.000E+00  0.000E+00  4.12573E+01  1.551E-01  2.000E+01  2.000E+04 -1.182E-01
   1   12   17     1    17    1.1347E+05 -1.2542E+03   1.1473E+05  0.000E+00  0.000E+00  0.000E+00  4.07816E+01  1.566E-01  2.000E+01  2.000E+04 -6.271E-02
   1   12   18     1    18    1.1473E+05 -1.1683E+03   1.1589E+05  0.000E+00  0.000E+00  0.000E+00  4.03053E+01  1.576E-01  2.000E+01  2.000E+04 -5.842E-02
   1   12   19     1    19    1.1589E+05 -1.8513E+03   1.1775E+05  0.000E+00  0.000E+00  0.000E+00  3.98292E+01  1.588E-01  2.000E+01  2.000E+04 -9.256E-02
   1   13   20     1    20    1.1775E+05 -6.2539E+02   1.1837E+05  0.000E+00  0.000E+00  0.000E+00  3.93530E+01  1.598E-01  2.000E+01  2.000E+04 -3.127E-02
   1   14   21     1    21    1.1837E+05  1.6602E+02   1.1820E+05  0.000E+00  0.000E+00  0.000E+00  3.88759E+01  1.600E-01  2.000E+01  2.000E+04  8.301E-03
   1   14   22     1    22    1.1820E+05  5.1666E+03   1.1304E+05  0.000E+00  0.000E+00  0.000E+00  3.83965E+01  1.578E-01  2.000E+01  2.000E+04  2.583E-01
   1    9   30     2     1    5.0000E+04  6.0729E+02   4.9393E+04  0.000E+00  0.000E+00  0.000E+00  4.02404E+01  1.154E-01  2.000E+01  2.000E+04  3.036E-02
   1    9   29     2     2    4.9393E+04  2.1010E+02   4.9183E+04  0.000E+00  0.000E+00  0.000E+00  3.99899E+01  1.149E-01  2.000E+01  2.000E+04  1.051E-02
   1    9   28     2     3    4.9183E+04 -2.6328E+02   4.9446E+04  0.000E+00  0.000E+00  0.000E+00  3.97399E+01  1.149E-01  2.000E+01  2.000E+04 -1.316E-02
   1    9   27     2     4    4.9446E+04 -1.8196E+03   5.1265E+04  0.000E+00  0.000E+00  0.000E+00  3.94914E+01  1.164E-01  2.000E+01  2.000E+04 -9.098E-02
   1   10   26     2     5    5.1265E+04 -5.5586E+02   5.1821E+04  0.000E+00  0.000E+00  0.000E+00  3.92430E+01  1.180E-01  2.000E+01  2.000E+04 -2.779E-02
   1   11   25     2     6    5.1821E+04 -5.4628E+02   5.2368E+04  0.000E+00  0.000E+00  0.000E+00  3.89938E+01  1.188E-01  2.000E+01  2.000E+04 -2.731E-02
   1   12   24     2     7    5.2368E+04 -1.0972E+03   5.3465E+04  0.000E+00  0.000E+00  0.000E+00  3.87449E+01  1.199E-01  2.000E+01  2.000E+04 -5.486E-02
   1   13   23     2     8    5.3465E+04 -2.0487E+02   5.3670E+04  0.000E+00  0.000E+00  0.000E+00  3.84958E+01  1.208E-01  2.000E+01  2.000E+04 -1.024E-02
   1   14   22     2     9    5.3670E+04  2.1266E+03   5.1543E+04  0.000E+00  0.000E+00  0.000E+00  3.82445E+01  1.195E-01  2.000E+01  2.000E+04  1.063E-01
   1   14   22     3     1    1.6458E+05 -8.3651E+03   1.7295E+05  0.000E+00  0.000E+00  0.000E+00  3.77199E+01  1.643E-01  2.000E+01  2.000E+04 -4.183E-01
   1   15   23     3     2    1.7295E+05 -2.1155E+02   1.7316E+05  0.000E+00  0.000E+00  0.000E+00  3.68335E+01  1.668E-01  2.000E+01  2.000E+04 -1.058E-02
   1   15   24     3     3    1.7316E+05 -1.3574E+02   1.7329E+05  0.000E+00  0.000E+00  0.000E+00  3.59447E+01  1.669E-01  2.000E+01  2.000E+04 -6.787E-03
   1   15   25     3     4    1.7329E+05 -1.1066E+02   1.7340E+05  0.000E+00  0.000E+00  0.000E+00  3.50559E+01  1.670E-01  2.000E+01  2.000E+04 -5.533E-03
   1   15   26     3     5    1.7340E+05  1.5311E+02   1.7325E+05  0.000E+00  0.000E+00  0.000E+00  3.41670E+01  1.670E-01  2.000E+01  2.000E+04  7.656E-03
   1   16   27     3     6    1.7325E+05  5.0554E+02   1.7275E+05  0.000E+00  0.000E+00  0.000E+00  3.32779E+01  1.668E-01  2.000E+01  2.000E+04  2.528E-02
   1   17   28     3     7    1.7275E+05  4.0625E+03   1.6868E+05  0.000E+00  0.000E+00  0.000E+00  3.23877E+01  1.654E-01  2.000E+01  2.000E+04  2.031E-01
   1   18   29     3     8    1.6868E+05  2.7822E+03   1.6590E+05  0.000E+00  0.000E+00  0.000E+00  3.14968E+01  1.635E-01  2.000E+01  2.000E+04  1.391E-01
   1   18   30     3     9    1.6590E+05  1.3913E+02   1.6576E+05  0.000E+00  0.000E+00  0.000E+00  3.06070E+01  1.626E-01  2.000E+01  2.000E+04  6.957E-03



1
              HEAD IN LAYER   1 AT END OF TIME STEP   1 IN STRESS PERIOD    9
  ---------------------------------------------------------------------------

          1      2      3      4      5      6      7      8      9     10
         11     12     13     14     15     16     17     18     19     20
         21     22     23     24     25     26     27     28     29     30
 .........................................................................
   1  ****** ****** ****** ****** ****** ****** ****** ****** ****** ******
      ****** ****** ****** ****** ****** ****** ****** ****** ****** ******
      ****** ****** ****** ****** ****** ****** ****** ****** ****** ******
   2  ****** ****** ****** ****** ****** ****** ****** ****** ****** ******
      ****** ****** ****** ****** ****** ****** ****** ****** ****** ******
      ****** ****** ****** ****** ****** ****** ****** ****** ****** ******
   3  ****** ****** ****** ****** ****** ****** ****** ****** ****** ******
      ****** ****** ****** ****** ****** ****** ****** ****** ****** ******
      ****** ****** ****** ****** ****** ****** ****** ****** ****** ******
   4  ****** ****** ****** ****** ****** ****** ****** ****** ****** ******
      ****** ****** ****** ****** ****** ****** ****** ****** ****** ******
      ****** ****** ****** ****** ****** ****** ****** ****** ****** ******
   5  ****** ****** ****** ****** ****** ****** ****** ****** ****** ******
      ****** ****** ****** ****** ****** ****** ****** ****** ****** ******
      ****** ****** ****** ****** ****** ****** ****** ****** ****** ******
   6  ****** ****** ****** ****** ****** ****** ****** ****** ****** ******
      ****** ****** ****** ****** ****** ****** ****** ****** ****** ******
      ****** ****** ****** ****** ****** ****** ****** ****** ****** ******
   7  ****** ****** ****** ****** ****** ****** ****** ****** ****** ******
      ****** ****** ****** ****** ****** ****** ****** ****** ****** ******
      ****** ****** ****** ****** ****** ****** ****** ****** ****** ******
   8  ****** ****** ****** ****** ****** ****** ****** ****** ****** ******
      ****** ****** ****** ****** ****** ****** ****** ****** ****** ******
      ****** ****** ****** ****** ****** ****** ****** ****** ****** ******
   9  ****** ****** ****** ****** ****** ****** ****** ****** ****** ******
      ****** ****** ****** ****** ****** ****** ****** ****** ****** ******
      ****** ****** ****** ****** ****** ****** ****** ****** ****** ******
  10  ****** ****** ****** ****** ****** ****** ****** ****** ****** ******
      ****** ****** ****** ****** ****** ****** ****** ****** ****** ******
      ****** ****** ****** ****** ****** ****** ****** ****** ****** ******
  11  ****** ****** ****** ****** ****** ****** ****** ****** ****** ******
      ****** ****** ****** ****** ****** ****** ****** ****** ****** ******
      ****** ****** ****** ****** ****** ****** ****** ****** ****** ******
  12  ****** ****** ****** ****** ****** ****** ****** ****** ****** ******
      ****** ****** ****** ****** ****** ****** ****** ****** ****** ******
      ****** ****** ****** ****** ****** ****** ****** ****** ****** ******
  13  ****** ****** ****** ****** ****** ****** ****** ****** ****** ******
      ****** ****** ****** ****** ****** ****** ****** ****** ****** ******
      ****** ****** ****** ****** ****** ****** ****** ****** ****** ******
  14  ****** ****** ****** ****** ****** ****** ****** ****** ****** ******
      ****** ****** ****** ****** ****** ****** ****** ****** ****** ******
      ****** ****** ****** ****** ****** ****** ****** ****** ****** ******
  15  ****** ****** ****** ****** ****** ****** ****** ****** ****** ******
      ****** ****** ****** ****** ****** ****** ****** ****** ****** ******
      ****** ****** ****** ****** ****** ****** ****** ****** ****** ******
  16  ****** ****** ****** ****** ****** ****** ****** ****** ****** ******
      ****** ****** ****** ****** ****** ****** ****** ****** ****** ******
      ****** ****** ****** ****** ****** ****** ****** ****** ****** ******
  17  ****** ****** ****** ****** ****** ****** ****** ****** ****** ******
      ****** ****** ****** ****** ****** ****** ****** ****** ****** ******
      ****** ****** ****** ****** ****** ****** ****** ****** ****** ******
  18  ****** ****** ****** ****** ****** ****** ****** ****** ****** ******
      ****** ****** ****** ****** ****** ****** ****** ****** ****** ******
      ****** ****** ****** ****** ****** ****** ****** ****** ****** ******
  19  ****** ****** ****** ****** ****** ****** ****** ****** ****** ******
      ****** ****** ****** ****** ****** ****** ****** ****** ****** ******
      ****** ****** ****** ****** ****** ****** ****** ****** ****** ******
  20  ****** ****** ****** ****** ****** ****** ****** ****** ****** ******
      ****** ****** ****** ****** ****** ****** ****** ****** ****** ******
      ****** ****** ****** ****** ****** ****** ****** ****** ****** ******
  21  ****** ****** ****** ****** ****** ****** ****** ****** ****** ******
      ****** ****** ****** ****** ****** ****** ****** ****** ****** ******
      ****** ****** ****** ****** ****** ****** ****** ****** ****** ******
  22  ****** ****** ****** ****** ****** ****** ****** ****** ****** ******
      ****** ****** ****** ****** ****** ****** ****** ****** ****** ******
      ****** ****** ****** ****** ****** ****** ****** ****** ****** ******
  23  ****** ****** ****** ****** ****** ****** ****** ****** ****** ******
      ****** ****** ****** ****** ****** ****** ****** ****** ****** ******
      ****** ****** ****** ****** ****** ****** ****** ****** ****** ******
  24  ****** ****** ****** ****** ****** ****** ****** ****** ****** ******
      ****** ****** ****** ****** ****** ****** ****** ****** ****** ******
      ****** ****** ****** ****** ****** ****** ****** ****** ****** ******
  25  ****** ****** ****** ****** ****** ****** ****** ****** ****** ******
      ****** ****** ****** ****** ****** ****** ****** ****** ****** ******
      ****** ****** ****** ****** ****** ****** ****** ****** ****** ******

 HEAD WILL BE SAVED ON UNIT   51 AT END OF TIME STEP    1, STRESS PERIOD    9
1
  VOLUMETRIC BUDGET FOR ENTIRE MODEL AT END OF TIME STEP    1, STRESS PERIOD   9
  ------------------------------------------------------------------------------

     CUMULATIVE VOLUMES      L**3       RATES FOR THIS TIME STEP      L**3/T
     ------------------                 ------------------------

           IN:                                      IN:
           ---                                      ---
             STORAGE =    33905702.9950               STORAGE =        7069.2678
       CONSTANT HEAD =    22183808.5865         CONSTANT HEAD =       33875.6334
               WELLS =           0.0000                 WELLS =           0.0000
            RECHARGE =    18878400.0000              RECHARGE =       13800.0000
      STREAM LEAKAGE =    10287562.8311        STREAM LEAKAGE =       16255.9193

            TOTAL IN =    85255474.4126              TOTAL IN =       71000.8205

          OUT:                                     OUT:
          ----                                     ----
             STORAGE =      958978.8374               STORAGE =           0.0000
       CONSTANT HEAD =           0.0000         CONSTANT HEAD =           0.0000
               WELLS =    32044057.6040                 WELLS =       38983.0384
            RECHARGE =           0.0000              RECHARGE =           0.0000
      STREAM LEAKAGE =    52252439.7665        STREAM LEAKAGE =       32017.7828

           TOTAL OUT =    85255476.2079             TOTAL OUT =       71000.8212

            IN - OUT =          -1.7953              IN - OUT =      -7.3927E-04

 PERCENT DISCREPANCY =          -0.00     PERCENT DISCREPANCY =          -0.00






         TIME SUMMARY AT END OF TIME STEP    1 IN STRESS PERIOD    9
                    SECONDS     MINUTES      HOURS       DAYS        YEARS
                    -----------------------------------------------------------
   TIME STEP LENGTH 7.94880E+06 1.32480E+05  2208.0      92.000     0.25188    
 STRESS PERIOD TIME 7.94880E+06 1.32480E+05  2208.0      92.000     0.25188    
         TOTAL TIME 7.10208E+07 1.18368E+06  19728.      822.00      2.2505    
1
1
                            STRESS PERIOD NO.   10, LENGTH =   91.00000    
                            -----------------------------------------------

                              NUMBER OF TIME STEPS =     1

                               MULTIPLIER FOR DELT =     1.500

                            INITIAL TIME STEP SIZE =   91.00000    

 WELL NO.  LAYER   ROW   COL   STRESS RATE         
 --------------------------------------------------
      1      1     18     15      -8387.    
      2      1     17     18      -8258.    
      3      1     14     29     -0.1305E+05
      4      1     19     28      -9288.    

      4 WELLS

                 RECHARGE =  2.000000E-03

 REUSING STREAM SEGMENT DATA FROM LAST STRESS PERIOD
 
 SOLVING FOR HEAD 


     7 CALLS TO PCG ROUTINE FOR TIME STEP   1 IN STRESS PERIOD   10
    26 TOTAL ITERATIONS

 OUTPUT CONTROL FOR STRESS PERIOD   10   TIME STEP    1
    SAVE BUDGET
    SAVE HEAD FOR ALL LAYERS
    PRINT HEAD FOR ALL LAYERS
 UBDSV2 SAVING "STREAMFLOW OUT  " ON UNIT  50 AT TIME STEP  1, STRESS PERIOD  10



 STREAM LISTING     PERIOD     10   STEP        1

 LAYER ROW COL. STREAM  RCH.  FLOW INTO     FLOW TO   FLOW OUT OF   OVRLND.     DIRECT     STREAM       STREAM     STREAM     STREAM   STREAMBED  STREAMBED
                SEG.NO.  NO.  STRM. RCH.    AQUIFER    STRM. RCH.    RUNOFF     PRECIP       ET          HEAD       DEPTH      WIDTH   CONDCTNC.   GRADIENT

   1   13    1     1     1    1.0000E+05 -2.1170E+03   1.0212E+05  0.000E+00  0.000E+00  0.000E+00  4.84069E+01  1.456E-01  2.000E+01  2.000E+04 -1.059E-01
   1   13    2     1     2    1.0212E+05 -3.1160E+03   1.0523E+05  0.000E+00  0.000E+00  0.000E+00  4.79319E+01  1.478E-01  2.000E+01  2.000E+04 -1.558E-01
   1   14    3     1     3    1.0523E+05 -5.8680E+02   1.0582E+05  0.000E+00  0.000E+00  0.000E+00  4.74562E+01  1.494E-01  2.000E+01  2.000E+04 -2.934E-02
   1   15    4     1     4    1.0582E+05 -5.6054E+02   1.0638E+05  0.000E+00  0.000E+00  0.000E+00  4.69794E+01  1.499E-01  2.000E+01  2.000E+04 -2.803E-02
   1   16    5     1     5    1.0638E+05 -1.8889E+03   1.0827E+05  0.000E+00  0.000E+00  0.000E+00  4.65032E+01  1.509E-01  2.000E+01  2.000E+04 -9.444E-02
   1   16    6     1     6    1.0827E+05 -1.1609E+03   1.0943E+05  0.000E+00  0.000E+00  0.000E+00  4.60272E+01  1.522E-01  2.000E+01  2.000E+04 -5.805E-02
   1   16    7     1     7    1.0943E+05 -1.1009E+03   1.1053E+05  0.000E+00  0.000E+00  0.000E+00  4.55509E+01  1.531E-01  2.000E+01  2.000E+04 -5.504E-02
   1   16    8     1     8    1.1053E+05 -1.0440E+03   1.1158E+05  0.000E+00  0.000E+00  0.000E+00  4.50745E+01  1.540E-01  2.000E+01  2.000E+04 -5.220E-02
   1   16    9     1     9    1.1158E+05 -9.6050E+02   1.1254E+05  0.000E+00  0.000E+00  0.000E+00  4.45981E+01  1.549E-01  2.000E+01  2.000E+04 -4.803E-02
   1   16   10     1    10    1.1254E+05 -8.3111E+02   1.1337E+05  0.000E+00  0.000E+00  0.000E+00  4.41215E+01  1.556E-01  2.000E+01  2.000E+04 -4.156E-02
   1   16   11     1    11    1.1337E+05 -6.2116E+02   1.1399E+05  0.000E+00  0.000E+00  0.000E+00  4.36449E+01  1.562E-01  2.000E+01  2.000E+04 -3.106E-02
   1   16   12     1    12    1.1399E+05 -3.6229E+02   1.1435E+05  0.000E+00  0.000E+00  0.000E+00  4.31680E+01  1.566E-01  2.000E+01  2.000E+04 -1.811E-02
   1   15   13     1    13    1.1435E+05 -4.5665E+02   1.1481E+05  0.000E+00  0.000E+00  0.000E+00  4.26910E+01  1.570E-01  2.000E+01  2.000E+04 -2.283E-02
   1   14   14     1    14    1.1481E+05 -9.8411E+02   1.1579E+05  0.000E+00  0.000E+00  0.000E+00  4.22144E+01  1.576E-01  2.000E+01  2.000E+04 -4.921E-02
   1   13   15     1    15    1.1579E+05 -1.6818E+03   1.1747E+05  0.000E+00  0.000E+00  0.000E+00  4.17382E+01  1.586E-01  2.000E+01  2.000E+04 -8.409E-02
   1   12   16     1    16    1.1747E+05 -2.9302E+03   1.2040E+05  0.000E+00  0.000E+00  0.000E+00  4.12628E+01  1.605E-01  2.000E+01  2.000E+04 -1.465E-01
   1   12   17     1    17    1.2040E+05 -1.6814E+03   1.2208E+05  0.000E+00  0.000E+00  0.000E+00  4.07874E+01  1.624E-01  2.000E+01  2.000E+04 -8.407E-02
   1   12   18     1    18    1.2208E+05 -1.5910E+03   1.2368E+05  0.000E+00  0.000E+00  0.000E+00  4.03114E+01  1.637E-01  2.000E+01  2.000E+04 -7.955E-02
   1   12   19     1    19    1.2368E+05 -2.3716E+03   1.2605E+05  0.000E+00  0.000E+00  0.000E+00  3.98357E+01  1.653E-01  2.000E+01  2.000E+04 -1.186E-01
   1   13   20     1    20    1.2605E+05 -1.1468E+03   1.2719E+05  0.000E+00  0.000E+00  0.000E+00  3.93598E+01  1.667E-01  2.000E+01  2.000E+04 -5.734E-02
   1   14   21     1    21    1.2719E+05 -3.5794E+02   1.2755E+05  0.000E+00  0.000E+00  0.000E+00  3.88832E+01  1.673E-01  2.000E+01  2.000E+04 -1.790E-02
   1   14   22     1    22    1.2755E+05  5.0398E+03   1.2251E+05  0.000E+00  0.000E+00  0.000E+00  3.84040E+01  1.654E-01  2.000E+01  2.000E+04  2.520E-01
   1    9   30     2     1    5.0000E+04  1.9257E+02   4.9807E+04  0.000E+00  0.000E+00  0.000E+00  4.02407E+01  1.157E-01  2.000E+01  2.000E+04  9.629E-03
   1    9   29     2     2    4.9807E+04 -2.0236E+02   5.0010E+04  0.000E+00  0.000E+00  0.000E+00  3.99907E+01  1.157E-01  2.000E+01  2.000E+04 -1.012E-02
   1    9   28     2     3    5.0010E+04 -6.7501E+02   5.0685E+04  0.000E+00  0.000E+00  0.000E+00  3.97413E+01  1.163E-01  2.000E+01  2.000E+04 -3.375E-02
   1    9   27     2     4    5.0685E+04 -2.3738E+03   5.3059E+04  0.000E+00  0.000E+00  0.000E+00  3.94934E+01  1.184E-01  2.000E+01  2.000E+04 -1.187E-01
   1   10   26     2     5    5.3059E+04 -1.1099E+03   5.4168E+04  0.000E+00  0.000E+00  0.000E+00  3.92458E+01  1.208E-01  2.000E+01  2.000E+04 -5.549E-02
   1   11   25     2     6    5.4168E+04 -1.0757E+03   5.5244E+04  0.000E+00  0.000E+00  0.000E+00  3.89973E+01  1.223E-01  2.000E+01  2.000E+04 -5.378E-02
   1   12   24     2     7    5.5244E+04 -1.5764E+03   5.6821E+04  0.000E+00  0.000E+00  0.000E+00  3.87491E+01  1.241E-01  2.000E+01  2.000E+04 -7.882E-02
   1   13   23     2     8    5.6821E+04 -3.5371E+02   5.7174E+04  0.000E+00  0.000E+00  0.000E+00  3.85003E+01  1.253E-01  2.000E+01  2.000E+04 -1.769E-02
   1   14   22     2     9    5.7174E+04  1.9448E+03   5.5229E+04  0.000E+00  0.000E+00  0.000E+00  3.82493E+01  1.243E-01  2.000E+01  2.000E+04  9.724E-02
   1   14   22     3     1    1.7774E+05 -8.4914E+03   1.8623E+05  0.000E+00  0.000E+00  0.000E+00  3.77275E+01  1.719E-01  2.000E+01  2.000E+04 -4.246E-01
   1   15   23     3     2    1.8623E+05 -3.7373E+02   1.8661E+05  0.000E+00  0.000E+00  0.000E+00  3.68411E+01  1.744E-01  2.000E+01  2.000E+04 -1.869E-02
   1   15   24     3     3    1.8661E+05 -2.7271E+02   1.8688E+05  0.000E+00  0.000E+00  0.000E+00  3.59524E+01  1.746E-01  2.000E+01  2.000E+04 -1.364E-02
   1   15   25     3     4    1.8688E+05 -2.5106E+02   1.8713E+05  0.000E+00  0.000E+00  0.000E+00  3.50636E+01  1.747E-01  2.000E+01  2.000E+04 -1.255E-02
   1   15   26     3     5    1.8713E+05 -9.0068E+00   1.8714E+05  0.000E+00  0.000E+00  0.000E+00  3.41748E+01  1.748E-01  2.000E+01  2.000E+04 -4.503E-04
   1   16   27     3     6    1.8714E+05  3.1990E+02   1.8682E+05  0.000E+00  0.000E+00  0.000E+00  3.32858E+01  1.747E-01  2.000E+01  2.000E+04  1.600E-02
   1   17   28     3     7    1.8682E+05  3.5426E+03   1.8328E+05  0.000E+00  0.000E+00  0.000E+00  3.23959E+01  1.736E-01  2.000E+01  2.000E+04  1.771E-01
   1   18   29     3     8    1.8328E+05  2.2325E+03   1.8104E+05  0.000E+00  0.000E+00  0.000E+00  3.15054E+01  1.720E-01  2.000E+01  2.000E+04  1.116E-01
   1   18   30     3     9    1.8104E+05 -2.8509E+02   1.8133E+05  0.000E+00  0.000E+00  0.000E+00  3.06159E+01  1.715E-01  2.000E+01  2.000E+04 -1.425E-02



1
              HEAD IN LAYER   1 AT END OF TIME STEP   1 IN STRESS PERIOD   10
  ---------------------------------------------------------------------------

          1      2      3      4      5      6      7      8      9     10
         11     12     13     14     15     16     17     18     19     20
         21     22     23     24     25     26     27     28     29     30
 .........................................................................
   1  ****** ****** ****** ****** ****** ****** ****** ****** ****** ******
      ****** ****** ****** ****** ****** ****** ****** ****** ****** ******
      ****** ****** ****** ****** ****** ****** ****** ****** ****** ******
   2  ****** ****** ****** ****** ****** ****** ****** ****** ****** ******
      ****** ****** ****** ****** ****** ****** ****** ****** ****** ******
      ****** ****** ****** ****** ****** ****** ****** ****** ****** ******
   3  ****** ****** ****** ****** ****** ****** ****** ****** ****** ******
      ****** ****** ****** ****** ****** ****** ****** ****** ****** ******
      ****** ****** ****** ****** ****** ****** ****** ****** ****** ******
   4  ****** ****** ****** ****** ****** ****** ****** ****** ****** ******
      ****** ****** ****** ****** ****** ****** ****** ****** ****** ******
      ****** ****** ****** ****** ****** ****** ****** ****** ****** ******
   5  ****** ****** ****** ****** ****** ****** ****** ****** ****** ******
      ****** ****** ****** ****** ****** ****** ****** ****** ****** ******
      ****** ****** ****** ****** ****** ****** ****** ****** ****** ******
   6  ****** ****** ****** ****** ****** ****** ****** ****** ****** ******
      ****** ****** ****** ****** ****** ****** ****** ****** ****** ******
      ****** ****** ****** ****** ****** ****** ****** ****** ****** ******
   7  ****** ****** ****** ****** ****** ****** ****** ****** ****** ******
      ****** ****** ****** ****** ****** ****** ****** ****** ****** ******
      ****** ****** ****** ****** ****** ****** ****** ****** ****** ******
   8  ****** ****** ****** ****** ****** ****** ****** ****** ****** ******
      ****** ****** ****** ****** ****** ****** ****** ****** ****** ******
      ****** ****** ****** ****** ****** ****** ****** ****** ****** ******
   9  ****** ****** ****** ****** ****** ****** ****** ****** ****** ******
      ****** ****** ****** ****** ****** ****** ****** ****** ****** ******
      ****** ****** ****** ****** ****** ****** ****** ****** ****** ******
  10  ****** ****** ****** ****** ****** ****** ****** ****** ****** ******
      ****** ****** ****** ****** ****** ****** ****** ****** ****** ******
      ****** ****** ****** ****** ****** ****** ****** ****** ****** ******
  11  ****** ****** ****** ****** ****** ****** ****** ****** ****** ******
      ****** ****** ****** ****** ****** ****** ****** ****** ****** ******
      ****** ****** ****** ****** ****** ****** ****** ****** ****** ******
  12  ****** ****** ****** ****** ****** ****** ****** ****** ****** ******
      ****** ****** ****** ****** ****** ****** ****** ****** ****** ******
      ****** ****** ****** ****** ****** ****** ****** ****** ****** ******
  13  ****** ****** ****** ****** ****** ****** ****** ****** ****** ******
      ****** ****** ****** ****** ****** ****** ****** ****** ****** ******
      ****** ****** ****** ****** ****** ****** ****** ****** ****** ******
  14  ****** ****** ****** ****** ****** ****** ****** ****** ****** ******
      ****** ****** ****** ****** ****** ****** ****** ****** ****** ******
      ****** ****** ****** ****** ****** ****** ****** ****** ****** ******
  15  ****** ****** ****** ****** ****** ****** ****** ****** ****** ******
      ****** ****** ****** ****** ****** ****** ****** ****** ****** ******
      ****** ****** ****** ****** ****** ****** ****** ****** ****** ******
  16  ****** ****** ****** ****** ****** ****** ****** ****** ****** ******
      ****** ****** ****** ****** ****** ****** ****** ****** ****** ******
      ****** ****** ****** ****** ****** ****** ****** ****** ****** ******
  17  ****** ****** ****** ****** ****** ****** ****** ****** ****** ******
      ****** ****** ****** ****** ****** ****** ****** ****** ****** ******
      ****** ****** ****** ****** ****** ****** ****** ****** ****** ******
  18  ****** ****** ****** ****** ****** ****** ****** ****** ****** ******
      ****** ****** ****** ****** ****** ****** ****** ****** ****** ******
      ****** ****** ****** ****** ****** ****** ****** ****** ****** ******
  19  ****** ****** ****** ****** ****** ****** ****** ****** ****** ******
      ****** ****** ****** ****** ****** ****** ****** ****** ****** ******
      ****** ****** ****** ****** ****** ****** ****** ****** ****** ******
  20  ****** ****** ****** ****** ****** ****** ****** ****** ****** ******
      ****** ****** ****** ****** ****** ****** ****** ****** ****** ******
      ****** ****** ****** ****** ****** ****** ****** ****** ****** ******
  21  ****** ****** ****** ****** ****** ****** ****** ****** ****** ******
      ****** ****** ****** ****** ****** ****** ****** ****** ****** ******
      ****** ****** ****** ****** ****** ****** ****** ****** ****** ******
  22  ****** ****** ****** ****** ****** ****** ****** ****** ****** ******
      ****** ****** ****** ****** ****** ****** ****** ****** ****** ******
      ****** ****** ****** ****** ****** ****** ****** ****** ****** ******
  23  ****** ****** ****** ****** ****** ****** ****** ****** ****** ******
      ****** ****** ****** ****** ****** ****** ****** ****** ****** ******
      ****** ****** ****** ****** ****** ****** ****** ****** ****** ******
  24  ****** ****** ****** ****** ****** ****** ****** ****** ****** ******
      ****** ****** ****** ****** ****** ****** ****** ****** ****** ******
      ****** ****** ****** ****** ****** ****** ****** ****** ****** ******
  25  ****** ****** ****** ****** ****** ****** ****** ****** ****** ******
      ****** ****** ****** ****** ****** ****** ****** ****** ****** ******
      ****** ****** ****** ****** ****** ****** ****** ****** ****** ******

 HEAD WILL BE SAVED ON UNIT   51 AT END OF TIME STEP    1, STRESS PERIOD   10
1
  VOLUMETRIC BUDGET FOR ENTIRE MODEL AT END OF TIME STEP    1, STRESS PERIOD  10
  ------------------------------------------------------------------------------

     CUMULATIVE VOLUMES      L**3       RATES FOR THIS TIME STEP      L**3/T
     ------------------                 ------------------------

           IN:                                      IN:
           ---                                      ---
             STORAGE =    33905702.9950               STORAGE =           0.0000
       CONSTANT HEAD =    24996808.3577         CONSTANT HEAD =       30912.0854
               WELLS =           0.0000                 WELLS =           0.0000
            RECHARGE =    23901600.0000              RECHARGE =       55200.0000
      STREAM LEAKAGE =    11495334.2214        STREAM LEAKAGE =       13272.2131

            TOTAL IN =    94299445.5741              TOTAL IN =       99384.2985

          OUT:                                     OUT:
          ----                                     ----
             STORAGE =     2396763.7430               STORAGE =       15799.8341
       CONSTANT HEAD =           0.0000         CONSTANT HEAD =           0.0000
               WELLS =    35591514.1028                 WELLS =       38983.0384
            RECHARGE =           0.0000              RECHARGE =           0.0000
      STREAM LEAKAGE =    56311169.2686        STREAM LEAKAGE =       44601.4231

           TOTAL OUT =    94299447.1143             TOTAL OUT =       99384.2957

            IN - OUT =          -1.5402              IN - OUT =       2.8034E-03

 PERCENT DISCREPANCY =          -0.00     PERCENT DISCREPANCY =           0.00






         TIME SUMMARY AT END OF TIME STEP    1 IN STRESS PERIOD   10
                    SECONDS     MINUTES      HOURS       DAYS        YEARS
                    -----------------------------------------------------------
   TIME STEP LENGTH 7.86240E+06 1.31040E+05  2184.0      91.000     0.24914    
 STRESS PERIOD TIME 7.86240E+06 1.31040E+05  2184.0      91.000     0.24914    
         TOTAL TIME 7.88832E+07 1.31472E+06  21912.      913.00      2.4997    
1
1
                            STRESS PERIOD NO.   11, LENGTH =   91.00000    
                            -----------------------------------------------

                              NUMBER OF TIME STEPS =     1

                               MULTIPLIER FOR DELT =     1.500

                            INITIAL TIME STEP SIZE =   91.00000    

 WELL NO.  LAYER   ROW   COL   STRESS RATE         
 --------------------------------------------------
      1      1     18     15      -8387.    
      2      1     17     18      -8258.    
      3      1     14     29     -0.1305E+05
      4      1     19     28      -9288.    

      4 WELLS

                 RECHARGE =   0.00000    

 REUSING STREAM SEGMENT DATA FROM LAST STRESS PERIOD
 
 SOLVING FOR HEAD 


     7 CALLS TO PCG ROUTINE FOR TIME STEP   1 IN STRESS PERIOD   11
    26 TOTAL ITERATIONS

 OUTPUT CONTROL FOR STRESS PERIOD   11   TIME STEP    1
    SAVE BUDGET
    SAVE HEAD FOR ALL LAYERS
    PRINT HEAD FOR ALL LAYERS
 UBDSV2 SAVING "STREAMFLOW OUT  " ON UNIT  50 AT TIME STEP  1, STRESS PERIOD  11



 STREAM LISTING     PERIOD     11   STEP        1

 LAYER ROW COL. STREAM  RCH.  FLOW INTO     FLOW TO   FLOW OUT OF   OVRLND.     DIRECT     STREAM       STREAM     STREAM     STREAM   STREAMBED  STREAMBED
                SEG.NO.  NO.  STRM. RCH.    AQUIFER    STRM. RCH.    RUNOFF     PRECIP       ET          HEAD       DEPTH      WIDTH   CONDCTNC.   GRADIENT

   1   13    1     1     1    1.0000E+05 -1.5520E+03   1.0155E+05  0.000E+00  0.000E+00  0.000E+00  4.84067E+01  1.453E-01  2.000E+01  2.000E+04 -7.760E-02
   1   13    2     1     2    1.0155E+05 -2.4870E+03   1.0404E+05  0.000E+00  0.000E+00  0.000E+00  4.79312E+01  1.471E-01  2.000E+01  2.000E+04 -1.244E-01
   1   14    3     1     3    1.0404E+05 -3.5636E+02   1.0440E+05  0.000E+00  0.000E+00  0.000E+00  4.74551E+01  1.483E-01  2.000E+01  2.000E+04 -1.782E-02
   1   15    4     1     4    1.0440E+05 -3.1899E+02   1.0471E+05  0.000E+00  0.000E+00  0.000E+00  4.69781E+01  1.486E-01  2.000E+01  2.000E+04 -1.595E-02
   1   16    5     1     5    1.0471E+05 -1.2010E+03   1.0592E+05  0.000E+00  0.000E+00  0.000E+00  4.65015E+01  1.492E-01  2.000E+01  2.000E+04 -6.005E-02
   1   16    6     1     6    1.0592E+05 -7.4683E+02   1.0666E+05  0.000E+00  0.000E+00  0.000E+00  4.60250E+01  1.500E-01  2.000E+01  2.000E+04 -3.734E-02
   1   16    7     1     7    1.0666E+05 -7.0437E+02   1.0737E+05  0.000E+00  0.000E+00  0.000E+00  4.55484E+01  1.507E-01  2.000E+01  2.000E+04 -3.522E-02
   1   16    8     1     8    1.0737E+05 -6.5300E+02   1.0802E+05  0.000E+00  0.000E+00  0.000E+00  4.50717E+01  1.512E-01  2.000E+01  2.000E+04 -3.265E-02
   1   16    9     1     9    1.0802E+05 -5.7168E+02   1.0859E+05  0.000E+00  0.000E+00  0.000E+00  4.45949E+01  1.517E-01  2.000E+01  2.000E+04 -2.858E-02
   1   16   10     1    10    1.0859E+05 -4.4325E+02   1.0903E+05  0.000E+00  0.000E+00  0.000E+00  4.41181E+01  1.522E-01  2.000E+01  2.000E+04 -2.216E-02
   1   16   11     1    11    1.0903E+05 -2.3134E+02   1.0927E+05  0.000E+00  0.000E+00  0.000E+00  4.36411E+01  1.525E-01  2.000E+01  2.000E+04 -1.157E-02
   1   16   12     1    12    1.0927E+05  2.8358E+02   1.0898E+05  0.000E+00  0.000E+00  0.000E+00  4.31638E+01  1.524E-01  2.000E+01  2.000E+04  1.418E-02
   1   15   13     1    13    1.0898E+05  2.3127E+02   1.0875E+05  0.000E+00  0.000E+00  0.000E+00  4.26863E+01  1.522E-01  2.000E+01  2.000E+04  1.156E-02
   1   14   14     1    14    1.0875E+05 -2.7900E+02   1.0903E+05  0.000E+00  0.000E+00  0.000E+00  4.22091E+01  1.522E-01  2.000E+01  2.000E+04 -1.395E-02
   1   13   15     1    15    1.0903E+05 -9.8273E+02   1.1001E+05  0.000E+00  0.000E+00  0.000E+00  4.17323E+01  1.528E-01  2.000E+01  2.000E+04 -4.914E-02
   1   12   16     1    16    1.1001E+05 -2.2555E+03   1.1227E+05  0.000E+00  0.000E+00  0.000E+00  4.12564E+01  1.541E-01  2.000E+01  2.000E+04 -1.128E-01
   1   12   17     1    17    1.1227E+05 -1.1759E+03   1.1344E+05  0.000E+00  0.000E+00  0.000E+00  4.07805E+01  1.555E-01  2.000E+01  2.000E+04 -5.879E-02
   1   12   18     1    18    1.1344E+05 -1.0929E+03   1.1454E+05  0.000E+00  0.000E+00  0.000E+00  4.03042E+01  1.565E-01  2.000E+01  2.000E+04 -5.465E-02
   1   12   19     1    19    1.1454E+05 -1.7601E+03   1.1630E+05  0.000E+00  0.000E+00  0.000E+00  3.98281E+01  1.576E-01  2.000E+01  2.000E+04 -8.801E-02
   1   13   20     1    20    1.1630E+05 -5.3473E+02   1.1683E+05  0.000E+00  0.000E+00  0.000E+00  3.93518E+01  1.586E-01  2.000E+01  2.000E+04 -2.674E-02
   1   14   21     1    21    1.1683E+05  2.3945E+02   1.1659E+05  0.000E+00  0.000E+00  0.000E+00  3.88746E+01  1.587E-01  2.000E+01  2.000E+04  1.197E-02
   1   14   22     1    22    1.1659E+05  5.1866E+03   1.1141E+05  0.000E+00  0.000E+00  0.000E+00  3.83951E+01  1.565E-01  2.000E+01  2.000E+04  2.593E-01
   1    9   30     2     1    5.0000E+04  6.8029E+02   4.9320E+04  0.000E+00  0.000E+00  0.000E+00  4.02404E+01  1.154E-01  2.000E+01  2.000E+04  3.401E-02
   1    9   29     2     2    4.9320E+04  2.8228E+02   4.9037E+04  0.000E+00  0.000E+00  0.000E+00  3.99897E+01  1.147E-01  2.000E+01  2.000E+04  1.411E-02
   1    9   28     2     3    4.9037E+04 -1.9265E+02   4.9230E+04  0.000E+00  0.000E+00  0.000E+00  3.97397E+01  1.147E-01  2.000E+01  2.000E+04 -9.632E-03
   1    9   27     2     4    4.9230E+04 -1.7350E+03   5.0965E+04  0.000E+00  0.000E+00  0.000E+00  3.94910E+01  1.160E-01  2.000E+01  2.000E+04 -8.675E-02
   1   10   26     2     5    5.0965E+04 -4.5647E+02   5.1422E+04  0.000E+00  0.000E+00  0.000E+00  3.92425E+01  1.175E-01  2.000E+01  2.000E+04 -2.282E-02
   1   11   25     2     6    5.1422E+04 -4.4607E+02   5.1868E+04  0.000E+00  0.000E+00  0.000E+00  3.89931E+01  1.181E-01  2.000E+01  2.000E+04 -2.230E-02
   1   12   24     2     7    5.1868E+04 -1.0038E+03   5.2871E+04  0.000E+00  0.000E+00  0.000E+00  3.87441E+01  1.191E-01  2.000E+01  2.000E+04 -5.019E-02
   1   13   23     2     8    5.2871E+04 -1.6797E+02   5.3039E+04  0.000E+00  0.000E+00  0.000E+00  3.84949E+01  1.199E-01  2.000E+01  2.000E+04 -8.398E-03
   1   14   22     2     9    5.3039E+04  2.1557E+03   5.0884E+04  0.000E+00  0.000E+00  0.000E+00  3.82436E+01  1.186E-01  2.000E+01  2.000E+04  1.078E-01
   1   14   22     3     1    1.6229E+05 -8.3454E+03   1.7063E+05  0.000E+00  0.000E+00  0.000E+00  3.77185E+01  1.630E-01  2.000E+01  2.000E+04 -4.173E-01
   1   15   23     3     2    1.7063E+05 -1.8151E+02   1.7082E+05  0.000E+00  0.000E+00  0.000E+00  3.68321E+01  1.655E-01  2.000E+01  2.000E+04 -9.076E-03
   1   15   24     3     3    1.7082E+05 -1.0748E+02   1.7092E+05  0.000E+00  0.000E+00  0.000E+00  3.59433E+01  1.655E-01  2.000E+01  2.000E+04 -5.374E-03
   1   15   25     3     4    1.7092E+05 -8.2007E+01   1.7101E+05  0.000E+00  0.000E+00  0.000E+00  3.50545E+01  1.656E-01  2.000E+01  2.000E+04 -4.100E-03
   1   15   26     3     5    1.7101E+05  1.8675E+02   1.7082E+05  0.000E+00  0.000E+00  0.000E+00  3.41656E+01  1.656E-01  2.000E+01  2.000E+04  9.337E-03
   1   16   27     3     6    1.7082E+05  5.4303E+02   1.7028E+05  0.000E+00  0.000E+00  0.000E+00  3.32765E+01  1.654E-01  2.000E+01  2.000E+04  2.715E-02
   1   17   28     3     7    1.7028E+05  4.1528E+03   1.6612E+05  0.000E+00  0.000E+00  0.000E+00  3.23862E+01  1.640E-01  2.000E+01  2.000E+04  2.076E-01
   1   18   29     3     8    1.6612E+05  2.8552E+03   1.6327E+05  0.000E+00  0.000E+00  0.000E+00  3.14953E+01  1.619E-01  2.000E+01  2.000E+04  1.428E-01
   1   18   30     3     9    1.6327E+05  2.0444E+02   1.6306E+05  0.000E+00  0.000E+00  0.000E+00  3.06055E+01  1.610E-01  2.000E+01  2.000E+04  1.022E-02



1
              HEAD IN LAYER   1 AT END OF TIME STEP   1 IN STRESS PERIOD   11
  ---------------------------------------------------------------------------

          1      2      3      4      5      6      7      8      9     10
         11     12     13     14     15     16     17     18     19     20
         21     22     23     24     25     26     27     28     29     30
 .........................................................................
   1  ****** ****** ****** ****** ****** ****** ****** ****** ****** ******
      ****** ****** ****** ****** ****** ****** ****** ****** ****** ******
      ****** ****** ****** ****** ****** ****** ****** ****** ****** ******
   2  ****** ****** ****** ****** ****** ****** ****** ****** ****** ******
      ****** ****** ****** ****** ****** ****** ****** ****** ****** ******
      ****** ****** ****** ****** ****** ****** ****** ****** ****** ******
   3  ****** ****** ****** ****** ****** ****** ****** ****** ****** ******
      ****** ****** ****** ****** ****** ****** ****** ****** ****** ******
      ****** ****** ****** ****** ****** ****** ****** ****** ****** ******
   4  ****** ****** ****** ****** ****** ****** ****** ****** ****** ******
      ****** ****** ****** ****** ****** ****** ****** ****** ****** ******
      ****** ****** ****** ****** ****** ****** ****** ****** ****** ******
   5  ****** ****** ****** ****** ****** ****** ****** ****** ****** ******
      ****** ****** ****** ****** ****** ****** ****** ****** ****** ******
      ****** ****** ****** ****** ****** ****** ****** ****** ****** ******
   6  ****** ****** ****** ****** ****** ****** ****** ****** ****** ******
      ****** ****** ****** ****** ****** ****** ****** ****** ****** ******
      ****** ****** ****** ****** ****** ****** ****** ****** ****** ******
   7  ****** ****** ****** ****** ****** ****** ****** ****** ****** ******
      ****** ****** ****** ****** ****** ****** ****** ****** ****** ******
      ****** ****** ****** ****** ****** ****** ****** ****** ****** ******
   8  ****** ****** ****** ****** ****** ****** ****** ****** ****** ******
      ****** ****** ****** ****** ****** ****** ****** ****** ****** ******
      ****** ****** ****** ****** ****** ****** ****** ****** ****** ******
   9  ****** ****** ****** ****** ****** ****** ****** ****** ****** ******
      ****** ****** ****** ****** ****** ****** ****** ****** ****** ******
      ****** ****** ****** ****** ****** ****** ****** ****** ****** ******
  10  ****** ****** ****** ****** ****** ****** ****** ****** ****** ******
      ****** ****** ****** ****** ****** ****** ****** ****** ****** ******
      ****** ****** ****** ****** ****** ****** ****** ****** ****** ******
  11  ****** ****** ****** ****** ****** ****** ****** ****** ****** ******
      ****** ****** ****** ****** ****** ****** ****** ****** ****** ******
      ****** ****** ****** ****** ****** ****** ****** ****** ****** ******
  12  ****** ****** ****** ****** ****** ****** ****** ****** ****** ******
      ****** ****** ****** ****** ****** ****** ****** ****** ****** ******
      ****** ****** ****** ****** ****** ****** ****** ****** ****** ******
  13  ****** ****** ****** ****** ****** ****** ****** ****** ****** ******
      ****** ****** ****** ****** ****** ****** ****** ****** ****** ******
      ****** ****** ****** ****** ****** ****** ****** ****** ****** ******
  14  ****** ****** ****** ****** ****** ****** ****** ****** ****** ******
      ****** ****** ****** ****** ****** ****** ****** ****** ****** ******
      ****** ****** ****** ****** ****** ****** ****** ****** ****** ******
  15  ****** ****** ****** ****** ****** ****** ****** ****** ****** ******
      ****** ****** ****** ****** ****** ****** ****** ****** ****** ******
      ****** ****** ****** ****** ****** ****** ****** ****** ****** ******
  16  ****** ****** ****** ****** ****** ****** ****** ****** ****** ******
      ****** ****** ****** ****** ****** ****** ****** ****** ****** ******
      ****** ****** ****** ****** ****** ****** ****** ****** ****** ******
  17  ****** ****** ****** ****** ****** ****** ****** ****** ****** ******
      ****** ****** ****** ****** ****** ****** ****** ****** ****** ******
      ****** ****** ****** ****** ****** ****** ****** ****** ****** ******
  18  ****** ****** ****** ****** ****** ****** ****** ****** ****** ******
      ****** ****** ****** ****** ****** ****** ****** ****** ****** ******
      ****** ****** ****** ****** ****** ****** ****** ****** ****** ******
  19  ****** ****** ****** ****** ****** ****** ****** ****** ****** ******
      ****** ****** ****** ****** ****** ****** ****** ****** ****** ******
      ****** ****** ****** ****** ****** ****** ****** ****** ****** ******
  20  ****** ****** ****** ****** ****** ****** ****** ****** ****** ******
      ****** ****** ****** ****** ****** ****** ****** ****** ****** ******
      ****** ****** ****** ****** ****** ****** ****** ****** ****** ******
  21  ****** ****** ****** ****** ****** ****** ****** ****** ****** ******
      ****** ****** ****** ****** ****** ****** ****** ****** ****** ******
      ****** ****** ****** ****** ****** ****** ****** ****** ****** ******
  22  ****** ****** ****** ****** ****** ****** ****** ****** ****** ******
      ****** ****** ****** ****** ****** ****** ****** ****** ****** ******
      ****** ****** ****** ****** ****** ****** ****** ****** ****** ******
  23  ****** ****** ****** ****** ****** ****** ****** ****** ****** ******
      ****** ****** ****** ****** ****** ****** ****** ****** ****** ******
      ****** ****** ****** ****** ****** ****** ****** ****** ****** ******
  24  ****** ****** ****** ****** ****** ****** ****** ****** ****** ******
      ****** ****** ****** ****** ****** ****** ****** ****** ****** ******
      ****** ****** ****** ****** ****** ****** ****** ****** ****** ******
  25  ****** ****** ****** ****** ****** ****** ****** ****** ****** ******
      ****** ****** ****** ****** ****** ****** ****** ****** ****** ******
      ****** ****** ****** ****** ****** ****** ****** ****** ****** ******

 HEAD WILL BE SAVED ON UNIT   51 AT END OF TIME STEP    1, STRESS PERIOD   11
1
  VOLUMETRIC BUDGET FOR ENTIRE MODEL AT END OF TIME STEP    1, STRESS PERIOD  11
  ------------------------------------------------------------------------------

     CUMULATIVE VOLUMES      L**3       RATES FOR THIS TIME STEP      L**3/T
     ------------------                 ------------------------

           IN:                                      IN:
           ---                                      ---
             STORAGE =    35530705.9131               STORAGE =       17857.1749
       CONSTANT HEAD =    28108062.5660         CONSTANT HEAD =       34189.6067
               WELLS =           0.0000                 WELLS =           0.0000
            RECHARGE =    23901600.0000              RECHARGE =           0.0000
      STREAM LEAKAGE =    13042450.3853        STREAM LEAKAGE =       17001.2765

            TOTAL IN =   100582818.8643              TOTAL IN =       69048.0581

          OUT:                                     OUT:
          ----                                     ----
             STORAGE =     2396763.7430               STORAGE =           0.0000
       CONSTANT HEAD =           0.0000         CONSTANT HEAD =           0.0000
               WELLS =    39138970.6015                 WELLS =       38983.0384
            RECHARGE =           0.0000              RECHARGE =           0.0000
      STREAM LEAKAGE =    59047086.4970        STREAM LEAKAGE =       30065.0245

           TOTAL OUT =   100582820.8415             TOTAL OUT =       69048.0629

            IN - OUT =          -1.9771              IN - OUT =      -4.8018E-03

 PERCENT DISCREPANCY =          -0.00     PERCENT DISCREPANCY =          -0.00






         TIME SUMMARY AT END OF TIME STEP    1 IN STRESS PERIOD   11
                    SECONDS     MINUTES      HOURS       DAYS        YEARS
                    -----------------------------------------------------------
   TIME STEP LENGTH 7.86240E+06 1.31040E+05  2184.0      91.000     0.24914    
 STRESS PERIOD TIME 7.86240E+06 1.31040E+05  2184.0      91.000     0.24914    
         TOTAL TIME 8.67456E+07 1.44576E+06  24096.      1004.0      2.7488    
1
1
                            STRESS PERIOD NO.   12, LENGTH =   91.00000    
                            -----------------------------------------------

                              NUMBER OF TIME STEPS =     1

                               MULTIPLIER FOR DELT =     1.500

                            INITIAL TIME STEP SIZE =   91.00000    

 WELL NO.  LAYER   ROW   COL   STRESS RATE         
 --------------------------------------------------
      1      1     18     15      -8387.    
      2      1     17     18      -8258.    
      3      1     14     29     -0.1305E+05
      4      1     19     28      -9288.    

      4 WELLS

                 RECHARGE =  1.000000E-03

 REUSING STREAM SEGMENT DATA FROM LAST STRESS PERIOD
 
 SOLVING FOR HEAD 


     7 CALLS TO PCG ROUTINE FOR TIME STEP   1 IN STRESS PERIOD   12
    24 TOTAL ITERATIONS

 OUTPUT CONTROL FOR STRESS PERIOD   12   TIME STEP    1
    SAVE BUDGET
    SAVE HEAD FOR ALL LAYERS
    PRINT HEAD FOR ALL LAYERS
 UBDSV2 SAVING "STREAMFLOW OUT  " ON UNIT  50 AT TIME STEP  1, STRESS PERIOD  12



 STREAM LISTING     PERIOD     12   STEP        1

 LAYER ROW COL. STREAM  RCH.  FLOW INTO     FLOW TO   FLOW OUT OF   OVRLND.     DIRECT     STREAM       STREAM     STREAM     STREAM   STREAMBED  STREAMBED
                SEG.NO.  NO.  STRM. RCH.    AQUIFER    STRM. RCH.    RUNOFF     PRECIP       ET          HEAD       DEPTH      WIDTH   CONDCTNC.   GRADIENT

   1   13    1     1     1    1.0000E+05 -1.6982E+03   1.0170E+05  0.000E+00  0.000E+00  0.000E+00  4.84068E+01  1.454E-01  2.000E+01  2.000E+04 -8.491E-02
   1   13    2     1     2    1.0170E+05 -2.6445E+03   1.0434E+05  0.000E+00  0.000E+00  0.000E+00  4.79313E+01  1.473E-01  2.000E+01  2.000E+04 -1.322E-01
   1   14    3     1     3    1.0434E+05 -4.3527E+02   1.0478E+05  0.000E+00  0.000E+00  0.000E+00  4.74554E+01  1.486E-01  2.000E+01  2.000E+04 -2.176E-02
   1   15    4     1     4    1.0478E+05 -4.0162E+02   1.0518E+05  0.000E+00  0.000E+00  0.000E+00  4.69785E+01  1.489E-01  2.000E+01  2.000E+04 -2.008E-02
   1   16    5     1     5    1.0518E+05 -1.4108E+03   1.0659E+05  0.000E+00  0.000E+00  0.000E+00  4.65020E+01  1.497E-01  2.000E+01  2.000E+04 -7.054E-02
   1   16    6     1     6    1.0659E+05 -8.7745E+02   1.0747E+05  0.000E+00  0.000E+00  0.000E+00  4.60257E+01  1.507E-01  2.000E+01  2.000E+04 -4.387E-02
   1   16    7     1     7    1.0747E+05 -8.2994E+02   1.0830E+05  0.000E+00  0.000E+00  0.000E+00  4.55491E+01  1.514E-01  2.000E+01  2.000E+04 -4.150E-02
   1   16    8     1     8    1.0830E+05 -7.7751E+02   1.0908E+05  0.000E+00  0.000E+00  0.000E+00  4.50725E+01  1.521E-01  2.000E+01  2.000E+04 -3.888E-02
   1   16    9     1     9    1.0908E+05 -6.9657E+02   1.0977E+05  0.000E+00  0.000E+00  0.000E+00  4.45959E+01  1.527E-01  2.000E+01  2.000E+04 -3.483E-02
   1   16   10     1    10    1.0977E+05 -5.6939E+02   1.1034E+05  0.000E+00  0.000E+00  0.000E+00  4.41191E+01  1.532E-01  2.000E+01  2.000E+04 -2.847E-02
   1   16   11     1    11    1.1034E+05 -3.5959E+02   1.1070E+05  0.000E+00  0.000E+00  0.000E+00  4.36422E+01  1.536E-01  2.000E+01  2.000E+04 -1.798E-02
   1   16   12     1    12    1.1070E+05  8.1930E+01   1.1062E+05  0.000E+00  0.000E+00  0.000E+00  4.31651E+01  1.537E-01  2.000E+01  2.000E+04  4.097E-03
   1   15   13     1    13    1.1062E+05  1.3795E+01   1.1061E+05  0.000E+00  0.000E+00  0.000E+00  4.26878E+01  1.537E-01  2.000E+01  2.000E+04  6.898E-04
   1   14   14     1    14    1.1061E+05 -4.9744E+02   1.1110E+05  0.000E+00  0.000E+00  0.000E+00  4.22107E+01  1.539E-01  2.000E+01  2.000E+04 -2.487E-02
   1   13   15     1    15    1.1110E+05 -1.1942E+03   1.1230E+05  0.000E+00  0.000E+00  0.000E+00  4.17341E+01  1.546E-01  2.000E+01  2.000E+04 -5.971E-02
   1   12   16     1    16    1.1230E+05 -2.4411E+03   1.1474E+05  0.000E+00  0.000E+00  0.000E+00  4.12584E+01  1.561E-01  2.000E+01  2.000E+04 -1.221E-01
   1   12   17     1    17    1.1474E+05 -1.3304E+03   1.1607E+05  0.000E+00  0.000E+00  0.000E+00  4.07826E+01  1.576E-01  2.000E+01  2.000E+04 -6.652E-02
   1   12   18     1    18    1.1607E+05 -1.2494E+03   1.1732E+05  0.000E+00  0.000E+00  0.000E+00  4.03064E+01  1.587E-01  2.000E+01  2.000E+04 -6.247E-02
   1   12   19     1    19    1.1732E+05 -1.9536E+03   1.1927E+05  0.000E+00  0.000E+00  0.000E+00  3.98304E+01  1.600E-01  2.000E+01  2.000E+04 -9.768E-02
   1   13   20     1    20    1.1927E+05 -7.4537E+02   1.2002E+05  0.000E+00  0.000E+00  0.000E+00  3.93543E+01  1.611E-01  2.000E+01  2.000E+04 -3.727E-02
   1   14   21     1    21    1.2002E+05  4.5598E+01   1.1997E+05  0.000E+00  0.000E+00  0.000E+00  3.88773E+01  1.614E-01  2.000E+01  2.000E+04  2.280E-03
   1   14   22     1    22    1.1997E+05  5.1336E+03   1.1484E+05  0.000E+00  0.000E+00  0.000E+00  3.83979E+01  1.593E-01  2.000E+01  2.000E+04  2.567E-01
   1    9   30     2     1    5.0000E+04  5.0364E+02   4.9496E+04  0.000E+00  0.000E+00  0.000E+00  4.02405E+01  1.155E-01  2.000E+01  2.000E+04  2.518E-02
   1    9   29     2     2    4.9496E+04  1.0766E+02   4.9389E+04  0.000E+00  0.000E+00  0.000E+00  3.99901E+01  1.151E-01  2.000E+01  2.000E+04  5.383E-03
   1    9   28     2     3    4.9389E+04 -3.6379E+02   4.9752E+04  0.000E+00  0.000E+00  0.000E+00  3.97403E+01  1.153E-01  2.000E+01  2.000E+04 -1.819E-02
   1    9   27     2     4    4.9752E+04 -1.9447E+03   5.1697E+04  0.000E+00  0.000E+00  0.000E+00  3.94919E+01  1.169E-01  2.000E+01  2.000E+04 -9.724E-02
   1   10   26     2     5    5.1697E+04 -6.8683E+02   5.2384E+04  0.000E+00  0.000E+00  0.000E+00  3.92437E+01  1.187E-01  2.000E+01  2.000E+04 -3.434E-02
   1   11   25     2     6    5.2384E+04 -6.7250E+02   5.3057E+04  0.000E+00  0.000E+00  0.000E+00  3.89946E+01  1.196E-01  2.000E+01  2.000E+04 -3.362E-02
   1   12   24     2     7    5.3057E+04 -1.2105E+03   5.4267E+04  0.000E+00  0.000E+00  0.000E+00  3.87459E+01  1.209E-01  2.000E+01  2.000E+04 -6.053E-02
   1   13   23     2     8    5.4267E+04 -2.4568E+02   5.4513E+04  0.000E+00  0.000E+00  0.000E+00  3.84969E+01  1.219E-01  2.000E+01  2.000E+04 -1.228E-02
   1   14   22     2     9    5.4513E+04  2.0880E+03   5.2425E+04  0.000E+00  0.000E+00  0.000E+00  3.82456E+01  1.206E-01  2.000E+01  2.000E+04  1.044E-01
   1   14   22     3     1    1.6726E+05 -8.3958E+03   1.7566E+05  0.000E+00  0.000E+00  0.000E+00  3.77214E+01  1.659E-01  2.000E+01  2.000E+04 -4.198E-01
   1   15   23     3     2    1.7566E+05 -2.5345E+02   1.7591E+05  0.000E+00  0.000E+00  0.000E+00  3.68350E+01  1.684E-01  2.000E+01  2.000E+04 -1.267E-02
   1   15   24     3     3    1.7591E+05 -1.7251E+02   1.7608E+05  0.000E+00  0.000E+00  0.000E+00  3.59463E+01  1.685E-01  2.000E+01  2.000E+04 -8.625E-03
   1   15   25     3     4    1.7608E+05 -1.4831E+02   1.7623E+05  0.000E+00  0.000E+00  0.000E+00  3.50575E+01  1.686E-01  2.000E+01  2.000E+04 -7.416E-03
   1   15   26     3     5    1.7623E+05  1.0930E+02   1.7612E+05  0.000E+00  0.000E+00  0.000E+00  3.41686E+01  1.686E-01  2.000E+01  2.000E+04  5.465E-03
   1   16   27     3     6    1.7612E+05  4.5631E+02   1.7567E+05  0.000E+00  0.000E+00  0.000E+00  3.32796E+01  1.684E-01  2.000E+01  2.000E+04  2.282E-02
   1   17   28     3     7    1.7567E+05  3.9323E+03   1.7173E+05  0.000E+00  0.000E+00  0.000E+00  3.23894E+01  1.672E-01  2.000E+01  2.000E+04  1.966E-01
   1   18   29     3     8    1.7173E+05  2.6550E+03   1.6908E+05  0.000E+00  0.000E+00  0.000E+00  3.14986E+01  1.653E-01  2.000E+01  2.000E+04  1.328E-01
   1   18   30     3     9    1.6908E+05  3.6647E+01   1.6904E+05  0.000E+00  0.000E+00  0.000E+00  3.06089E+01  1.645E-01  2.000E+01  2.000E+04  1.832E-03



1
              HEAD IN LAYER   1 AT END OF TIME STEP   1 IN STRESS PERIOD   12
  ---------------------------------------------------------------------------

          1      2      3      4      5      6      7      8      9     10
         11     12     13     14     15     16     17     18     19     20
         21     22     23     24     25     26     27     28     29     30
 .........................................................................
   1  ****** ****** ****** ****** ****** ****** ****** ****** ****** ******
      ****** ****** ****** ****** ****** ****** ****** ****** ****** ******
      ****** ****** ****** ****** ****** ****** ****** ****** ****** ******
   2  ****** ****** ****** ****** ****** ****** ****** ****** ****** ******
      ****** ****** ****** ****** ****** ****** ****** ****** ****** ******
      ****** ****** ****** ****** ****** ****** ****** ****** ****** ******
   3  ****** ****** ****** ****** ****** ****** ****** ****** ****** ******
      ****** ****** ****** ****** ****** ****** ****** ****** ****** ******
      ****** ****** ****** ****** ****** ****** ****** ****** ****** ******
   4  ****** ****** ****** ****** ****** ****** ****** ****** ****** ******
      ****** ****** ****** ****** ****** ****** ****** ****** ****** ******
      ****** ****** ****** ****** ****** ****** ****** ****** ****** ******
   5  ****** ****** ****** ****** ****** ****** ****** ****** ****** ******
      ****** ****** ****** ****** ****** ****** ****** ****** ****** ******
      ****** ****** ****** ****** ****** ****** ****** ****** ****** ******
   6  ****** ****** ****** ****** ****** ****** ****** ****** ****** ******
      ****** ****** ****** ****** ****** ****** ****** ****** ****** ******
      ****** ****** ****** ****** ****** ****** ****** ****** ****** ******
   7  ****** ****** ****** ****** ****** ****** ****** ****** ****** ******
      ****** ****** ****** ****** ****** ****** ****** ****** ****** ******
      ****** ****** ****** ****** ****** ****** ****** ****** ****** ******
   8  ****** ****** ****** ****** ****** ****** ****** ****** ****** ******
      ****** ****** ****** ****** ****** ****** ****** ****** ****** ******
      ****** ****** ****** ****** ****** ****** ****** ****** ****** ******
   9  ****** ****** ****** ****** ****** ****** ****** ****** ****** ******
      ****** ****** ****** ****** ****** ****** ****** ****** ****** ******
      ****** ****** ****** ****** ****** ****** ****** ****** ****** ******
  10  ****** ****** ****** ****** ****** ****** ****** ****** ****** ******
      ****** ****** ****** ****** ****** ****** ****** ****** ****** ******
      ****** ****** ****** ****** ****** ****** ****** ****** ****** ******
  11  ****** ****** ****** ****** ****** ****** ****** ****** ****** ******
      ****** ****** ****** ****** ****** ****** ****** ****** ****** ******
      ****** ****** ****** ****** ****** ****** ****** ****** ****** ******
  12  ****** ****** ****** ****** ****** ****** ****** ****** ****** ******
      ****** ****** ****** ****** ****** ****** ****** ****** ****** ******
      ****** ****** ****** ****** ****** ****** ****** ****** ****** ******
  13  ****** ****** ****** ****** ****** ****** ****** ****** ****** ******
      ****** ****** ****** ****** ****** ****** ****** ****** ****** ******
      ****** ****** ****** ****** ****** ****** ****** ****** ****** ******
  14  ****** ****** ****** ****** ****** ****** ****** ****** ****** ******
      ****** ****** ****** ****** ****** ****** ****** ****** ****** ******
      ****** ****** ****** ****** ****** ****** ****** ****** ****** ******
  15  ****** ****** ****** ****** ****** ****** ****** ****** ****** ******
      ****** ****** ****** ****** ****** ****** ****** ****** ****** ******
      ****** ****** ****** ****** ****** ****** ****** ****** ****** ******
  16  ****** ****** ****** ****** ****** ****** ****** ****** ****** ******
      ****** ****** ****** ****** ****** ****** ****** ****** ****** ******
      ****** ****** ****** ****** ****** ****** ****** ****** ****** ******
  17  ****** ****** ****** ****** ****** ****** ****** ****** ****** ******
      ****** ****** ****** ****** ****** ****** ****** ****** ****** ******
      ****** ****** ****** ****** ****** ****** ****** ****** ****** ******
  18  ****** ****** ****** ****** ****** ****** ****** ****** ****** ******
      ****** ****** ****** ****** ****** ****** ****** ****** ****** ******
      ****** ****** ****** ****** ****** ****** ****** ****** ****** ******
  19  ****** ****** ****** ****** ****** ****** ****** ****** ****** ******
      ****** ****** ****** ****** ****** ****** ****** ****** ****** ******
      ****** ****** ****** ****** ****** ****** ****** ****** ****** ******
  20  ****** ****** ****** ****** ****** ****** ****** ****** ****** ******
      ****** ****** ****** ****** ****** ****** ****** ****** ****** ******
      ****** ****** ****** ****** ****** ****** ****** ****** ****** ******
  21  ****** ****** ****** ****** ****** ****** ****** ****** ****** ******
      ****** ****** ****** ****** ****** ****** ****** ****** ****** ******
      ****** ****** ****** ****** ****** ****** ****** ****** ****** ******
  22  ****** ****** ****** ****** ****** ****** ****** ****** ****** ******
      ****** ****** ****** ****** ****** ****** ****** ****** ****** ******
      ****** ****** ****** ****** ****** ****** ****** ****** ****** ******
  23  ****** ****** ****** ****** ****** ****** ****** ****** ****** ******
      ****** ****** ****** ****** ****** ****** ****** ****** ****** ******
      ****** ****** ****** ****** ****** ****** ****** ****** ****** ******
  24  ****** ****** ****** ****** ****** ****** ****** ****** ****** ******
      ****** ****** ****** ****** ****** ****** ****** ****** ****** ******
      ****** ****** ****** ****** ****** ****** ****** ****** ****** ******
  25  ****** ****** ****** ****** ****** ****** ****** ****** ****** ******
      ****** ****** ****** ****** ****** ****** ****** ****** ****** ******
      ****** ****** ****** ****** ****** ****** ****** ****** ****** ******

 HEAD WILL BE SAVED ON UNIT   51 AT END OF TIME STEP    1, STRESS PERIOD   12
1
  VOLUMETRIC BUDGET FOR ENTIRE MODEL AT END OF TIME STEP    1, STRESS PERIOD  12
  ------------------------------------------------------------------------------

     CUMULATIVE VOLUMES      L**3       RATES FOR THIS TIME STEP      L**3/T
     ------------------                 ------------------------

           IN:                                      IN:
           ---                                      ---
             STORAGE =    35531147.2105               STORAGE =           4.8494
       CONSTANT HEAD =    31155400.1458         CONSTANT HEAD =       33487.2262
               WELLS =           0.0000                 WELLS =           0.0000
            RECHARGE =    26413200.0000              RECHARGE =       27600.0000
      STREAM LEAKAGE =    14422350.9384        STREAM LEAKAGE =       15163.7423

            TOTAL IN =   107522098.2947              TOTAL IN =       76255.8179

          OUT:                                     OUT:
          ----                                     ----
             STORAGE =     2675816.0973               STORAGE =        3066.5094
       CONSTANT HEAD =           0.0000         CONSTANT HEAD =           0.0000
               WELLS =    42686427.1003                 WELLS =       38983.0384
            RECHARGE =           0.0000              RECHARGE =           0.0000
      STREAM LEAKAGE =    62159856.9875        STREAM LEAKAGE =       34206.2691

           TOTAL OUT =   107522100.1851             TOTAL OUT =       76255.8170

            IN - OUT =          -1.8904              IN - OUT =       9.5262E-04

 PERCENT DISCREPANCY =          -0.00     PERCENT DISCREPANCY =           0.00






         TIME SUMMARY AT END OF TIME STEP    1 IN STRESS PERIOD   12
                    SECONDS     MINUTES      HOURS       DAYS        YEARS
                    -----------------------------------------------------------
   TIME STEP LENGTH 7.86240E+06 1.31040E+05  2184.0      91.000     0.24914    
 STRESS PERIOD TIME 7.86240E+06 1.31040E+05  2184.0      91.000     0.24914    
         TOTAL TIME 9.46080E+07 1.57680E+06  26280.      1095.0      2.9979    
1

 Run end date and time (yyyy/mm/dd hh:mm:ss): 2018/10/14 14:55:16
 Elapsed run time:  0.080 Seconds

