                                  MODFLOW-2005     
      U.S. GEOLOGICAL SURVEY MODULAR FINITE-DIFFERENCE GROUND-WATER FLOW MODEL
                            VERSION 1.11.00 8/8/2013

 LIST FILE: supply2.lst
                         UNIT   10

 OPENING ..\data\supply.dis
 FILE TYPE:DIS   UNIT   11   STATUS:OLD    
 FORMAT:FORMATTED              ACCESS:SEQUENTIAL          

 OPENING ..\data\supply.ba6
 FILE TYPE:BAS6   UNIT   12   STATUS:OLD    
 FORMAT:FORMATTED              ACCESS:SEQUENTIAL          

 OPENING ..\data\supply.bc6
 FILE TYPE:BCF6   UNIT   13   STATUS:OLD    
 FORMAT:FORMATTED              ACCESS:SEQUENTIAL          

 OPENING ..\data\supply.rch
 FILE TYPE:RCH   UNIT   15   STATUS:OLD    
 FORMAT:FORMATTED              ACCESS:SEQUENTIAL          

 OPENING ..\data\supply2.sfr
 FILE TYPE:SFR   UNIT   16   STATUS:OLD    
 FORMAT:FORMATTED              ACCESS:SEQUENTIAL          

 OPENING ..\data\supply.oc
 FILE TYPE:OC   UNIT   17   STATUS:OLD    
 FORMAT:FORMATTED              ACCESS:SEQUENTIAL          

 OPENING ..\data\supply.pcg
 FILE TYPE:PCG   UNIT   18   STATUS:OLD    
 FORMAT:FORMATTED              ACCESS:SEQUENTIAL          

 OPENING supply2.wel
 FILE TYPE:WEL   UNIT   19   STATUS:OLD    
 FORMAT:FORMATTED              ACCESS:SEQUENTIAL          

 OPENING supply2sf.bin
 FILE TYPE:DATA(BINARY)   UNIT   50   STATUS:UNKNOWN
 FORMAT:BINARY                 ACCESS:SEQUENTIAL          

 OPENING supply2hd.bin
 FILE TYPE:DATA(BINARY)   UNIT   51   STATUS:UNKNOWN
 FORMAT:BINARY                 ACCESS:SEQUENTIAL          

 BAS -- BASIC PACKAGE, VERSION 7, 5/2/2005 INPUT READ FROM UNIT   12
 
 MODFLOW was compiled using uniform precision
 Precision of REAL and DOUBLE PRECISION variables:          15

 DISCRETIZATION INPUT DATA READ FROM UNIT   11
    1 LAYERS        25 ROWS        30 COLUMNS
   12 STRESS PERIOD(S) IN SIMULATION
 MODEL TIME UNIT IS DAYS
 MODEL LENGTH UNIT IS UNDEFINED
  Confining bed flag for each layer:
   0

                     DELR =   200.000    

                     DELC =   200.000    

 TOP ELEVATION OF LAYER 1 =  100.0000    

   MODEL LAYER BOTTOM EL. =   0.00000     FOR LAYER   1


 STRESS PERIOD     LENGTH       TIME STEPS     MULTIPLIER FOR DELT    SS FLAG
 ----------------------------------------------------------------------------
        1         92.00000          1                    1.500         TR
        2         91.00000          1                    1.500         TR
        3         91.00000          1                    1.500         TR
        4         91.00000          1                    1.500         TR
        5         92.00000          1                    1.500         TR
        6         91.00000          1                    1.500         TR
        7         91.00000          1                    1.500         TR
        8         91.00000          1                    1.500         TR
        9         92.00000          1                    1.500         TR
       10         91.00000          1                    1.500         TR
       11         91.00000          1                    1.500         TR
       12         91.00000          1                    1.500         TR

 TRANSIENT SIMULATION



 
 #MODOFC transient water supply sample problem                                   
 #                                                                               
 THE FREE FORMAT OPTION HAS BEEN SELECTED



                     BOUNDARY ARRAY FOR LAYER   1
 READING ON UNIT   12 WITH FORMAT: (20I4)              

 AQUIFER HEAD WILL BE SET TO   0.0000     AT ALL NO-FLOW NODES (IBOUND=0).



                       INITIAL HEAD FOR LAYER   1
 READING ON UNIT   12 WITH FORMAT: (10F13.0)           

 OUTPUT CONTROL IS SPECIFIED ONLY AT TIME STEPS FOR WHICH OUTPUT IS DESIRED
 COMPACT CELL-BY-CELL BUDGET FILES WILL BE WRITTEN
 HEAD PRINT FORMAT CODE IS  18    DRAWDOWN PRINT FORMAT CODE IS   0
 HEADS WILL BE SAVED ON UNIT   51    DRAWDOWNS WILL BE SAVED ON UNIT    0

 BCF -- BLOCK-CENTERED FLOW PACKAGE, VERSION 7, 5/2/2005
         INPUT READ FROM UNIT 13
 TRANSIENT SIMULATION
 HEAD AT CELLS THAT CONVERT TO DRY=   0.0000    
 WETTING CAPABILITY IS NOT ACTIVE
      LAYER  LAYER-TYPE CODE     INTERBLOCK T
      --------------------------------------------
         1            0          0 -- HARMONIC    

 COLUMN TO ROW ANISOTROPY =  1.000000    

     PRIMARY STORAGE COEF =  5.000000E-02 FOR LAYER   1

     TRANSMIS. ALONG ROWS =   5000.00     FOR LAYER   1

 WEL -- WELL PACKAGE, VERSION 7, 5/2/2005 INPUT READ FROM UNIT   19
 # Well package input file written by MMProc
 No named parameters
 MAXIMUM OF      5 ACTIVE WELLS AT ONE TIME


     0 Well parameters

 RCH -- RECHARGE PACKAGE, VERSION 7, 5/2/2005 INPUT READ FROM UNIT   15
 No named parameters
 OPTION 1 -- RECHARGE TO TOP LAYER


     0 Recharge parameters

 SFR7 -- STREAMFLOW ROUTING PACKAGE, VERSION 1.0.7, 2013-01-15
         INPUT READ FROM UNIT  16
 #  Supply2 test problem for GWM-VI
 #  The eighth entry in the first data line is ISTCB2 -
 #    Setting this to a negative number indicates that
 #    streamflows out of the reach will be saved to a
 #    binary file.  The absolute value of ISTCB2 is the
 #    unit to which unformatted flows will be written.
 #
 No named parameters
 Segment information will not be 
 read by reach
 No named parameters
 No specifed inflow files


 NUMBER OF STREAM REACHES IS   40

 NUMBER OF STREAM SEGMENTS IS    3

 NUMBER OF STREAM PARAMETERS IS    0

 NUMBER OF STREAM SEGMENTS DEFINED USING PARAMETERS IS              0

 MAXIMUM ERROR FOR STREAM LEAKAGE RATES IS  1.00E-04

 CONSTANT FOR MANNINGS EQUATION IS  1.2839E+05





   STREAM NETWORK DESCRIPTION: 

   LAYER    ROW    COL   SEGMENT   REACH     LENGTH
                          NUMBER   NUMBER    IN CELL        
   --------------------------------------------------
      1     13      1       1        1    2.0000E+02
      1     13      2       1        2    2.0000E+02
      1     14      3       1        3    2.0000E+02
      1     15      4       1        4    2.0000E+02
      1     16      5       1        5    2.0000E+02
      1     16      6       1        6    2.0000E+02
      1     16      7       1        7    2.0000E+02
      1     16      8       1        8    2.0000E+02
      1     16      9       1        9    2.0000E+02
      1     16     10       1       10    2.0000E+02
      1     16     11       1       11    2.0000E+02
      1     16     12       1       12    2.0000E+02
      1     15     13       1       13    2.0000E+02
      1     14     14       1       14    2.0000E+02
      1     13     15       1       15    2.0000E+02
      1     12     16       1       16    2.0000E+02
      1     12     17       1       17    2.0000E+02
      1     12     18       1       18    2.0000E+02
      1     12     19       1       19    2.0000E+02
      1     13     20       1       20    2.0000E+02
      1     14     21       1       21    2.0000E+02
      1     14     22       1       22    2.0000E+02
      1      9     30       2        1    2.0000E+02
      1      9     29       2        2    2.0000E+02
      1      9     28       2        3    2.0000E+02
      1      9     27       2        4    2.0000E+02
      1     10     26       2        5    2.0000E+02
      1     11     25       2        6    2.0000E+02
      1     12     24       2        7    2.0000E+02
      1     13     23       2        8    2.0000E+02
      1     14     22       2        9    2.0000E+02
      1     14     22       3        1    2.0000E+02
      1     15     23       3        2    2.0000E+02
      1     15     24       3        3    2.0000E+02
      1     15     25       3        4    2.0000E+02
      1     15     26       3        5    2.0000E+02
      1     16     27       3        6    2.0000E+02
      1     17     28       3        7    2.0000E+02
      1     18     29       3        8    2.0000E+02
      1     18     30       3        9    2.0000E+02




 PCG -- CONJUGATE-GRADIENT SOLUTION PACKAGE, VERSION 7, 5/2/2005
 MAXIMUM OF    500 CALLS OF SOLUTION ROUTINE
 MAXIMUM OF      5 INTERNAL ITERATIONS PER CALL TO SOLUTION ROUTINE
 MATRIX PRECONDITIONING TYPE :    1



                                    SOLUTION BY THE CONJUGATE-GRADIENT METHOD
                                   -------------------------------------------
                    MAXIMUM NUMBER OF CALLS TO PCG ROUTINE =      500
                        MAXIMUM ITERATIONS PER CALL TO PCG =        5
                               MATRIX PRECONDITIONING TYPE =        1
        RELAXATION FACTOR (ONLY USED WITH PRECOND. TYPE 1) =    0.10000E+01
 PARAMETER OF POLYNOMIAL PRECOND. = 2 (2) OR IS CALCULATED :        0
                         HEAD CHANGE CRITERION FOR CLOSURE =    0.10000E-05
                     RESIDUAL CHANGE CRITERION FOR CLOSURE =    0.10000E+01
            PCG HEAD AND RESIDUAL CHANGE PRINTOUT INTERVAL =        1
     PRINTING FROM SOLVER IS LIMITED(1) OR SUPPRESSED (>1) =        1
                            STEADY-STATE DAMPING PARAMETER =    0.10000E+01
                               TRANSIENT DAMPING PARAMETER =    0.10000E+01
1
                            STRESS PERIOD NO.    1, LENGTH =   92.00000    
                            -----------------------------------------------

                              NUMBER OF TIME STEPS =     1

                               MULTIPLIER FOR DELT =     1.500

                            INITIAL TIME STEP SIZE =   92.00000    

 WELL NO.  LAYER   ROW   COL   STRESS RATE         
 --------------------------------------------------
      1      1     22      9     -0.3717E+05
      2      1     24     11     -0.5000E+05
      3      1     24     23     -0.5000E+05

      3 WELLS

                 RECHARGE =  5.000000E-04



 CLASSIFICATION & COUNT OF STREAM SEGMENTS BASED ON SOURCE OF INFLOW:

                HEADWATER     DIVERSION     RECEIVES TRIBUTARY FLOW
                ---------     ---------     -----------------------
                     2              0               1



                    INPUT DATA FOR EACH STREAM SEGMENT
 ---------------------------------------------------------------------------------------------

 SEGMENT    SEG.     INFLOW   OVERLAND   STREAM    STREAM   ICALC  OUTFLOW  DIVERSION PRIORITY
    NO.    LENGTH     RATE     RUNOFF      ET       PPT.    METH.  TO SEG.  FROM SEG.    NO.

      1  4.400E+03 1.000E+05 0.000E+00 0.000E+00 0.000E+00    1        3        0        0
      2  1.800E+03 5.000E+04 0.000E+00 0.000E+00 0.000E+00    1        3        0        0
      3  1.800E+03 0.000E+00 0.000E+00 0.000E+00 0.000E+00    1        0        0        0


         STREAMBED PROPERTIES AND STREAM DIMENSIONS

 SEGMENT     BED HYD. COND.      BED THICKNESS     ELEV.-TOP OF BED     WIDTH OF STREAM     DEPTH OF STREAM    STREAM ROUGHNESS
    No.     UPPER     LOWER     UPPER     LOWER     UPPER     LOWER     UPPER     LOWER     UPPER     LOWER   CHANNEL      BANK

     1  5.000E+00 5.000E+00 1.000E+00 1.000E+00 4.850E+01 3.800E+01 2.000E+01 2.000E+01                     5.000E-02
     2  5.000E+00 5.000E+00 1.000E+00 1.000E+00 4.025E+01 3.800E+01 2.000E+01 2.000E+01                     5.000E-02
     3  5.000E+00 5.000E+00 1.000E+00 1.000E+00 3.800E+01 3.000E+01 2.000E+01 2.000E+01                     5.000E-02



 
 SOLVING FOR HEAD 


     8 CALLS TO PCG ROUTINE FOR TIME STEP   1 IN STRESS PERIOD    1
    32 TOTAL ITERATIONS

 OUTPUT CONTROL FOR STRESS PERIOD    1   TIME STEP    1
    SAVE BUDGET
    SAVE HEAD FOR ALL LAYERS
    PRINT HEAD FOR ALL LAYERS
 UBDSV2 SAVING "STREAMFLOW OUT  " ON UNIT  50 AT TIME STEP  1, STRESS PERIOD   1



 STREAM LISTING     PERIOD      1   STEP        1

 LAYER ROW COL. STREAM  RCH.  FLOW INTO     FLOW TO   FLOW OUT OF   OVRLND.     DIRECT     STREAM       STREAM     STREAM     STREAM   STREAMBED  STREAMBED
                SEG.NO.  NO.  STRM. RCH.    AQUIFER    STRM. RCH.    RUNOFF     PRECIP       ET          HEAD       DEPTH      WIDTH   CONDCTNC.   GRADIENT

   1   13    1     1     1    1.0000E+05 -3.1493E+04   1.3149E+05  0.000E+00  0.000E+00  0.000E+00  4.84193E+01  1.579E-01  2.000E+01  2.000E+04 -1.575E+00
   1   13    2     1     2    1.3149E+05 -4.1960E+04   1.7345E+05  0.000E+00  0.000E+00  0.000E+00  4.79704E+01  1.863E-01  2.000E+01  2.000E+04 -2.098E+00
   1   14    3     1     3    1.7345E+05 -3.7319E+04   2.1077E+05  0.000E+00  0.000E+00  0.000E+00  4.75208E+01  2.140E-01  2.000E+01  2.000E+04 -1.866E+00
   1   15    4     1     4    2.1077E+05 -3.6132E+04   2.4690E+05  0.000E+00  0.000E+00  0.000E+00  4.70673E+01  2.377E-01  2.000E+01  2.000E+04 -1.807E+00
   1   16    5     1     5    2.4690E+05 -3.6569E+04   2.8347E+05  0.000E+00  0.000E+00  0.000E+00  4.66120E+01  2.597E-01  2.000E+01  2.000E+04 -1.828E+00
   1   16    6     1     6    2.8347E+05 -3.1869E+04   3.1534E+05  0.000E+00  0.000E+00  0.000E+00  4.61543E+01  2.793E-01  2.000E+01  2.000E+04 -1.593E+00
   1   16    7     1     7    3.1534E+05 -3.1546E+04   3.4689E+05  0.000E+00  0.000E+00  0.000E+00  4.56944E+01  2.967E-01  2.000E+01  2.000E+04 -1.577E+00
   1   16    8     1     8    3.4689E+05 -3.1618E+04   3.7851E+05  0.000E+00  0.000E+00  0.000E+00  4.52338E+01  3.134E-01  2.000E+01  2.000E+04 -1.581E+00
   1   16    9     1     9    3.7851E+05 -3.1630E+04   4.1014E+05  0.000E+00  0.000E+00  0.000E+00  4.47727E+01  3.295E-01  2.000E+01  2.000E+04 -1.582E+00
   1   16   10     1    10    4.1014E+05 -3.1659E+04   4.4179E+05  0.000E+00  0.000E+00  0.000E+00  4.43110E+01  3.451E-01  2.000E+01  2.000E+04 -1.583E+00
   1   16   11     1    11    4.4179E+05 -3.2353E+04   4.7415E+05  0.000E+00  0.000E+00  0.000E+00  4.38491E+01  3.604E-01  2.000E+01  2.000E+04 -1.618E+00
   1   16   12     1    12    4.7415E+05 -3.8288E+04   5.1244E+05  0.000E+00  0.000E+00  0.000E+00  4.33882E+01  3.769E-01  2.000E+01  2.000E+04 -1.914E+00
   1   15   13     1    13    5.1244E+05 -3.8400E+04   5.5084E+05  0.000E+00  0.000E+00  0.000E+00  4.29283E+01  3.942E-01  2.000E+01  2.000E+04 -1.920E+00
   1   14   14     1    14    5.5084E+05 -3.9575E+04   5.9041E+05  0.000E+00  0.000E+00  0.000E+00  4.24681E+01  4.113E-01  2.000E+01  2.000E+04 -1.979E+00
   1   13   15     1    15    5.9041E+05 -4.1978E+04   6.3239E+05  0.000E+00  0.000E+00  0.000E+00  4.20082E+01  4.287E-01  2.000E+01  2.000E+04 -2.099E+00
   1   12   16     1    16    6.3239E+05 -4.7886E+04   6.8028E+05  0.000E+00  0.000E+00  0.000E+00  4.15496E+01  4.473E-01  2.000E+01  2.000E+04 -2.394E+00
   1   12   17     1    17    6.8028E+05 -3.7627E+04   7.1790E+05  0.000E+00  0.000E+00  0.000E+00  4.10896E+01  4.646E-01  2.000E+01  2.000E+04 -1.881E+00
   1   12   18     1    18    7.1790E+05 -3.5891E+04   7.5379E+05  0.000E+00  0.000E+00  0.000E+00  4.06268E+01  4.791E-01  2.000E+01  2.000E+04 -1.795E+00
   1   12   19     1    19    7.5379E+05 -4.0351E+04   7.9414E+05  0.000E+00  0.000E+00  0.000E+00  4.01643E+01  4.938E-01  2.000E+01  2.000E+04 -2.018E+00
   1   13   20     1    20    7.9414E+05 -3.0424E+04   8.2457E+05  0.000E+00  0.000E+00  0.000E+00  3.97004E+01  5.072E-01  2.000E+01  2.000E+04 -1.521E+00
   1   14   21     1    21    8.2457E+05 -2.2638E+04   8.4721E+05  0.000E+00  0.000E+00  0.000E+00  3.92331E+01  5.171E-01  2.000E+01  2.000E+04 -1.132E+00
   1   14   22     1    22    8.4721E+05 -2.8911E+03   8.5010E+05  0.000E+00  0.000E+00  0.000E+00  3.87605E+01  5.219E-01  2.000E+01  2.000E+04 -1.446E-01
   1    9   30     2     1    5.0000E+04 -2.9665E+04   7.9665E+04  0.000E+00  0.000E+00  0.000E+00  4.02604E+01  1.354E-01  2.000E+01  2.000E+04 -1.483E+00
   1    9   29     2     2    7.9665E+04 -3.2105E+04   1.1177E+05  0.000E+00  0.000E+00  0.000E+00  4.00461E+01  1.711E-01  2.000E+01  2.000E+04 -1.605E+00
   1    9   28     2     3    1.1177E+05 -3.6431E+04   1.4820E+05  0.000E+00  0.000E+00  0.000E+00  3.98305E+01  2.055E-01  2.000E+01  2.000E+04 -1.822E+00
   1    9   27     2     4    1.4820E+05 -5.1071E+04   1.9927E+05  0.000E+00  0.000E+00  0.000E+00  3.96196E+01  2.446E-01  2.000E+01  2.000E+04 -2.554E+00
   1   10   26     2     5    1.9927E+05 -3.7479E+04   2.3675E+05  0.000E+00  0.000E+00  0.000E+00  3.94053E+01  2.803E-01  2.000E+01  2.000E+04 -1.874E+00
   1   11   25     2     6    2.3675E+05 -2.9086E+04   2.6584E+05  0.000E+00  0.000E+00  0.000E+00  3.91803E+01  3.053E-01  2.000E+01  2.000E+04 -1.454E+00
   1   12   24     2     7    2.6584E+05 -2.2120E+04   2.8796E+05  0.000E+00  0.000E+00  0.000E+00  3.89486E+01  3.236E-01  2.000E+01  2.000E+04 -1.106E+00
   1   13   23     2     8    2.8796E+05 -1.6051E+04   3.0401E+05  0.000E+00  0.000E+00  0.000E+00  3.87118E+01  3.368E-01  2.000E+01  2.000E+04 -8.026E-01
   1   14   22     2     9    3.0401E+05 -8.6983E+03   3.1271E+05  0.000E+00  0.000E+00  0.000E+00  3.84701E+01  3.451E-01  2.000E+01  2.000E+04 -4.349E-01
   1   14   22     3     1    1.1628E+06 -1.6483E+04   1.1793E+06  0.000E+00  0.000E+00  0.000E+00  3.80809E+01  5.253E-01  2.000E+01  2.000E+04 -8.242E-01
   1   15   23     3     2    1.1793E+06 -2.6209E+04   1.2055E+06  0.000E+00  0.000E+00  0.000E+00  3.71977E+01  5.311E-01  2.000E+01  2.000E+04 -1.310E+00
   1   15   24     3     3    1.2055E+06 -2.2002E+04   1.2275E+06  0.000E+00  0.000E+00  0.000E+00  3.63153E+01  5.375E-01  2.000E+01  2.000E+04 -1.100E+00
   1   15   25     3     4    1.2275E+06 -2.1802E+04   1.2493E+06  0.000E+00  0.000E+00  0.000E+00  3.54322E+01  5.433E-01  2.000E+01  2.000E+04 -1.090E+00
   1   15   26     3     5    1.2493E+06 -2.5293E+04   1.2746E+06  0.000E+00  0.000E+00  0.000E+00  3.45494E+01  5.494E-01  2.000E+01  2.000E+04 -1.265E+00
   1   16   27     3     6    1.2746E+06 -3.2845E+04   1.3074E+06  0.000E+00  0.000E+00  0.000E+00  3.36681E+01  5.570E-01  2.000E+01  2.000E+04 -1.642E+00
   1   17   28     3     7    1.3074E+06 -3.9776E+04   1.3472E+06  0.000E+00  0.000E+00  0.000E+00  3.27886E+01  5.664E-01  2.000E+01  2.000E+04 -1.989E+00
   1   18   29     3     8    1.3472E+06 -5.0177E+04   1.3974E+06  0.000E+00  0.000E+00  0.000E+00  3.19111E+01  5.778E-01  2.000E+01  2.000E+04 -2.509E+00
   1   18   30     3     9    1.3974E+06 -4.6364E+04   1.4438E+06  0.000E+00  0.000E+00  0.000E+00  3.10343E+01  5.899E-01  2.000E+01  2.000E+04 -2.318E+00



1
              HEAD IN LAYER   1 AT END OF TIME STEP   1 IN STRESS PERIOD    1
  ---------------------------------------------------------------------------

          1      2      3      4      5      6      7      8      9     10
         11     12     13     14     15     16     17     18     19     20
         21     22     23     24     25     26     27     28     29     30
 .........................................................................
   1  ****** ****** ****** ****** ****** ****** ****** ****** ****** ******
      ****** ****** ****** ****** ****** ****** ****** ****** ****** ******
      ****** ****** ****** ****** ****** ****** ****** ****** ****** ******
   2  ****** ****** ****** ****** ****** ****** ****** ****** ****** ******
      ****** ****** ****** ****** ****** ****** ****** ****** ****** ******
      ****** ****** ****** ****** ****** ****** ****** ****** ****** ******
   3  ****** ****** ****** ****** ****** ****** ****** ****** ****** ******
      ****** ****** ****** ****** ****** ****** ****** ****** ****** ******
      ****** ****** ****** ****** ****** ****** ****** ****** ****** ******
   4  ****** ****** ****** ****** ****** ****** ****** ****** ****** ******
      ****** ****** ****** ****** ****** ****** ****** ****** ****** ******
      ****** ****** ****** ****** ****** ****** ****** ****** ****** ******
   5  ****** ****** ****** ****** ****** ****** ****** ****** ****** ******
      ****** ****** ****** ****** ****** ****** ****** ****** ****** ******
      ****** ****** ****** ****** ****** ****** ****** ****** ****** ******
   6  ****** ****** ****** ****** ****** ****** ****** ****** ****** ******
      ****** ****** ****** ****** ****** ****** ****** ****** ****** ******
      ****** ****** ****** ****** ****** ****** ****** ****** ****** ******
   7  ****** ****** ****** ****** ****** ****** ****** ****** ****** ******
      ****** ****** ****** ****** ****** ****** ****** ****** ****** ******
      ****** ****** ****** ****** ****** ****** ****** ****** ****** ******
   8  ****** ****** ****** ****** ****** ****** ****** ****** ****** ******
      ****** ****** ****** ****** ****** ****** ****** ****** ****** ******
      ****** ****** ****** ****** ****** ****** ****** ****** ****** ******
   9  ****** ****** ****** ****** ****** ****** ****** ****** ****** ******
      ****** ****** ****** ****** ****** ****** ****** ****** ****** ******
      ****** ****** ****** ****** ****** ****** ****** ****** ****** ******
  10  ****** ****** ****** ****** ****** ****** ****** ****** ****** ******
      ****** ****** ****** ****** ****** ****** ****** ****** ****** ******
      ****** ****** ****** ****** ****** ****** ****** ****** ****** ******
  11  ****** ****** ****** ****** ****** ****** ****** ****** ****** ******
      ****** ****** ****** ****** ****** ****** ****** ****** ****** ******
      ****** ****** ****** ****** ****** ****** ****** ****** ****** ******
  12  ****** ****** ****** ****** ****** ****** ****** ****** ****** ******
      ****** ****** ****** ****** ****** ****** ****** ****** ****** ******
      ****** ****** ****** ****** ****** ****** ****** ****** ****** ******
  13  ****** ****** ****** ****** ****** ****** ****** ****** ****** ******
      ****** ****** ****** ****** ****** ****** ****** ****** ****** ******
      ****** ****** ****** ****** ****** ****** ****** ****** ****** ******
  14  ****** ****** ****** ****** ****** ****** ****** ****** ****** ******
      ****** ****** ****** ****** ****** ****** ****** ****** ****** ******
      ****** ****** ****** ****** ****** ****** ****** ****** ****** ******
  15  ****** ****** ****** ****** ****** ****** ****** ****** ****** ******
      ****** ****** ****** ****** ****** ****** ****** ****** ****** ******
      ****** ****** ****** ****** ****** ****** ****** ****** ****** ******
  16  ****** ****** ****** ****** ****** ****** ****** ****** ****** ******
      ****** ****** ****** ****** ****** ****** ****** ****** ****** ******
      ****** ****** ****** ****** ****** ****** ****** ****** ****** ******
  17  ****** ****** ****** ****** ****** ****** ****** ****** ****** ******
      ****** ****** ****** ****** ****** ****** ****** ****** ****** ******
      ****** ****** ****** ****** ****** ****** ****** ****** ****** ******
  18  ****** ****** ****** ****** ****** ****** ****** ****** ****** ******
      ****** ****** ****** ****** ****** ****** ****** ****** ****** ******
      ****** ****** ****** ****** ****** ****** ****** ****** ****** ******
  19  ****** ****** ****** ****** ****** ****** ****** ****** ****** ******
      ****** ****** ****** ****** ****** ****** ****** ****** ****** ******
      ****** ****** ****** ****** ****** ****** ****** ****** ****** ******
  20  ****** ****** ****** ****** ****** ****** ****** ****** ****** ******
      ****** ****** ****** ****** ****** ****** ****** ****** ****** ******
      ****** ****** ****** ****** ****** ****** ****** ****** ****** ******
  21  ****** ****** ****** ****** ****** ****** ****** ****** ****** ******
      ****** ****** ****** ****** ****** ****** ****** ****** ****** ******
      ****** ****** ****** ****** ****** ****** ****** ****** ****** ******
  22  ****** ****** ****** ****** ****** ****** ****** ****** ****** ******
      ****** ****** ****** ****** ****** ****** ****** ****** ****** ******
      ****** ****** ****** ****** ****** ****** ****** ****** ****** ******
  23  ****** ****** ****** ****** ****** ****** ****** ****** ****** ******
      ****** ****** ****** ****** ****** ****** ****** ****** ****** ******
      ****** ****** ****** ****** ****** ****** ****** ****** ****** ******
  24  ****** ****** ****** ****** ****** ****** ****** ****** ****** ******
      ****** ****** ****** ****** ****** ****** ****** ****** ****** ******
      ****** ****** ****** ****** ****** ****** ****** ****** ****** ******
  25  ****** ****** ****** ****** ****** ****** ****** ****** ****** ******
      ****** ****** ****** ****** ****** ****** ****** ****** ****** ******
      ****** ****** ****** ****** ****** ****** ****** ****** ****** ******

 HEAD WILL BE SAVED ON UNIT   51 AT END OF TIME STEP    1, STRESS PERIOD    1
1
  VOLUMETRIC BUDGET FOR ENTIRE MODEL AT END OF TIME STEP    1, STRESS PERIOD   1
  ------------------------------------------------------------------------------

     CUMULATIVE VOLUMES      L**3       RATES FOR THIS TIME STEP      L**3/T
     ------------------                 ------------------------

           IN:                                      IN:
           ---                                      ---
             STORAGE =    19183182.3355               STORAGE =      208512.8515
       CONSTANT HEAD =   111191967.9364         CONSTANT HEAD =     1208608.3471
               WELLS =           0.0000                 WELLS =           0.0000
            RECHARGE =     1269600.0000              RECHARGE =       13800.0000
      STREAM LEAKAGE =           0.0000        STREAM LEAKAGE =           0.0000

            TOTAL IN =   131644750.2718              TOTAL IN =     1430921.1986

          OUT:                                     OUT:
          ----                                     ----
             STORAGE =           0.0000               STORAGE =           0.0000
       CONSTANT HEAD =           0.0000         CONSTANT HEAD =           0.0000
               WELLS =    12619253.2414                 WELLS =      137165.7961
            RECHARGE =           0.0000              RECHARGE =           0.0000
      STREAM LEAKAGE =   119025498.8094        STREAM LEAKAGE =     1293755.4218

           TOTAL OUT =   131644752.0507             TOTAL OUT =     1430921.2179

            IN - OUT =          -1.7789              IN - OUT =      -1.9336E-02

 PERCENT DISCREPANCY =          -0.00     PERCENT DISCREPANCY =          -0.00






         TIME SUMMARY AT END OF TIME STEP    1 IN STRESS PERIOD    1
                    SECONDS     MINUTES      HOURS       DAYS        YEARS
                    -----------------------------------------------------------
   TIME STEP LENGTH 7.94880E+06 1.32480E+05  2208.0      92.000     0.25188    
 STRESS PERIOD TIME 7.94880E+06 1.32480E+05  2208.0      92.000     0.25188    
         TOTAL TIME 7.94880E+06 1.32480E+05  2208.0      92.000     0.25188    
1
1
                            STRESS PERIOD NO.    2, LENGTH =   91.00000    
                            -----------------------------------------------

                              NUMBER OF TIME STEPS =     1

                               MULTIPLIER FOR DELT =     1.500

                            INITIAL TIME STEP SIZE =   91.00000    

 WELL NO.  LAYER   ROW   COL   STRESS RATE         
 --------------------------------------------------
      1      1     22      9     -0.3717E+05
      2      1     24     11     -0.5000E+05
      3      1     24     23     -0.5000E+05

      3 WELLS

                 RECHARGE =  2.000000E-03

 REUSING STREAM SEGMENT DATA FROM LAST STRESS PERIOD
 
 SOLVING FOR HEAD 


     6 CALLS TO PCG ROUTINE FOR TIME STEP   1 IN STRESS PERIOD    2
    24 TOTAL ITERATIONS

 OUTPUT CONTROL FOR STRESS PERIOD    2   TIME STEP    1
    SAVE BUDGET
    SAVE HEAD FOR ALL LAYERS
    PRINT HEAD FOR ALL LAYERS
 UBDSV2 SAVING "STREAMFLOW OUT  " ON UNIT  50 AT TIME STEP  1, STRESS PERIOD   2



 STREAM LISTING     PERIOD      2   STEP        1

 LAYER ROW COL. STREAM  RCH.  FLOW INTO     FLOW TO   FLOW OUT OF   OVRLND.     DIRECT     STREAM       STREAM     STREAM     STREAM   STREAMBED  STREAMBED
                SEG.NO.  NO.  STRM. RCH.    AQUIFER    STRM. RCH.    RUNOFF     PRECIP       ET          HEAD       DEPTH      WIDTH   CONDCTNC.   GRADIENT

   1   13    1     1     1    1.0000E+05 -2.8335E+04   1.2834E+05  0.000E+00  0.000E+00  0.000E+00  4.84180E+01  1.566E-01  2.000E+01  2.000E+04 -1.417E+00
   1   13    2     1     2    1.2834E+05 -3.8230E+04   1.6657E+05  0.000E+00  0.000E+00  0.000E+00  4.79667E+01  1.826E-01  2.000E+01  2.000E+04 -1.911E+00
   1   14    3     1     3    1.6657E+05 -3.3475E+04   2.0004E+05  0.000E+00  0.000E+00  0.000E+00  4.75149E+01  2.081E-01  2.000E+01  2.000E+04 -1.674E+00
   1   15    4     1     4    2.0004E+05 -3.2411E+04   2.3245E+05  0.000E+00  0.000E+00  0.000E+00  4.70593E+01  2.298E-01  2.000E+01  2.000E+04 -1.621E+00
   1   16    5     1     5    2.3245E+05 -3.3313E+04   2.6576E+05  0.000E+00  0.000E+00  0.000E+00  4.66024E+01  2.501E-01  2.000E+01  2.000E+04 -1.666E+00
   1   16    6     1     6    2.6576E+05 -2.8998E+04   2.9476E+05  0.000E+00  0.000E+00  0.000E+00  4.61435E+01  2.685E-01  2.000E+01  2.000E+04 -1.450E+00
   1   16    7     1     7    2.9476E+05 -2.8683E+04   3.2345E+05  0.000E+00  0.000E+00  0.000E+00  4.56824E+01  2.847E-01  2.000E+01  2.000E+04 -1.434E+00
   1   16    8     1     8    3.2345E+05 -2.8730E+04   3.5218E+05  0.000E+00  0.000E+00  0.000E+00  4.52207E+01  3.003E-01  2.000E+01  2.000E+04 -1.436E+00
   1   16    9     1     9    3.5218E+05 -2.8729E+04   3.8090E+05  0.000E+00  0.000E+00  0.000E+00  4.47585E+01  3.154E-01  2.000E+01  2.000E+04 -1.436E+00
   1   16   10     1    10    3.8090E+05 -2.8755E+04   4.0966E+05  0.000E+00  0.000E+00  0.000E+00  4.42959E+01  3.300E-01  2.000E+01  2.000E+04 -1.438E+00
   1   16   11     1    11    4.0966E+05 -2.9408E+04   4.3907E+05  0.000E+00  0.000E+00  0.000E+00  4.38330E+01  3.443E-01  2.000E+01  2.000E+04 -1.470E+00
   1   16   12     1    12    4.3907E+05 -3.4884E+04   4.7395E+05  0.000E+00  0.000E+00  0.000E+00  4.33711E+01  3.597E-01  2.000E+01  2.000E+04 -1.744E+00
   1   15   13     1    13    4.7395E+05 -3.4483E+04   5.0843E+05  0.000E+00  0.000E+00  0.000E+00  4.29100E+01  3.759E-01  2.000E+01  2.000E+04 -1.724E+00
   1   14   14     1    14    5.0843E+05 -3.5483E+04   5.4392E+05  0.000E+00  0.000E+00  0.000E+00  4.24486E+01  3.917E-01  2.000E+01  2.000E+04 -1.774E+00
   1   13   15     1    15    5.4392E+05 -3.7938E+04   5.8185E+05  0.000E+00  0.000E+00  0.000E+00  4.19875E+01  4.079E-01  2.000E+01  2.000E+04 -1.897E+00
   1   12   16     1    16    5.8185E+05 -4.4148E+04   6.2600E+05  0.000E+00  0.000E+00  0.000E+00  4.15278E+01  4.255E-01  2.000E+01  2.000E+04 -2.207E+00
   1   12   17     1    17    6.2600E+05 -3.4514E+04   6.6052E+05  0.000E+00  0.000E+00  0.000E+00  4.10669E+01  4.419E-01  2.000E+01  2.000E+04 -1.726E+00
   1   12   18     1    18    6.6052E+05 -3.2872E+04   6.9339E+05  0.000E+00  0.000E+00  0.000E+00  4.06034E+01  4.557E-01  2.000E+01  2.000E+04 -1.644E+00
   1   12   19     1    19    6.9339E+05 -3.7034E+04   7.3042E+05  0.000E+00  0.000E+00  0.000E+00  4.01401E+01  4.697E-01  2.000E+01  2.000E+04 -1.852E+00
   1   13   20     1    20    7.3042E+05 -2.7149E+04   7.5757E+05  0.000E+00  0.000E+00  0.000E+00  3.96754E+01  4.822E-01  2.000E+01  2.000E+04 -1.357E+00
   1   14   21     1    21    7.5757E+05 -1.9848E+04   7.7742E+05  0.000E+00  0.000E+00  0.000E+00  3.92072E+01  4.913E-01  2.000E+01  2.000E+04 -9.924E-01
   1   14   22     1    22    7.7742E+05 -1.8390E+03   7.7926E+05  0.000E+00  0.000E+00  0.000E+00  3.87341E+01  4.955E-01  2.000E+01  2.000E+04 -9.195E-02
   1    9   30     2     1    5.0000E+04 -2.7011E+04   7.7011E+04  0.000E+00  0.000E+00  0.000E+00  4.02587E+01  1.337E-01  2.000E+01  2.000E+04 -1.351E+00
   1    9   29     2     2    7.7011E+04 -2.9480E+04   1.0649E+05  0.000E+00  0.000E+00  0.000E+00  4.00418E+01  1.668E-01  2.000E+01  2.000E+04 -1.474E+00
   1    9   28     2     3    1.0649E+05 -3.3789E+04   1.4028E+05  0.000E+00  0.000E+00  0.000E+00  3.98242E+01  1.992E-01  2.000E+01  2.000E+04 -1.689E+00
   1    9   27     2     4    1.4028E+05 -4.8037E+04   1.8832E+05  0.000E+00  0.000E+00  0.000E+00  3.96116E+01  2.366E-01  2.000E+01  2.000E+04 -2.402E+00
   1   10   26     2     5    1.8832E+05 -3.4035E+04   2.2235E+05  0.000E+00  0.000E+00  0.000E+00  3.93954E+01  2.704E-01  2.000E+01  2.000E+04 -1.702E+00
   1   11   25     2     6    2.2235E+05 -2.5663E+04   2.4801E+05  0.000E+00  0.000E+00  0.000E+00  3.91684E+01  2.934E-01  2.000E+01  2.000E+04 -1.283E+00
   1   12   24     2     7    2.4801E+05 -1.9018E+04   2.6703E+05  0.000E+00  0.000E+00  0.000E+00  3.89348E+01  3.098E-01  2.000E+01  2.000E+04 -9.509E-01
   1   13   23     2     8    2.6703E+05 -1.3528E+04   2.8056E+05  0.000E+00  0.000E+00  0.000E+00  3.86964E+01  3.214E-01  2.000E+01  2.000E+04 -6.764E-01
   1   14   22     2     9    2.8056E+05 -7.4470E+03   2.8801E+05  0.000E+00  0.000E+00  0.000E+00  3.84537E+01  3.287E-01  2.000E+01  2.000E+04 -3.723E-01
   1   14   22     3     1    1.0673E+06 -1.5429E+04   1.0827E+06  0.000E+00  0.000E+00  0.000E+00  3.80546E+01  4.990E-01  2.000E+01  2.000E+04 -7.715E-01
   1   15   23     3     2    1.0827E+06 -2.3637E+04   1.1063E+06  0.000E+00  0.000E+00  0.000E+00  3.71711E+01  5.045E-01  2.000E+01  2.000E+04 -1.182E+00
   1   15   24     3     3    1.1063E+06 -1.9736E+04   1.1261E+06  0.000E+00  0.000E+00  0.000E+00  3.62882E+01  5.104E-01  2.000E+01  2.000E+04 -9.868E-01
   1   15   25     3     4    1.1261E+06 -1.9406E+04   1.1455E+06  0.000E+00  0.000E+00  0.000E+00  3.54047E+01  5.158E-01  2.000E+01  2.000E+04 -9.703E-01
   1   15   26     3     5    1.1455E+06 -2.2294E+04   1.1678E+06  0.000E+00  0.000E+00  0.000E+00  3.45215E+01  5.215E-01  2.000E+01  2.000E+04 -1.115E+00
   1   16   27     3     6    1.1678E+06 -2.9389E+04   1.1972E+06  0.000E+00  0.000E+00  0.000E+00  3.36395E+01  5.284E-01  2.000E+01  2.000E+04 -1.469E+00
   1   17   28     3     7    1.1972E+06 -3.6382E+04   1.2335E+06  0.000E+00  0.000E+00  0.000E+00  3.27594E+01  5.372E-01  2.000E+01  2.000E+04 -1.819E+00
   1   18   29     3     8    1.2335E+06 -4.7283E+04   1.2808E+06  0.000E+00  0.000E+00  0.000E+00  3.18815E+01  5.482E-01  2.000E+01  2.000E+04 -2.364E+00
   1   18   30     3     9    1.2808E+06 -4.3814E+04   1.3246E+06  0.000E+00  0.000E+00  0.000E+00  3.10045E+01  5.600E-01  2.000E+01  2.000E+04 -2.191E+00



1
              HEAD IN LAYER   1 AT END OF TIME STEP   1 IN STRESS PERIOD    2
  ---------------------------------------------------------------------------

          1      2      3      4      5      6      7      8      9     10
         11     12     13     14     15     16     17     18     19     20
         21     22     23     24     25     26     27     28     29     30
 .........................................................................
   1  ****** ****** ****** ****** ****** ****** ****** ****** ****** ******
      ****** ****** ****** ****** ****** ****** ****** ****** ****** ******
      ****** ****** ****** ****** ****** ****** ****** ****** ****** ******
   2  ****** ****** ****** ****** ****** ****** ****** ****** ****** ******
      ****** ****** ****** ****** ****** ****** ****** ****** ****** ******
      ****** ****** ****** ****** ****** ****** ****** ****** ****** ******
   3  ****** ****** ****** ****** ****** ****** ****** ****** ****** ******
      ****** ****** ****** ****** ****** ****** ****** ****** ****** ******
      ****** ****** ****** ****** ****** ****** ****** ****** ****** ******
   4  ****** ****** ****** ****** ****** ****** ****** ****** ****** ******
      ****** ****** ****** ****** ****** ****** ****** ****** ****** ******
      ****** ****** ****** ****** ****** ****** ****** ****** ****** ******
   5  ****** ****** ****** ****** ****** ****** ****** ****** ****** ******
      ****** ****** ****** ****** ****** ****** ****** ****** ****** ******
      ****** ****** ****** ****** ****** ****** ****** ****** ****** ******
   6  ****** ****** ****** ****** ****** ****** ****** ****** ****** ******
      ****** ****** ****** ****** ****** ****** ****** ****** ****** ******
      ****** ****** ****** ****** ****** ****** ****** ****** ****** ******
   7  ****** ****** ****** ****** ****** ****** ****** ****** ****** ******
      ****** ****** ****** ****** ****** ****** ****** ****** ****** ******
      ****** ****** ****** ****** ****** ****** ****** ****** ****** ******
   8  ****** ****** ****** ****** ****** ****** ****** ****** ****** ******
      ****** ****** ****** ****** ****** ****** ****** ****** ****** ******
      ****** ****** ****** ****** ****** ****** ****** ****** ****** ******
   9  ****** ****** ****** ****** ****** ****** ****** ****** ****** ******
      ****** ****** ****** ****** ****** ****** ****** ****** ****** ******
      ****** ****** ****** ****** ****** ****** ****** ****** ****** ******
  10  ****** ****** ****** ****** ****** ****** ****** ****** ****** ******
      ****** ****** ****** ****** ****** ****** ****** ****** ****** ******
      ****** ****** ****** ****** ****** ****** ****** ****** ****** ******
  11  ****** ****** ****** ****** ****** ****** ****** ****** ****** ******
      ****** ****** ****** ****** ****** ****** ****** ****** ****** ******
      ****** ****** ****** ****** ****** ****** ****** ****** ****** ******
  12  ****** ****** ****** ****** ****** ****** ****** ****** ****** ******
      ****** ****** ****** ****** ****** ****** ****** ****** ****** ******
      ****** ****** ****** ****** ****** ****** ****** ****** ****** ******
  13  ****** ****** ****** ****** ****** ****** ****** ****** ****** ******
      ****** ****** ****** ****** ****** ****** ****** ****** ****** ******
      ****** ****** ****** ****** ****** ****** ****** ****** ****** ******
  14  ****** ****** ****** ****** ****** ****** ****** ****** ****** ******
      ****** ****** ****** ****** ****** ****** ****** ****** ****** ******
      ****** ****** ****** ****** ****** ****** ****** ****** ****** ******
  15  ****** ****** ****** ****** ****** ****** ****** ****** ****** ******
      ****** ****** ****** ****** ****** ****** ****** ****** ****** ******
      ****** ****** ****** ****** ****** ****** ****** ****** ****** ******
  16  ****** ****** ****** ****** ****** ****** ****** ****** ****** ******
      ****** ****** ****** ****** ****** ****** ****** ****** ****** ******
      ****** ****** ****** ****** ****** ****** ****** ****** ****** ******
  17  ****** ****** ****** ****** ****** ****** ****** ****** ****** ******
      ****** ****** ****** ****** ****** ****** ****** ****** ****** ******
      ****** ****** ****** ****** ****** ****** ****** ****** ****** ******
  18  ****** ****** ****** ****** ****** ****** ****** ****** ****** ******
      ****** ****** ****** ****** ****** ****** ****** ****** ****** ******
      ****** ****** ****** ****** ****** ****** ****** ****** ****** ******
  19  ****** ****** ****** ****** ****** ****** ****** ****** ****** ******
      ****** ****** ****** ****** ****** ****** ****** ****** ****** ******
      ****** ****** ****** ****** ****** ****** ****** ****** ****** ******
  20  ****** ****** ****** ****** ****** ****** ****** ****** ****** ******
      ****** ****** ****** ****** ****** ****** ****** ****** ****** ******
      ****** ****** ****** ****** ****** ****** ****** ****** ****** ******
  21  ****** ****** ****** ****** ****** ****** ****** ****** ****** ******
      ****** ****** ****** ****** ****** ****** ****** ****** ****** ******
      ****** ****** ****** ****** ****** ****** ****** ****** ****** ******
  22  ****** ****** ****** ****** ****** ****** ****** ****** ****** ******
      ****** ****** ****** ****** ****** ****** ****** ****** ****** ******
      ****** ****** ****** ****** ****** ****** ****** ****** ****** ******
  23  ****** ****** ****** ****** ****** ****** ****** ****** ****** ******
      ****** ****** ****** ****** ****** ****** ****** ****** ****** ******
      ****** ****** ****** ****** ****** ****** ****** ****** ****** ******
  24  ****** ****** ****** ****** ****** ****** ****** ****** ****** ******
      ****** ****** ****** ****** ****** ****** ****** ****** ****** ******
      ****** ****** ****** ****** ****** ****** ****** ****** ****** ******
  25  ****** ****** ****** ****** ****** ****** ****** ****** ****** ******
      ****** ****** ****** ****** ****** ****** ****** ****** ****** ******
      ****** ****** ****** ****** ****** ****** ****** ****** ****** ******

 HEAD WILL BE SAVED ON UNIT   51 AT END OF TIME STEP    1, STRESS PERIOD    2
1
  VOLUMETRIC BUDGET FOR ENTIRE MODEL AT END OF TIME STEP    1, STRESS PERIOD   2
  ------------------------------------------------------------------------------

     CUMULATIVE VOLUMES      L**3       RATES FOR THIS TIME STEP      L**3/T
     ------------------                 ------------------------

           IN:                                      IN:
           ---                                      ---
             STORAGE =    19860957.4687               STORAGE =        7448.0784
       CONSTANT HEAD =   224864970.8575         CONSTANT HEAD =     1249153.8783
               WELLS =           0.0000                 WELLS =           0.0000
            RECHARGE =     6292800.0000              RECHARGE =       55200.0000
      STREAM LEAKAGE =           0.0000        STREAM LEAKAGE =           0.0000

            TOTAL IN =   251018728.3262              TOTAL IN =     1311801.9566

          OUT:                                     OUT:
          ----                                     ----
             STORAGE =           0.0000               STORAGE =           0.0000
       CONSTANT HEAD =           0.0000         CONSTANT HEAD =           0.0000
               WELLS =    25101340.6866                 WELLS =      137165.7961
            RECHARGE =           0.0000              RECHARGE =           0.0000
      STREAM LEAKAGE =   225917395.1131        STREAM LEAKAGE =     1174636.2231

           TOTAL OUT =   251018735.7997             TOTAL OUT =     1311802.0192

            IN - OUT =          -7.4736              IN - OUT =      -6.2579E-02

 PERCENT DISCREPANCY =          -0.00     PERCENT DISCREPANCY =          -0.00






         TIME SUMMARY AT END OF TIME STEP    1 IN STRESS PERIOD    2
                    SECONDS     MINUTES      HOURS       DAYS        YEARS
                    -----------------------------------------------------------
   TIME STEP LENGTH 7.86240E+06 1.31040E+05  2184.0      91.000     0.24914    
 STRESS PERIOD TIME 7.86240E+06 1.31040E+05  2184.0      91.000     0.24914    
         TOTAL TIME 1.58112E+07 2.63520E+05  4392.0      183.00     0.50103    
1
1
                            STRESS PERIOD NO.    3, LENGTH =   91.00000    
                            -----------------------------------------------

                              NUMBER OF TIME STEPS =     1

                               MULTIPLIER FOR DELT =     1.500

                            INITIAL TIME STEP SIZE =   91.00000    

 WELL NO.  LAYER   ROW   COL   STRESS RATE         
 --------------------------------------------------
      1      1     22      9     -0.3717E+05
      2      1     24     11     -0.5000E+05
      3      1     24     23     -0.5000E+05

      3 WELLS

                 RECHARGE =   0.00000    

 REUSING STREAM SEGMENT DATA FROM LAST STRESS PERIOD
 
 SOLVING FOR HEAD 


     6 CALLS TO PCG ROUTINE FOR TIME STEP   1 IN STRESS PERIOD    3
    23 TOTAL ITERATIONS

 OUTPUT CONTROL FOR STRESS PERIOD    3   TIME STEP    1
    SAVE BUDGET
    SAVE HEAD FOR ALL LAYERS
    PRINT HEAD FOR ALL LAYERS
 UBDSV2 SAVING "STREAMFLOW OUT  " ON UNIT  50 AT TIME STEP  1, STRESS PERIOD   3



 STREAM LISTING     PERIOD      3   STEP        1

 LAYER ROW COL. STREAM  RCH.  FLOW INTO     FLOW TO   FLOW OUT OF   OVRLND.     DIRECT     STREAM       STREAM     STREAM     STREAM   STREAMBED  STREAMBED
                SEG.NO.  NO.  STRM. RCH.    AQUIFER    STRM. RCH.    RUNOFF     PRECIP       ET          HEAD       DEPTH      WIDTH   CONDCTNC.   GRADIENT

   1   13    1     1     1    1.0000E+05 -2.7303E+04   1.2730E+05  0.000E+00  0.000E+00  0.000E+00  4.84176E+01  1.562E-01  2.000E+01  2.000E+04 -1.365E+00
   1   13    2     1     2    1.2730E+05 -3.6988E+04   1.6429E+05  0.000E+00  0.000E+00  0.000E+00  4.79655E+01  1.814E-01  2.000E+01  2.000E+04 -1.849E+00
   1   14    3     1     3    1.6429E+05 -3.2274E+04   1.9656E+05  0.000E+00  0.000E+00  0.000E+00  4.75129E+01  2.061E-01  2.000E+01  2.000E+04 -1.614E+00
   1   15    4     1     4    1.9656E+05 -3.1265E+04   2.2783E+05  0.000E+00  0.000E+00  0.000E+00  4.70567E+01  2.272E-01  2.000E+01  2.000E+04 -1.563E+00
   1   16    5     1     5    2.2783E+05 -3.2291E+04   2.6012E+05  0.000E+00  0.000E+00  0.000E+00  4.65993E+01  2.470E-01  2.000E+01  2.000E+04 -1.615E+00
   1   16    6     1     6    2.6012E+05 -2.8106E+04   2.8823E+05  0.000E+00  0.000E+00  0.000E+00  4.61399E+01  2.649E-01  2.000E+01  2.000E+04 -1.405E+00
   1   16    7     1     7    2.8823E+05 -2.7797E+04   3.1602E+05  0.000E+00  0.000E+00  0.000E+00  4.56786E+01  2.808E-01  2.000E+01  2.000E+04 -1.390E+00
   1   16    8     1     8    3.1602E+05 -2.7840E+04   3.4386E+05  0.000E+00  0.000E+00  0.000E+00  4.52165E+01  2.961E-01  2.000E+01  2.000E+04 -1.392E+00
   1   16    9     1     9    3.4386E+05 -2.7839E+04   3.7170E+05  0.000E+00  0.000E+00  0.000E+00  4.47540E+01  3.108E-01  2.000E+01  2.000E+04 -1.392E+00
   1   16   10     1    10    3.7170E+05 -2.7868E+04   3.9957E+05  0.000E+00  0.000E+00  0.000E+00  4.42910E+01  3.251E-01  2.000E+01  2.000E+04 -1.393E+00
   1   16   11     1    11    3.9957E+05 -2.8510E+04   4.2808E+05  0.000E+00  0.000E+00  0.000E+00  4.38278E+01  3.392E-01  2.000E+01  2.000E+04 -1.426E+00
   1   16   12     1    12    4.2808E+05 -3.3839E+04   4.6192E+05  0.000E+00  0.000E+00  0.000E+00  4.33656E+01  3.543E-01  2.000E+01  2.000E+04 -1.692E+00
   1   15   13     1    13    4.6192E+05 -3.3318E+04   4.9524E+05  0.000E+00  0.000E+00  0.000E+00  4.29042E+01  3.701E-01  2.000E+01  2.000E+04 -1.666E+00
   1   14   14     1    14    4.9524E+05 -3.4274E+04   5.2951E+05  0.000E+00  0.000E+00  0.000E+00  4.24424E+01  3.855E-01  2.000E+01  2.000E+04 -1.714E+00
   1   13   15     1    15    5.2951E+05 -3.6736E+04   5.6625E+05  0.000E+00  0.000E+00  0.000E+00  4.19809E+01  4.014E-01  2.000E+01  2.000E+04 -1.837E+00
   1   12   16     1    16    5.6625E+05 -4.2985E+04   6.0923E+05  0.000E+00  0.000E+00  0.000E+00  4.15209E+01  4.186E-01  2.000E+01  2.000E+04 -2.149E+00
   1   12   17     1    17    6.0923E+05 -3.3587E+04   6.4282E+05  0.000E+00  0.000E+00  0.000E+00  4.10598E+01  4.348E-01  2.000E+01  2.000E+04 -1.679E+00
   1   12   18     1    18    6.4282E+05 -3.1992E+04   6.7481E+05  0.000E+00  0.000E+00  0.000E+00  4.05960E+01  4.483E-01  2.000E+01  2.000E+04 -1.600E+00
   1   12   19     1    19    6.7481E+05 -3.6077E+04   7.1089E+05  0.000E+00  0.000E+00  0.000E+00  4.01325E+01  4.621E-01  2.000E+01  2.000E+04 -1.804E+00
   1   13   20     1    20    7.1089E+05 -2.6262E+04   7.3715E+05  0.000E+00  0.000E+00  0.000E+00  3.96676E+01  4.744E-01  2.000E+01  2.000E+04 -1.313E+00
   1   14   21     1    21    7.3715E+05 -1.9086E+04   7.5624E+05  0.000E+00  0.000E+00  0.000E+00  3.91992E+01  4.833E-01  2.000E+01  2.000E+04 -9.543E-01
   1   14   22     1    22    7.5624E+05 -1.5771E+03   7.5781E+05  0.000E+00  0.000E+00  0.000E+00  3.87259E+01  4.873E-01  2.000E+01  2.000E+04 -7.886E-02
   1    9   30     2     1    5.0000E+04 -2.6343E+04   7.6343E+04  0.000E+00  0.000E+00  0.000E+00  4.02583E+01  1.333E-01  2.000E+01  2.000E+04 -1.317E+00
   1    9   29     2     2    7.6343E+04 -2.8812E+04   1.0515E+05  0.000E+00  0.000E+00  0.000E+00  4.00407E+01  1.657E-01  2.000E+01  2.000E+04 -1.441E+00
   1    9   28     2     3    1.0515E+05 -3.3097E+04   1.3825E+05  0.000E+00  0.000E+00  0.000E+00  3.98226E+01  1.976E-01  2.000E+01  2.000E+04 -1.655E+00
   1    9   27     2     4    1.3825E+05 -4.7184E+04   1.8544E+05  0.000E+00  0.000E+00  0.000E+00  3.96094E+01  2.344E-01  2.000E+01  2.000E+04 -2.359E+00
   1   10   26     2     5    1.8544E+05 -3.3145E+04   2.1858E+05  0.000E+00  0.000E+00  0.000E+00  3.93928E+01  2.678E-01  2.000E+01  2.000E+04 -1.657E+00
   1   11   25     2     6    2.1858E+05 -2.4805E+04   2.4339E+05  0.000E+00  0.000E+00  0.000E+00  3.91652E+01  2.902E-01  2.000E+01  2.000E+04 -1.240E+00
   1   12   24     2     7    2.4339E+05 -1.8252E+04   2.6164E+05  0.000E+00  0.000E+00  0.000E+00  3.89312E+01  3.062E-01  2.000E+01  2.000E+04 -9.126E-01
   1   13   23     2     8    2.6164E+05 -1.2908E+04   2.7455E+05  0.000E+00  0.000E+00  0.000E+00  3.86924E+01  3.174E-01  2.000E+01  2.000E+04 -6.454E-01
   1   14   22     2     9    2.7455E+05 -7.1076E+03   2.8165E+05  0.000E+00  0.000E+00  0.000E+00  3.84494E+01  3.244E-01  2.000E+01  2.000E+04 -3.554E-01
   1   14   22     3     1    1.0395E+06 -1.5160E+04   1.0546E+06  0.000E+00  0.000E+00  0.000E+00  3.80468E+01  4.912E-01  2.000E+01  2.000E+04 -7.580E-01
   1   15   23     3     2    1.0546E+06 -2.2934E+04   1.0776E+06  0.000E+00  0.000E+00  0.000E+00  3.71632E+01  4.966E-01  2.000E+01  2.000E+04 -1.147E+00
   1   15   24     3     3    1.0776E+06 -1.9160E+04   1.0967E+06  0.000E+00  0.000E+00  0.000E+00  3.62802E+01  5.024E-01  2.000E+01  2.000E+04 -9.580E-01
   1   15   25     3     4    1.0967E+06 -1.8836E+04   1.1156E+06  0.000E+00  0.000E+00  0.000E+00  3.53966E+01  5.077E-01  2.000E+01  2.000E+04 -9.418E-01
   1   15   26     3     5    1.1156E+06 -2.1629E+04   1.1372E+06  0.000E+00  0.000E+00  0.000E+00  3.45132E+01  5.132E-01  2.000E+01  2.000E+04 -1.081E+00
   1   16   27     3     6    1.1372E+06 -2.8582E+04   1.1658E+06  0.000E+00  0.000E+00  0.000E+00  3.36312E+01  5.201E-01  2.000E+01  2.000E+04 -1.429E+00
   1   17   28     3     7    1.1658E+06 -3.5557E+04   1.2013E+06  0.000E+00  0.000E+00  0.000E+00  3.27509E+01  5.287E-01  2.000E+01  2.000E+04 -1.778E+00
   1   18   29     3     8    1.2013E+06 -4.6514E+04   1.2478E+06  0.000E+00  0.000E+00  0.000E+00  3.18730E+01  5.396E-01  2.000E+01  2.000E+04 -2.326E+00
   1   18   30     3     9    1.2478E+06 -4.3175E+04   1.2910E+06  0.000E+00  0.000E+00  0.000E+00  3.09958E+01  5.514E-01  2.000E+01  2.000E+04 -2.159E+00



1
              HEAD IN LAYER   1 AT END OF TIME STEP   1 IN STRESS PERIOD    3
  ---------------------------------------------------------------------------

          1      2      3      4      5      6      7      8      9     10
         11     12     13     14     15     16     17     18     19     20
         21     22     23     24     25     26     27     28     29     30
 .........................................................................
   1  ****** ****** ****** ****** ****** ****** ****** ****** ****** ******
      ****** ****** ****** ****** ****** ****** ****** ****** ****** ******
      ****** ****** ****** ****** ****** ****** ****** ****** ****** ******
   2  ****** ****** ****** ****** ****** ****** ****** ****** ****** ******
      ****** ****** ****** ****** ****** ****** ****** ****** ****** ******
      ****** ****** ****** ****** ****** ****** ****** ****** ****** ******
   3  ****** ****** ****** ****** ****** ****** ****** ****** ****** ******
      ****** ****** ****** ****** ****** ****** ****** ****** ****** ******
      ****** ****** ****** ****** ****** ****** ****** ****** ****** ******
   4  ****** ****** ****** ****** ****** ****** ****** ****** ****** ******
      ****** ****** ****** ****** ****** ****** ****** ****** ****** ******
      ****** ****** ****** ****** ****** ****** ****** ****** ****** ******
   5  ****** ****** ****** ****** ****** ****** ****** ****** ****** ******
      ****** ****** ****** ****** ****** ****** ****** ****** ****** ******
      ****** ****** ****** ****** ****** ****** ****** ****** ****** ******
   6  ****** ****** ****** ****** ****** ****** ****** ****** ****** ******
      ****** ****** ****** ****** ****** ****** ****** ****** ****** ******
      ****** ****** ****** ****** ****** ****** ****** ****** ****** ******
   7  ****** ****** ****** ****** ****** ****** ****** ****** ****** ******
      ****** ****** ****** ****** ****** ****** ****** ****** ****** ******
      ****** ****** ****** ****** ****** ****** ****** ****** ****** ******
   8  ****** ****** ****** ****** ****** ****** ****** ****** ****** ******
      ****** ****** ****** ****** ****** ****** ****** ****** ****** ******
      ****** ****** ****** ****** ****** ****** ****** ****** ****** ******
   9  ****** ****** ****** ****** ****** ****** ****** ****** ****** ******
      ****** ****** ****** ****** ****** ****** ****** ****** ****** ******
      ****** ****** ****** ****** ****** ****** ****** ****** ****** ******
  10  ****** ****** ****** ****** ****** ****** ****** ****** ****** ******
      ****** ****** ****** ****** ****** ****** ****** ****** ****** ******
      ****** ****** ****** ****** ****** ****** ****** ****** ****** ******
  11  ****** ****** ****** ****** ****** ****** ****** ****** ****** ******
      ****** ****** ****** ****** ****** ****** ****** ****** ****** ******
      ****** ****** ****** ****** ****** ****** ****** ****** ****** ******
  12  ****** ****** ****** ****** ****** ****** ****** ****** ****** ******
      ****** ****** ****** ****** ****** ****** ****** ****** ****** ******
      ****** ****** ****** ****** ****** ****** ****** ****** ****** ******
  13  ****** ****** ****** ****** ****** ****** ****** ****** ****** ******
      ****** ****** ****** ****** ****** ****** ****** ****** ****** ******
      ****** ****** ****** ****** ****** ****** ****** ****** ****** ******
  14  ****** ****** ****** ****** ****** ****** ****** ****** ****** ******
      ****** ****** ****** ****** ****** ****** ****** ****** ****** ******
      ****** ****** ****** ****** ****** ****** ****** ****** ****** ******
  15  ****** ****** ****** ****** ****** ****** ****** ****** ****** ******
      ****** ****** ****** ****** ****** ****** ****** ****** ****** ******
      ****** ****** ****** ****** ****** ****** ****** ****** ****** ******
  16  ****** ****** ****** ****** ****** ****** ****** ****** ****** ******
      ****** ****** ****** ****** ****** ****** ****** ****** ****** ******
      ****** ****** ****** ****** ****** ****** ****** ****** ****** ******
  17  ****** ****** ****** ****** ****** ****** ****** ****** ****** ******
      ****** ****** ****** ****** ****** ****** ****** ****** ****** ******
      ****** ****** ****** ****** ****** ****** ****** ****** ****** ******
  18  ****** ****** ****** ****** ****** ****** ****** ****** ****** ******
      ****** ****** ****** ****** ****** ****** ****** ****** ****** ******
      ****** ****** ****** ****** ****** ****** ****** ****** ****** ******
  19  ****** ****** ****** ****** ****** ****** ****** ****** ****** ******
      ****** ****** ****** ****** ****** ****** ****** ****** ****** ******
      ****** ****** ****** ****** ****** ****** ****** ****** ****** ******
  20  ****** ****** ****** ****** ****** ****** ****** ****** ****** ******
      ****** ****** ****** ****** ****** ****** ****** ****** ****** ******
      ****** ****** ****** ****** ****** ****** ****** ****** ****** ******
  21  ****** ****** ****** ****** ****** ****** ****** ****** ****** ******
      ****** ****** ****** ****** ****** ****** ****** ****** ****** ******
      ****** ****** ****** ****** ****** ****** ****** ****** ****** ******
  22  ****** ****** ****** ****** ****** ****** ****** ****** ****** ******
      ****** ****** ****** ****** ****** ****** ****** ****** ****** ******
      ****** ****** ****** ****** ****** ****** ****** ****** ****** ******
  23  ****** ****** ****** ****** ****** ****** ****** ****** ****** ******
      ****** ****** ****** ****** ****** ****** ****** ****** ****** ******
      ****** ****** ****** ****** ****** ****** ****** ****** ****** ******
  24  ****** ****** ****** ****** ****** ****** ****** ****** ****** ******
      ****** ****** ****** ****** ****** ****** ****** ****** ****** ******
      ****** ****** ****** ****** ****** ****** ****** ****** ****** ******
  25  ****** ****** ****** ****** ****** ****** ****** ****** ****** ******
      ****** ****** ****** ****** ****** ****** ****** ****** ****** ******
      ****** ****** ****** ****** ****** ****** ****** ****** ****** ******

 HEAD WILL BE SAVED ON UNIT   51 AT END OF TIME STEP    1, STRESS PERIOD    3
1
  VOLUMETRIC BUDGET FOR ENTIRE MODEL AT END OF TIME STEP    1, STRESS PERIOD   3
  ------------------------------------------------------------------------------

     CUMULATIVE VOLUMES      L**3       RATES FOR THIS TIME STEP      L**3/T
     ------------------                 ------------------------

           IN:                                      IN:
           ---                                      ---
             STORAGE =    20138512.9987               STORAGE =        3050.0608
       CONSTANT HEAD =   340901684.1894         CONSTANT HEAD =     1275128.7179
               WELLS =           0.0000                 WELLS =           0.0000
            RECHARGE =     6292800.0000              RECHARGE =           0.0000
      STREAM LEAKAGE =           0.0000        STREAM LEAKAGE =           0.0000

            TOTAL IN =   367332997.1881              TOTAL IN =     1278178.7787

          OUT:                                     OUT:
          ----                                     ----
             STORAGE =           0.0000               STORAGE =           0.0000
       CONSTANT HEAD =           0.0000         CONSTANT HEAD =           0.0000
               WELLS =    37583428.1319                 WELLS =      137165.7961
            RECHARGE =           0.0000              RECHARGE =           0.0000
      STREAM LEAKAGE =   329749580.4547        STREAM LEAKAGE =     1141013.0257

           TOTAL OUT =   367333008.5865             TOTAL OUT =     1278178.8218

            IN - OUT =         -11.3984              IN - OUT =      -4.3130E-02

 PERCENT DISCREPANCY =          -0.00     PERCENT DISCREPANCY =          -0.00






         TIME SUMMARY AT END OF TIME STEP    1 IN STRESS PERIOD    3
                    SECONDS     MINUTES      HOURS       DAYS        YEARS
                    -----------------------------------------------------------
   TIME STEP LENGTH 7.86240E+06 1.31040E+05  2184.0      91.000     0.24914    
 STRESS PERIOD TIME 7.86240E+06 1.31040E+05  2184.0      91.000     0.24914    
         TOTAL TIME 2.36736E+07 3.94560E+05  6576.0      274.00     0.75017    
1
1
                            STRESS PERIOD NO.    4, LENGTH =   91.00000    
                            -----------------------------------------------

                              NUMBER OF TIME STEPS =     1

                               MULTIPLIER FOR DELT =     1.500

                            INITIAL TIME STEP SIZE =   91.00000    

 WELL NO.  LAYER   ROW   COL   STRESS RATE         
 --------------------------------------------------
      1      1     22      9     -0.3717E+05
      2      1     24     11     -0.5000E+05
      3      1     24     23     -0.5000E+05

      3 WELLS

                 RECHARGE =  1.000000E-03

 REUSING STREAM SEGMENT DATA FROM LAST STRESS PERIOD
 
 SOLVING FOR HEAD 


     6 CALLS TO PCG ROUTINE FOR TIME STEP   1 IN STRESS PERIOD    4
    22 TOTAL ITERATIONS

 OUTPUT CONTROL FOR STRESS PERIOD    4   TIME STEP    1
    SAVE BUDGET
    SAVE HEAD FOR ALL LAYERS
    PRINT HEAD FOR ALL LAYERS
 UBDSV2 SAVING "STREAMFLOW OUT  " ON UNIT  50 AT TIME STEP  1, STRESS PERIOD   4



 STREAM LISTING     PERIOD      4   STEP        1

 LAYER ROW COL. STREAM  RCH.  FLOW INTO     FLOW TO   FLOW OUT OF   OVRLND.     DIRECT     STREAM       STREAM     STREAM     STREAM   STREAMBED  STREAMBED
                SEG.NO.  NO.  STRM. RCH.    AQUIFER    STRM. RCH.    RUNOFF     PRECIP       ET          HEAD       DEPTH      WIDTH   CONDCTNC.   GRADIENT

   1   13    1     1     1    1.0000E+05 -2.7683E+04   1.2768E+05  0.000E+00  0.000E+00  0.000E+00  4.84177E+01  1.564E-01  2.000E+01  2.000E+04 -1.384E+00
   1   13    2     1     2    1.2768E+05 -3.7439E+04   1.6512E+05  0.000E+00  0.000E+00  0.000E+00  4.79659E+01  1.818E-01  2.000E+01  2.000E+04 -1.872E+00
   1   14    3     1     3    1.6512E+05 -3.2722E+04   1.9784E+05  0.000E+00  0.000E+00  0.000E+00  4.75137E+01  2.068E-01  2.000E+01  2.000E+04 -1.636E+00
   1   15    4     1     4    1.9784E+05 -3.1701E+04   2.2954E+05  0.000E+00  0.000E+00  0.000E+00  4.70577E+01  2.281E-01  2.000E+01  2.000E+04 -1.585E+00
   1   16    5     1     5    2.2954E+05 -3.2688E+04   2.6223E+05  0.000E+00  0.000E+00  0.000E+00  4.66005E+01  2.482E-01  2.000E+01  2.000E+04 -1.634E+00
   1   16    6     1     6    2.6223E+05 -2.8450E+04   2.9068E+05  0.000E+00  0.000E+00  0.000E+00  4.61413E+01  2.663E-01  2.000E+01  2.000E+04 -1.422E+00
   1   16    7     1     7    2.9068E+05 -2.8136E+04   3.1882E+05  0.000E+00  0.000E+00  0.000E+00  4.56800E+01  2.823E-01  2.000E+01  2.000E+04 -1.407E+00
   1   16    8     1     8    3.1882E+05 -2.8180E+04   3.4700E+05  0.000E+00  0.000E+00  0.000E+00  4.52181E+01  2.977E-01  2.000E+01  2.000E+04 -1.409E+00
   1   16    9     1     9    3.4700E+05 -2.8179E+04   3.7518E+05  0.000E+00  0.000E+00  0.000E+00  4.47557E+01  3.125E-01  2.000E+01  2.000E+04 -1.409E+00
   1   16   10     1    10    3.7518E+05 -2.8208E+04   4.0339E+05  0.000E+00  0.000E+00  0.000E+00  4.42929E+01  3.270E-01  2.000E+01  2.000E+04 -1.410E+00
   1   16   11     1    11    4.0339E+05 -2.8855E+04   4.3224E+05  0.000E+00  0.000E+00  0.000E+00  4.38298E+01  3.411E-01  2.000E+01  2.000E+04 -1.443E+00
   1   16   12     1    12    4.3224E+05 -3.4241E+04   4.6648E+05  0.000E+00  0.000E+00  0.000E+00  4.33677E+01  3.564E-01  2.000E+01  2.000E+04 -1.712E+00
   1   15   13     1    13    4.6648E+05 -3.3759E+04   5.0024E+05  0.000E+00  0.000E+00  0.000E+00  4.29064E+01  3.723E-01  2.000E+01  2.000E+04 -1.688E+00
   1   14   14     1    14    5.0024E+05 -3.4728E+04   5.3497E+05  0.000E+00  0.000E+00  0.000E+00  4.24447E+01  3.879E-01  2.000E+01  2.000E+04 -1.736E+00
   1   13   15     1    15    5.3497E+05 -3.7186E+04   5.7216E+05  0.000E+00  0.000E+00  0.000E+00  4.19834E+01  4.039E-01  2.000E+01  2.000E+04 -1.859E+00
   1   12   16     1    16    5.7216E+05 -4.3417E+04   6.1557E+05  0.000E+00  0.000E+00  0.000E+00  4.15235E+01  4.212E-01  2.000E+01  2.000E+04 -2.171E+00
   1   12   17     1    17    6.1557E+05 -3.3938E+04   6.4951E+05  0.000E+00  0.000E+00  0.000E+00  4.10625E+01  4.375E-01  2.000E+01  2.000E+04 -1.697E+00
   1   12   18     1    18    6.4951E+05 -3.2330E+04   6.8184E+05  0.000E+00  0.000E+00  0.000E+00  4.05988E+01  4.511E-01  2.000E+01  2.000E+04 -1.616E+00
   1   12   19     1    19    6.8184E+05 -3.6447E+04   7.1829E+05  0.000E+00  0.000E+00  0.000E+00  4.01354E+01  4.650E-01  2.000E+01  2.000E+04 -1.822E+00
   1   13   20     1    20    7.1829E+05 -2.6612E+04   7.4490E+05  0.000E+00  0.000E+00  0.000E+00  3.96706E+01  4.774E-01  2.000E+01  2.000E+04 -1.331E+00
   1   14   21     1    21    7.4490E+05 -1.9389E+04   7.6429E+05  0.000E+00  0.000E+00  0.000E+00  3.92023E+01  4.864E-01  2.000E+01  2.000E+04 -9.694E-01
   1   14   22     1    22    7.6429E+05 -1.6854E+03   7.6597E+05  0.000E+00  0.000E+00  0.000E+00  3.87291E+01  4.904E-01  2.000E+01  2.000E+04 -8.427E-02
   1    9   30     2     1    5.0000E+04 -2.6621E+04   7.6621E+04  0.000E+00  0.000E+00  0.000E+00  4.02585E+01  1.335E-01  2.000E+01  2.000E+04 -1.331E+00
   1    9   29     2     2    7.6621E+04 -2.9090E+04   1.0571E+05  0.000E+00  0.000E+00  0.000E+00  4.00411E+01  1.661E-01  2.000E+01  2.000E+04 -1.454E+00
   1    9   28     2     3    1.0571E+05 -3.3383E+04   1.3909E+05  0.000E+00  0.000E+00  0.000E+00  3.98233E+01  1.983E-01  2.000E+01  2.000E+04 -1.669E+00
   1    9   27     2     4    1.3909E+05 -4.7532E+04   1.8663E+05  0.000E+00  0.000E+00  0.000E+00  3.96103E+01  2.353E-01  2.000E+01  2.000E+04 -2.377E+00
   1   10   26     2     5    1.8663E+05 -3.3507E+04   2.2013E+05  0.000E+00  0.000E+00  0.000E+00  3.93939E+01  2.689E-01  2.000E+01  2.000E+04 -1.675E+00
   1   11   25     2     6    2.2013E+05 -2.5153E+04   2.4529E+05  0.000E+00  0.000E+00  0.000E+00  3.91665E+01  2.915E-01  2.000E+01  2.000E+04 -1.258E+00
   1   12   24     2     7    2.4529E+05 -1.8564E+04   2.6385E+05  0.000E+00  0.000E+00  0.000E+00  3.89326E+01  3.076E-01  2.000E+01  2.000E+04 -9.282E-01
   1   13   23     2     8    2.6385E+05 -1.3162E+04   2.7701E+05  0.000E+00  0.000E+00  0.000E+00  3.86940E+01  3.190E-01  2.000E+01  2.000E+04 -6.581E-01
   1   14   22     2     9    2.7701E+05 -7.2429E+03   2.8426E+05  0.000E+00  0.000E+00  0.000E+00  3.84512E+01  3.262E-01  2.000E+01  2.000E+04 -3.621E-01
   1   14   22     3     1    1.0502E+06 -1.5270E+04   1.0655E+06  0.000E+00  0.000E+00  0.000E+00  3.80498E+01  4.943E-01  2.000E+01  2.000E+04 -7.635E-01
   1   15   23     3     2    1.0655E+06 -2.3217E+04   1.0887E+06  0.000E+00  0.000E+00  0.000E+00  3.71663E+01  4.996E-01  2.000E+01  2.000E+04 -1.161E+00
   1   15   24     3     3    1.0887E+06 -1.9397E+04   1.1081E+06  0.000E+00  0.000E+00  0.000E+00  3.62833E+01  5.055E-01  2.000E+01  2.000E+04 -9.698E-01
   1   15   25     3     4    1.1081E+06 -1.9072E+04   1.1272E+06  0.000E+00  0.000E+00  0.000E+00  3.53997E+01  5.108E-01  2.000E+01  2.000E+04 -9.536E-01
   1   15   26     3     5    1.1272E+06 -2.1905E+04   1.1491E+06  0.000E+00  0.000E+00  0.000E+00  3.45164E+01  5.164E-01  2.000E+01  2.000E+04 -1.095E+00
   1   16   27     3     6    1.1491E+06 -2.8915E+04   1.1780E+06  0.000E+00  0.000E+00  0.000E+00  3.36344E+01  5.233E-01  2.000E+01  2.000E+04 -1.446E+00
   1   17   28     3     7    1.1780E+06 -3.5897E+04   1.2139E+06  0.000E+00  0.000E+00  0.000E+00  3.27542E+01  5.320E-01  2.000E+01  2.000E+04 -1.795E+00
   1   18   29     3     8    1.2139E+06 -4.6833E+04   1.2607E+06  0.000E+00  0.000E+00  0.000E+00  3.18763E+01  5.430E-01  2.000E+01  2.000E+04 -2.342E+00
   1   18   30     3     9    1.2607E+06 -4.3442E+04   1.3042E+06  0.000E+00  0.000E+00  0.000E+00  3.09992E+01  5.548E-01  2.000E+01  2.000E+04 -2.172E+00



1
              HEAD IN LAYER   1 AT END OF TIME STEP   1 IN STRESS PERIOD    4
  ---------------------------------------------------------------------------

          1      2      3      4      5      6      7      8      9     10
         11     12     13     14     15     16     17     18     19     20
         21     22     23     24     25     26     27     28     29     30
 .........................................................................
   1  ****** ****** ****** ****** ****** ****** ****** ****** ****** ******
      ****** ****** ****** ****** ****** ****** ****** ****** ****** ******
      ****** ****** ****** ****** ****** ****** ****** ****** ****** ******
   2  ****** ****** ****** ****** ****** ****** ****** ****** ****** ******
      ****** ****** ****** ****** ****** ****** ****** ****** ****** ******
      ****** ****** ****** ****** ****** ****** ****** ****** ****** ******
   3  ****** ****** ****** ****** ****** ****** ****** ****** ****** ******
      ****** ****** ****** ****** ****** ****** ****** ****** ****** ******
      ****** ****** ****** ****** ****** ****** ****** ****** ****** ******
   4  ****** ****** ****** ****** ****** ****** ****** ****** ****** ******
      ****** ****** ****** ****** ****** ****** ****** ****** ****** ******
      ****** ****** ****** ****** ****** ****** ****** ****** ****** ******
   5  ****** ****** ****** ****** ****** ****** ****** ****** ****** ******
      ****** ****** ****** ****** ****** ****** ****** ****** ****** ******
      ****** ****** ****** ****** ****** ****** ****** ****** ****** ******
   6  ****** ****** ****** ****** ****** ****** ****** ****** ****** ******
      ****** ****** ****** ****** ****** ****** ****** ****** ****** ******
      ****** ****** ****** ****** ****** ****** ****** ****** ****** ******
   7  ****** ****** ****** ****** ****** ****** ****** ****** ****** ******
      ****** ****** ****** ****** ****** ****** ****** ****** ****** ******
      ****** ****** ****** ****** ****** ****** ****** ****** ****** ******
   8  ****** ****** ****** ****** ****** ****** ****** ****** ****** ******
      ****** ****** ****** ****** ****** ****** ****** ****** ****** ******
      ****** ****** ****** ****** ****** ****** ****** ****** ****** ******
   9  ****** ****** ****** ****** ****** ****** ****** ****** ****** ******
      ****** ****** ****** ****** ****** ****** ****** ****** ****** ******
      ****** ****** ****** ****** ****** ****** ****** ****** ****** ******
  10  ****** ****** ****** ****** ****** ****** ****** ****** ****** ******
      ****** ****** ****** ****** ****** ****** ****** ****** ****** ******
      ****** ****** ****** ****** ****** ****** ****** ****** ****** ******
  11  ****** ****** ****** ****** ****** ****** ****** ****** ****** ******
      ****** ****** ****** ****** ****** ****** ****** ****** ****** ******
      ****** ****** ****** ****** ****** ****** ****** ****** ****** ******
  12  ****** ****** ****** ****** ****** ****** ****** ****** ****** ******
      ****** ****** ****** ****** ****** ****** ****** ****** ****** ******
      ****** ****** ****** ****** ****** ****** ****** ****** ****** ******
  13  ****** ****** ****** ****** ****** ****** ****** ****** ****** ******
      ****** ****** ****** ****** ****** ****** ****** ****** ****** ******
      ****** ****** ****** ****** ****** ****** ****** ****** ****** ******
  14  ****** ****** ****** ****** ****** ****** ****** ****** ****** ******
      ****** ****** ****** ****** ****** ****** ****** ****** ****** ******
      ****** ****** ****** ****** ****** ****** ****** ****** ****** ******
  15  ****** ****** ****** ****** ****** ****** ****** ****** ****** ******
      ****** ****** ****** ****** ****** ****** ****** ****** ****** ******
      ****** ****** ****** ****** ****** ****** ****** ****** ****** ******
  16  ****** ****** ****** ****** ****** ****** ****** ****** ****** ******
      ****** ****** ****** ****** ****** ****** ****** ****** ****** ******
      ****** ****** ****** ****** ****** ****** ****** ****** ****** ******
  17  ****** ****** ****** ****** ****** ****** ****** ****** ****** ******
      ****** ****** ****** ****** ****** ****** ****** ****** ****** ******
      ****** ****** ****** ****** ****** ****** ****** ****** ****** ******
  18  ****** ****** ****** ****** ****** ****** ****** ****** ****** ******
      ****** ****** ****** ****** ****** ****** ****** ****** ****** ******
      ****** ****** ****** ****** ****** ****** ****** ****** ****** ******
  19  ****** ****** ****** ****** ****** ****** ****** ****** ****** ******
      ****** ****** ****** ****** ****** ****** ****** ****** ****** ******
      ****** ****** ****** ****** ****** ****** ****** ****** ****** ******
  20  ****** ****** ****** ****** ****** ****** ****** ****** ****** ******
      ****** ****** ****** ****** ****** ****** ****** ****** ****** ******
      ****** ****** ****** ****** ****** ****** ****** ****** ****** ******
  21  ****** ****** ****** ****** ****** ****** ****** ****** ****** ******
      ****** ****** ****** ****** ****** ****** ****** ****** ****** ******
      ****** ****** ****** ****** ****** ****** ****** ****** ****** ******
  22  ****** ****** ****** ****** ****** ****** ****** ****** ****** ******
      ****** ****** ****** ****** ****** ****** ****** ****** ****** ******
      ****** ****** ****** ****** ****** ****** ****** ****** ****** ******
  23  ****** ****** ****** ****** ****** ****** ****** ****** ****** ******
      ****** ****** ****** ****** ****** ****** ****** ****** ****** ******
      ****** ****** ****** ****** ****** ****** ****** ****** ****** ******
  24  ****** ****** ****** ****** ****** ****** ****** ****** ****** ******
      ****** ****** ****** ****** ****** ****** ****** ****** ****** ******
      ****** ****** ****** ****** ****** ****** ****** ****** ****** ******
  25  ****** ****** ****** ****** ****** ****** ****** ****** ****** ******
      ****** ****** ****** ****** ****** ****** ****** ****** ****** ******
      ****** ****** ****** ****** ****** ****** ****** ****** ****** ******

 HEAD WILL BE SAVED ON UNIT   51 AT END OF TIME STEP    1, STRESS PERIOD    4
1
  VOLUMETRIC BUDGET FOR ENTIRE MODEL AT END OF TIME STEP    1, STRESS PERIOD   4
  ------------------------------------------------------------------------------

     CUMULATIVE VOLUMES      L**3       RATES FOR THIS TIME STEP      L**3/T
     ------------------                 ------------------------

           IN:                                      IN:
           ---                                      ---
             STORAGE =    20138512.9987               STORAGE =           0.0000
       CONSTANT HEAD =   456005753.5367         CONSTANT HEAD =     1264879.8829
               WELLS =           0.0000                 WELLS =           0.0000
            RECHARGE =     8804400.0000              RECHARGE =       27600.0000
      STREAM LEAKAGE =           0.0000        STREAM LEAKAGE =           0.0000

            TOTAL IN =   484948666.5354              TOTAL IN =     1292479.8829

          OUT:                                     OUT:
          ----                                     ----
             STORAGE =      103354.2711               STORAGE =        1135.7612
       CONSTANT HEAD =           0.0000         CONSTANT HEAD =           0.0000
               WELLS =    50065515.5771                 WELLS =      137165.7961
            RECHARGE =           0.0000              RECHARGE =           0.0000
      STREAM LEAKAGE =   434779806.2582        STREAM LEAKAGE =     1154178.3055

           TOTAL OUT =   484948676.1064             TOTAL OUT =     1292479.8629

            IN - OUT =          -9.5710              IN - OUT =       2.0082E-02

 PERCENT DISCREPANCY =          -0.00     PERCENT DISCREPANCY =           0.00






         TIME SUMMARY AT END OF TIME STEP    1 IN STRESS PERIOD    4
                    SECONDS     MINUTES      HOURS       DAYS        YEARS
                    -----------------------------------------------------------
   TIME STEP LENGTH 7.86240E+06 1.31040E+05  2184.0      91.000     0.24914    
 STRESS PERIOD TIME 7.86240E+06 1.31040E+05  2184.0      91.000     0.24914    
         TOTAL TIME 3.15360E+07 5.25600E+05  8760.0      365.00     0.99932    
1
1
                            STRESS PERIOD NO.    5, LENGTH =   92.00000    
                            -----------------------------------------------

                              NUMBER OF TIME STEPS =     1

                               MULTIPLIER FOR DELT =     1.500

                            INITIAL TIME STEP SIZE =   92.00000    

 WELL NO.  LAYER   ROW   COL   STRESS RATE         
 --------------------------------------------------
      1      1     22      9     -0.3717E+05
      2      1     24     11     -0.5000E+05
      3      1     24     23     -0.5000E+05

      3 WELLS

                 RECHARGE =  5.000000E-04

 REUSING STREAM SEGMENT DATA FROM LAST STRESS PERIOD
 
 SOLVING FOR HEAD 


     5 CALLS TO PCG ROUTINE FOR TIME STEP   1 IN STRESS PERIOD    5
    20 TOTAL ITERATIONS

 OUTPUT CONTROL FOR STRESS PERIOD    5   TIME STEP    1
    SAVE BUDGET
    SAVE HEAD FOR ALL LAYERS
    PRINT HEAD FOR ALL LAYERS
 UBDSV2 SAVING "STREAMFLOW OUT  " ON UNIT  50 AT TIME STEP  1, STRESS PERIOD   5



 STREAM LISTING     PERIOD      5   STEP        1

 LAYER ROW COL. STREAM  RCH.  FLOW INTO     FLOW TO   FLOW OUT OF   OVRLND.     DIRECT     STREAM       STREAM     STREAM     STREAM   STREAMBED  STREAMBED
                SEG.NO.  NO.  STRM. RCH.    AQUIFER    STRM. RCH.    RUNOFF     PRECIP       ET          HEAD       DEPTH      WIDTH   CONDCTNC.   GRADIENT

   1   13    1     1     1    1.0000E+05 -2.7483E+04   1.2748E+05  0.000E+00  0.000E+00  0.000E+00  4.84176E+01  1.563E-01  2.000E+01  2.000E+04 -1.374E+00
   1   13    2     1     2    1.2748E+05 -3.7202E+04   1.6469E+05  0.000E+00  0.000E+00  0.000E+00  4.79657E+01  1.816E-01  2.000E+01  2.000E+04 -1.860E+00
   1   14    3     1     3    1.6469E+05 -3.2488E+04   1.9717E+05  0.000E+00  0.000E+00  0.000E+00  4.75133E+01  2.065E-01  2.000E+01  2.000E+04 -1.624E+00
   1   15    4     1     4    1.9717E+05 -3.1475E+04   2.2865E+05  0.000E+00  0.000E+00  0.000E+00  4.70572E+01  2.276E-01  2.000E+01  2.000E+04 -1.574E+00
   1   16    5     1     5    2.2865E+05 -3.2483E+04   2.6113E+05  0.000E+00  0.000E+00  0.000E+00  4.65998E+01  2.476E-01  2.000E+01  2.000E+04 -1.624E+00
   1   16    6     1     6    2.6113E+05 -2.8272E+04   2.8940E+05  0.000E+00  0.000E+00  0.000E+00  4.61406E+01  2.656E-01  2.000E+01  2.000E+04 -1.414E+00
   1   16    7     1     7    2.8940E+05 -2.7960E+04   3.1736E+05  0.000E+00  0.000E+00  0.000E+00  4.56793E+01  2.815E-01  2.000E+01  2.000E+04 -1.398E+00
   1   16    8     1     8    3.1736E+05 -2.8004E+04   3.4537E+05  0.000E+00  0.000E+00  0.000E+00  4.52173E+01  2.968E-01  2.000E+01  2.000E+04 -1.400E+00
   1   16    9     1     9    3.4537E+05 -2.8003E+04   3.7337E+05  0.000E+00  0.000E+00  0.000E+00  4.47548E+01  3.116E-01  2.000E+01  2.000E+04 -1.400E+00
   1   16   10     1    10    3.7337E+05 -2.8032E+04   4.0140E+05  0.000E+00  0.000E+00  0.000E+00  4.42919E+01  3.260E-01  2.000E+01  2.000E+04 -1.402E+00
   1   16   11     1    11    4.0140E+05 -2.8677E+04   4.3008E+05  0.000E+00  0.000E+00  0.000E+00  4.38287E+01  3.401E-01  2.000E+01  2.000E+04 -1.434E+00
   1   16   12     1    12    4.3008E+05 -3.4033E+04   4.6411E+05  0.000E+00  0.000E+00  0.000E+00  4.33666E+01  3.553E-01  2.000E+01  2.000E+04 -1.702E+00
   1   15   13     1    13    4.6411E+05 -3.3530E+04   4.9764E+05  0.000E+00  0.000E+00  0.000E+00  4.29052E+01  3.711E-01  2.000E+01  2.000E+04 -1.677E+00
   1   14   14     1    14    4.9764E+05 -3.4492E+04   5.3213E+05  0.000E+00  0.000E+00  0.000E+00  4.24435E+01  3.867E-01  2.000E+01  2.000E+04 -1.725E+00
   1   13   15     1    15    5.3213E+05 -3.6952E+04   5.6909E+05  0.000E+00  0.000E+00  0.000E+00  4.19821E+01  4.026E-01  2.000E+01  2.000E+04 -1.848E+00
   1   12   16     1    16    5.6909E+05 -4.3192E+04   6.1228E+05  0.000E+00  0.000E+00  0.000E+00  4.15222E+01  4.199E-01  2.000E+01  2.000E+04 -2.160E+00
   1   12   17     1    17    6.1228E+05 -3.3756E+04   6.4603E+05  0.000E+00  0.000E+00  0.000E+00  4.10611E+01  4.361E-01  2.000E+01  2.000E+04 -1.688E+00
   1   12   18     1    18    6.4603E+05 -3.2155E+04   6.7819E+05  0.000E+00  0.000E+00  0.000E+00  4.05974E+01  4.497E-01  2.000E+01  2.000E+04 -1.608E+00
   1   12   19     1    19    6.7819E+05 -3.6256E+04   7.1444E+05  0.000E+00  0.000E+00  0.000E+00  4.01339E+01  4.635E-01  2.000E+01  2.000E+04 -1.813E+00
   1   13   20     1    20    7.1444E+05 -2.6432E+04   7.4088E+05  0.000E+00  0.000E+00  0.000E+00  3.96690E+01  4.759E-01  2.000E+01  2.000E+04 -1.322E+00
   1   14   21     1    21    7.4088E+05 -1.9233E+04   7.6011E+05  0.000E+00  0.000E+00  0.000E+00  3.92007E+01  4.848E-01  2.000E+01  2.000E+04 -9.617E-01
   1   14   22     1    22    7.6011E+05 -1.6303E+03   7.6174E+05  0.000E+00  0.000E+00  0.000E+00  3.87274E+01  4.888E-01  2.000E+01  2.000E+04 -8.151E-02
   1    9   30     2     1    5.0000E+04 -2.6480E+04   7.6480E+04  0.000E+00  0.000E+00  0.000E+00  4.02584E+01  1.334E-01  2.000E+01  2.000E+04 -1.324E+00
   1    9   29     2     2    7.6480E+04 -2.8949E+04   1.0543E+05  0.000E+00  0.000E+00  0.000E+00  4.00409E+01  1.659E-01  2.000E+01  2.000E+04 -1.447E+00
   1    9   28     2     3    1.0543E+05 -3.3238E+04   1.3867E+05  0.000E+00  0.000E+00  0.000E+00  3.98229E+01  1.979E-01  2.000E+01  2.000E+04 -1.662E+00
   1    9   27     2     4    1.3867E+05 -4.7354E+04   1.8602E+05  0.000E+00  0.000E+00  0.000E+00  3.96099E+01  2.349E-01  2.000E+01  2.000E+04 -2.368E+00
   1   10   26     2     5    1.8602E+05 -3.3322E+04   2.1934E+05  0.000E+00  0.000E+00  0.000E+00  3.93933E+01  2.683E-01  2.000E+01  2.000E+04 -1.666E+00
   1   11   25     2     6    2.1934E+05 -2.4975E+04   2.4432E+05  0.000E+00  0.000E+00  0.000E+00  3.91659E+01  2.909E-01  2.000E+01  2.000E+04 -1.249E+00
   1   12   24     2     7    2.4432E+05 -1.8405E+04   2.6272E+05  0.000E+00  0.000E+00  0.000E+00  3.89319E+01  3.069E-01  2.000E+01  2.000E+04 -9.202E-01
   1   13   23     2     8    2.6272E+05 -1.3033E+04   2.7576E+05  0.000E+00  0.000E+00  0.000E+00  3.86932E+01  3.182E-01  2.000E+01  2.000E+04 -6.516E-01
   1   14   22     2     9    2.7576E+05 -7.1734E+03   2.8293E+05  0.000E+00  0.000E+00  0.000E+00  3.84503E+01  3.253E-01  2.000E+01  2.000E+04 -3.587E-01
   1   14   22     3     1    1.0447E+06 -1.5214E+04   1.0599E+06  0.000E+00  0.000E+00  0.000E+00  3.80483E+01  4.927E-01  2.000E+01  2.000E+04 -7.607E-01
   1   15   23     3     2    1.0599E+06 -2.3072E+04   1.0830E+06  0.000E+00  0.000E+00  0.000E+00  3.71647E+01  4.981E-01  2.000E+01  2.000E+04 -1.154E+00
   1   15   24     3     3    1.0830E+06 -1.9276E+04   1.1022E+06  0.000E+00  0.000E+00  0.000E+00  3.62817E+01  5.039E-01  2.000E+01  2.000E+04 -9.638E-01
   1   15   25     3     4    1.1022E+06 -1.8952E+04   1.1212E+06  0.000E+00  0.000E+00  0.000E+00  3.53981E+01  5.092E-01  2.000E+01  2.000E+04 -9.476E-01
   1   15   26     3     5    1.1212E+06 -2.1765E+04   1.1429E+06  0.000E+00  0.000E+00  0.000E+00  3.45148E+01  5.148E-01  2.000E+01  2.000E+04 -1.088E+00
   1   16   27     3     6    1.1429E+06 -2.8746E+04   1.1717E+06  0.000E+00  0.000E+00  0.000E+00  3.36328E+01  5.216E-01  2.000E+01  2.000E+04 -1.437E+00
   1   17   28     3     7    1.1717E+06 -3.5725E+04   1.2074E+06  0.000E+00  0.000E+00  0.000E+00  3.27525E+01  5.303E-01  2.000E+01  2.000E+04 -1.786E+00
   1   18   29     3     8    1.2074E+06 -4.6671E+04   1.2541E+06  0.000E+00  0.000E+00  0.000E+00  3.18746E+01  5.413E-01  2.000E+01  2.000E+04 -2.334E+00
   1   18   30     3     9    1.2541E+06 -4.3306E+04   1.2974E+06  0.000E+00  0.000E+00  0.000E+00  3.09975E+01  5.530E-01  2.000E+01  2.000E+04 -2.165E+00



1
              HEAD IN LAYER   1 AT END OF TIME STEP   1 IN STRESS PERIOD    5
  ---------------------------------------------------------------------------

          1      2      3      4      5      6      7      8      9     10
         11     12     13     14     15     16     17     18     19     20
         21     22     23     24     25     26     27     28     29     30
 .........................................................................
   1  ****** ****** ****** ****** ****** ****** ****** ****** ****** ******
      ****** ****** ****** ****** ****** ****** ****** ****** ****** ******
      ****** ****** ****** ****** ****** ****** ****** ****** ****** ******
   2  ****** ****** ****** ****** ****** ****** ****** ****** ****** ******
      ****** ****** ****** ****** ****** ****** ****** ****** ****** ******
      ****** ****** ****** ****** ****** ****** ****** ****** ****** ******
   3  ****** ****** ****** ****** ****** ****** ****** ****** ****** ******
      ****** ****** ****** ****** ****** ****** ****** ****** ****** ******
      ****** ****** ****** ****** ****** ****** ****** ****** ****** ******
   4  ****** ****** ****** ****** ****** ****** ****** ****** ****** ******
      ****** ****** ****** ****** ****** ****** ****** ****** ****** ******
      ****** ****** ****** ****** ****** ****** ****** ****** ****** ******
   5  ****** ****** ****** ****** ****** ****** ****** ****** ****** ******
      ****** ****** ****** ****** ****** ****** ****** ****** ****** ******
      ****** ****** ****** ****** ****** ****** ****** ****** ****** ******
   6  ****** ****** ****** ****** ****** ****** ****** ****** ****** ******
      ****** ****** ****** ****** ****** ****** ****** ****** ****** ******
      ****** ****** ****** ****** ****** ****** ****** ****** ****** ******
   7  ****** ****** ****** ****** ****** ****** ****** ****** ****** ******
      ****** ****** ****** ****** ****** ****** ****** ****** ****** ******
      ****** ****** ****** ****** ****** ****** ****** ****** ****** ******
   8  ****** ****** ****** ****** ****** ****** ****** ****** ****** ******
      ****** ****** ****** ****** ****** ****** ****** ****** ****** ******
      ****** ****** ****** ****** ****** ****** ****** ****** ****** ******
   9  ****** ****** ****** ****** ****** ****** ****** ****** ****** ******
      ****** ****** ****** ****** ****** ****** ****** ****** ****** ******
      ****** ****** ****** ****** ****** ****** ****** ****** ****** ******
  10  ****** ****** ****** ****** ****** ****** ****** ****** ****** ******
      ****** ****** ****** ****** ****** ****** ****** ****** ****** ******
      ****** ****** ****** ****** ****** ****** ****** ****** ****** ******
  11  ****** ****** ****** ****** ****** ****** ****** ****** ****** ******
      ****** ****** ****** ****** ****** ****** ****** ****** ****** ******
      ****** ****** ****** ****** ****** ****** ****** ****** ****** ******
  12  ****** ****** ****** ****** ****** ****** ****** ****** ****** ******
      ****** ****** ****** ****** ****** ****** ****** ****** ****** ******
      ****** ****** ****** ****** ****** ****** ****** ****** ****** ******
  13  ****** ****** ****** ****** ****** ****** ****** ****** ****** ******
      ****** ****** ****** ****** ****** ****** ****** ****** ****** ******
      ****** ****** ****** ****** ****** ****** ****** ****** ****** ******
  14  ****** ****** ****** ****** ****** ****** ****** ****** ****** ******
      ****** ****** ****** ****** ****** ****** ****** ****** ****** ******
      ****** ****** ****** ****** ****** ****** ****** ****** ****** ******
  15  ****** ****** ****** ****** ****** ****** ****** ****** ****** ******
      ****** ****** ****** ****** ****** ****** ****** ****** ****** ******
      ****** ****** ****** ****** ****** ****** ****** ****** ****** ******
  16  ****** ****** ****** ****** ****** ****** ****** ****** ****** ******
      ****** ****** ****** ****** ****** ****** ****** ****** ****** ******
      ****** ****** ****** ****** ****** ****** ****** ****** ****** ******
  17  ****** ****** ****** ****** ****** ****** ****** ****** ****** ******
      ****** ****** ****** ****** ****** ****** ****** ****** ****** ******
      ****** ****** ****** ****** ****** ****** ****** ****** ****** ******
  18  ****** ****** ****** ****** ****** ****** ****** ****** ****** ******
      ****** ****** ****** ****** ****** ****** ****** ****** ****** ******
      ****** ****** ****** ****** ****** ****** ****** ****** ****** ******
  19  ****** ****** ****** ****** ****** ****** ****** ****** ****** ******
      ****** ****** ****** ****** ****** ****** ****** ****** ****** ******
      ****** ****** ****** ****** ****** ****** ****** ****** ****** ******
  20  ****** ****** ****** ****** ****** ****** ****** ****** ****** ******
      ****** ****** ****** ****** ****** ****** ****** ****** ****** ******
      ****** ****** ****** ****** ****** ****** ****** ****** ****** ******
  21  ****** ****** ****** ****** ****** ****** ****** ****** ****** ******
      ****** ****** ****** ****** ****** ****** ****** ****** ****** ******
      ****** ****** ****** ****** ****** ****** ****** ****** ****** ******
  22  ****** ****** ****** ****** ****** ****** ****** ****** ****** ******
      ****** ****** ****** ****** ****** ****** ****** ****** ****** ******
      ****** ****** ****** ****** ****** ****** ****** ****** ****** ******
  23  ****** ****** ****** ****** ****** ****** ****** ****** ****** ******
      ****** ****** ****** ****** ****** ****** ****** ****** ****** ******
      ****** ****** ****** ****** ****** ****** ****** ****** ****** ******
  24  ****** ****** ****** ****** ****** ****** ****** ****** ****** ******
      ****** ****** ****** ****** ****** ****** ****** ****** ****** ******
      ****** ****** ****** ****** ****** ****** ****** ****** ****** ******
  25  ****** ****** ****** ****** ****** ****** ****** ****** ****** ******
      ****** ****** ****** ****** ****** ****** ****** ****** ****** ******
      ****** ****** ****** ****** ****** ****** ****** ****** ****** ******

 HEAD WILL BE SAVED ON UNIT   51 AT END OF TIME STEP    1, STRESS PERIOD    5
1
  VOLUMETRIC BUDGET FOR ENTIRE MODEL AT END OF TIME STEP    1, STRESS PERIOD   5
  ------------------------------------------------------------------------------

     CUMULATIVE VOLUMES      L**3       RATES FOR THIS TIME STEP      L**3/T
     ------------------                 ------------------------

           IN:                                      IN:
           ---                                      ---
             STORAGE =    20192420.8654               STORAGE =         585.9551
       CONSTANT HEAD =   572861841.6581         CONSTANT HEAD =     1270174.8709
               WELLS =           0.0000                 WELLS =           0.0000
            RECHARGE =    10074000.0000              RECHARGE =       13800.0000
      STREAM LEAKAGE =           0.0000        STREAM LEAKAGE =           0.0000

            TOTAL IN =   603128262.5235              TOTAL IN =     1284560.8260

          OUT:                                     OUT:
          ----                                     ----
             STORAGE =      103354.2711               STORAGE =           0.0000
       CONSTANT HEAD =           0.0000         CONSTANT HEAD =           0.0000
               WELLS =    62684768.8185                 WELLS =      137165.7961
            RECHARGE =           0.0000              RECHARGE =           0.0000
      STREAM LEAKAGE =   540340150.8339        STREAM LEAKAGE =     1147395.0497

           TOTAL OUT =   603128273.9234             TOTAL OUT =     1284560.8458

            IN - OUT =         -11.3999              IN - OUT =      -1.9880E-02

 PERCENT DISCREPANCY =          -0.00     PERCENT DISCREPANCY =          -0.00






         TIME SUMMARY AT END OF TIME STEP    1 IN STRESS PERIOD    5
                    SECONDS     MINUTES      HOURS       DAYS        YEARS
                    -----------------------------------------------------------
   TIME STEP LENGTH 7.94880E+06 1.32480E+05  2208.0      92.000     0.25188    
 STRESS PERIOD TIME 7.94880E+06 1.32480E+05  2208.0      92.000     0.25188    
         TOTAL TIME 3.94848E+07 6.58080E+05  10968.      457.00      1.2512    
1
1
                            STRESS PERIOD NO.    6, LENGTH =   91.00000    
                            -----------------------------------------------

                              NUMBER OF TIME STEPS =     1

                               MULTIPLIER FOR DELT =     1.500

                            INITIAL TIME STEP SIZE =   91.00000    

 WELL NO.  LAYER   ROW   COL   STRESS RATE         
 --------------------------------------------------
      1      1     22      9     -0.3717E+05
      2      1     24     11     -0.5000E+05
      3      1     24     23     -0.5000E+05

      3 WELLS

                 RECHARGE =  2.000000E-03

 REUSING STREAM SEGMENT DATA FROM LAST STRESS PERIOD
 
 SOLVING FOR HEAD 


     6 CALLS TO PCG ROUTINE FOR TIME STEP   1 IN STRESS PERIOD    6
    22 TOTAL ITERATIONS

 OUTPUT CONTROL FOR STRESS PERIOD    6   TIME STEP    1
    SAVE BUDGET
    SAVE HEAD FOR ALL LAYERS
    PRINT HEAD FOR ALL LAYERS
 UBDSV2 SAVING "STREAMFLOW OUT  " ON UNIT  50 AT TIME STEP  1, STRESS PERIOD   6



 STREAM LISTING     PERIOD      6   STEP        1

 LAYER ROW COL. STREAM  RCH.  FLOW INTO     FLOW TO   FLOW OUT OF   OVRLND.     DIRECT     STREAM       STREAM     STREAM     STREAM   STREAMBED  STREAMBED
                SEG.NO.  NO.  STRM. RCH.    AQUIFER    STRM. RCH.    RUNOFF     PRECIP       ET          HEAD       DEPTH      WIDTH   CONDCTNC.   GRADIENT

   1   13    1     1     1    1.0000E+05 -2.8136E+04   1.2814E+05  0.000E+00  0.000E+00  0.000E+00  4.84179E+01  1.565E-01  2.000E+01  2.000E+04 -1.407E+00
   1   13    2     1     2    1.2814E+05 -3.7981E+04   1.6612E+05  0.000E+00  0.000E+00  0.000E+00  4.79665E+01  1.824E-01  2.000E+01  2.000E+04 -1.899E+00
   1   14    3     1     3    1.6612E+05 -3.3250E+04   1.9937E+05  0.000E+00  0.000E+00  0.000E+00  4.75145E+01  2.077E-01  2.000E+01  2.000E+04 -1.663E+00
   1   15    4     1     4    1.9937E+05 -3.2207E+04   2.3157E+05  0.000E+00  0.000E+00  0.000E+00  4.70588E+01  2.293E-01  2.000E+01  2.000E+04 -1.610E+00
   1   16    5     1     5    2.3157E+05 -3.3144E+04   2.6472E+05  0.000E+00  0.000E+00  0.000E+00  4.66018E+01  2.495E-01  2.000E+01  2.000E+04 -1.657E+00
   1   16    6     1     6    2.6472E+05 -2.8847E+04   2.9356E+05  0.000E+00  0.000E+00  0.000E+00  4.61428E+01  2.678E-01  2.000E+01  2.000E+04 -1.442E+00
   1   16    7     1     7    2.9356E+05 -2.8530E+04   3.2209E+05  0.000E+00  0.000E+00  0.000E+00  4.56817E+01  2.840E-01  2.000E+01  2.000E+04 -1.426E+00
   1   16    8     1     8    3.2209E+05 -2.8575E+04   3.5067E+05  0.000E+00  0.000E+00  0.000E+00  4.52200E+01  2.995E-01  2.000E+01  2.000E+04 -1.429E+00
   1   16    9     1     9    3.5067E+05 -2.8573E+04   3.7924E+05  0.000E+00  0.000E+00  0.000E+00  4.47577E+01  3.145E-01  2.000E+01  2.000E+04 -1.429E+00
   1   16   10     1    10    3.7924E+05 -2.8601E+04   4.0784E+05  0.000E+00  0.000E+00  0.000E+00  4.42950E+01  3.291E-01  2.000E+01  2.000E+04 -1.430E+00
   1   16   11     1    11    4.0784E+05 -2.9253E+04   4.3710E+05  0.000E+00  0.000E+00  0.000E+00  4.38320E+01  3.434E-01  2.000E+01  2.000E+04 -1.463E+00
   1   16   12     1    12    4.3710E+05 -3.4705E+04   4.7180E+05  0.000E+00  0.000E+00  0.000E+00  4.33701E+01  3.588E-01  2.000E+01  2.000E+04 -1.735E+00
   1   15   13     1    13    4.7180E+05 -3.4272E+04   5.0607E+05  0.000E+00  0.000E+00  0.000E+00  4.29090E+01  3.749E-01  2.000E+01  2.000E+04 -1.714E+00
   1   14   14     1    14    5.0607E+05 -3.5258E+04   5.4133E+05  0.000E+00  0.000E+00  0.000E+00  4.24475E+01  3.906E-01  2.000E+01  2.000E+04 -1.763E+00
   1   13   15     1    15    5.4133E+05 -3.7712E+04   5.7904E+05  0.000E+00  0.000E+00  0.000E+00  4.19863E+01  4.067E-01  2.000E+01  2.000E+04 -1.886E+00
   1   12   16     1    16    5.7904E+05 -4.3926E+04   6.2297E+05  0.000E+00  0.000E+00  0.000E+00  4.15266E+01  4.243E-01  2.000E+01  2.000E+04 -2.196E+00
   1   12   17     1    17    6.2297E+05 -3.4347E+04   6.5732E+05  0.000E+00  0.000E+00  0.000E+00  4.10656E+01  4.406E-01  2.000E+01  2.000E+04 -1.717E+00
   1   12   18     1    18    6.5732E+05 -3.2720E+04   6.9004E+05  0.000E+00  0.000E+00  0.000E+00  4.06021E+01  4.544E-01  2.000E+01  2.000E+04 -1.636E+00
   1   12   19     1    19    6.9004E+05 -3.6872E+04   7.2691E+05  0.000E+00  0.000E+00  0.000E+00  4.01387E+01  4.683E-01  2.000E+01  2.000E+04 -1.844E+00
   1   13   20     1    20    7.2691E+05 -2.7009E+04   7.5392E+05  0.000E+00  0.000E+00  0.000E+00  3.96740E+01  4.808E-01  2.000E+01  2.000E+04 -1.350E+00
   1   14   21     1    21    7.5392E+05 -1.9730E+04   7.7365E+05  0.000E+00  0.000E+00  0.000E+00  3.92058E+01  4.899E-01  2.000E+01  2.000E+04 -9.865E-01
   1   14   22     1    22    7.7365E+05 -1.8045E+03   7.7545E+05  0.000E+00  0.000E+00  0.000E+00  3.87327E+01  4.940E-01  2.000E+01  2.000E+04 -9.022E-02
   1    9   30     2     1    5.0000E+04 -2.6925E+04   7.6925E+04  0.000E+00  0.000E+00  0.000E+00  4.02587E+01  1.337E-01  2.000E+01  2.000E+04 -1.346E+00
   1    9   29     2     2    7.6925E+04 -2.9394E+04   1.0632E+05  0.000E+00  0.000E+00  0.000E+00  4.00416E+01  1.666E-01  2.000E+01  2.000E+04 -1.470E+00
   1    9   28     2     3    1.0632E+05 -3.3698E+04   1.4002E+05  0.000E+00  0.000E+00  0.000E+00  3.98240E+01  1.990E-01  2.000E+01  2.000E+04 -1.685E+00
   1    9   27     2     4    1.4002E+05 -4.7919E+04   1.8794E+05  0.000E+00  0.000E+00  0.000E+00  3.96113E+01  2.363E-01  2.000E+01  2.000E+04 -2.396E+00
   1   10   26     2     5    1.8794E+05 -3.3908E+04   2.2184E+05  0.000E+00  0.000E+00  0.000E+00  3.93951E+01  2.701E-01  2.000E+01  2.000E+04 -1.695E+00
   1   11   25     2     6    2.2184E+05 -2.5540E+04   2.4738E+05  0.000E+00  0.000E+00  0.000E+00  3.91679E+01  2.929E-01  2.000E+01  2.000E+04 -1.277E+00
   1   12   24     2     7    2.4738E+05 -1.8910E+04   2.6629E+05  0.000E+00  0.000E+00  0.000E+00  3.89343E+01  3.093E-01  2.000E+01  2.000E+04 -9.455E-01
   1   13   23     2     8    2.6629E+05 -1.3443E+04   2.7974E+05  0.000E+00  0.000E+00  0.000E+00  3.86958E+01  3.208E-01  2.000E+01  2.000E+04 -6.722E-01
   1   14   22     2     9    2.7974E+05 -7.3952E+03   2.8713E+05  0.000E+00  0.000E+00  0.000E+00  3.84531E+01  3.281E-01  2.000E+01  2.000E+04 -3.698E-01
   1   14   22     3     1    1.0626E+06 -1.5392E+04   1.0780E+06  0.000E+00  0.000E+00  0.000E+00  3.80533E+01  4.977E-01  2.000E+01  2.000E+04 -7.696E-01
   1   15   23     3     2    1.0780E+06 -2.3534E+04   1.1015E+06  0.000E+00  0.000E+00  0.000E+00  3.71698E+01  5.031E-01  2.000E+01  2.000E+04 -1.177E+00
   1   15   24     3     3    1.1015E+06 -1.9657E+04   1.1212E+06  0.000E+00  0.000E+00  0.000E+00  3.62869E+01  5.091E-01  2.000E+01  2.000E+04 -9.829E-01
   1   15   25     3     4    1.1212E+06 -1.9331E+04   1.1405E+06  0.000E+00  0.000E+00  0.000E+00  3.54033E+01  5.144E-01  2.000E+01  2.000E+04 -9.665E-01
   1   15   26     3     5    1.1405E+06 -2.2206E+04   1.1627E+06  0.000E+00  0.000E+00  0.000E+00  3.45201E+01  5.201E-01  2.000E+01  2.000E+04 -1.110E+00
   1   16   27     3     6    1.1627E+06 -2.9278E+04   1.1920E+06  0.000E+00  0.000E+00  0.000E+00  3.36381E+01  5.270E-01  2.000E+01  2.000E+04 -1.464E+00
   1   17   28     3     7    1.1920E+06 -3.6270E+04   1.2283E+06  0.000E+00  0.000E+00  0.000E+00  3.27580E+01  5.358E-01  2.000E+01  2.000E+04 -1.814E+00
   1   18   29     3     8    1.2283E+06 -4.7183E+04   1.2754E+06  0.000E+00  0.000E+00  0.000E+00  3.18801E+01  5.468E-01  2.000E+01  2.000E+04 -2.359E+00
   1   18   30     3     9    1.2754E+06 -4.3733E+04   1.3192E+06  0.000E+00  0.000E+00  0.000E+00  3.10031E+01  5.586E-01  2.000E+01  2.000E+04 -2.187E+00



1
              HEAD IN LAYER   1 AT END OF TIME STEP   1 IN STRESS PERIOD    6
  ---------------------------------------------------------------------------

          1      2      3      4      5      6      7      8      9     10
         11     12     13     14     15     16     17     18     19     20
         21     22     23     24     25     26     27     28     29     30
 .........................................................................
   1  ****** ****** ****** ****** ****** ****** ****** ****** ****** ******
      ****** ****** ****** ****** ****** ****** ****** ****** ****** ******
      ****** ****** ****** ****** ****** ****** ****** ****** ****** ******
   2  ****** ****** ****** ****** ****** ****** ****** ****** ****** ******
      ****** ****** ****** ****** ****** ****** ****** ****** ****** ******
      ****** ****** ****** ****** ****** ****** ****** ****** ****** ******
   3  ****** ****** ****** ****** ****** ****** ****** ****** ****** ******
      ****** ****** ****** ****** ****** ****** ****** ****** ****** ******
      ****** ****** ****** ****** ****** ****** ****** ****** ****** ******
   4  ****** ****** ****** ****** ****** ****** ****** ****** ****** ******
      ****** ****** ****** ****** ****** ****** ****** ****** ****** ******
      ****** ****** ****** ****** ****** ****** ****** ****** ****** ******
   5  ****** ****** ****** ****** ****** ****** ****** ****** ****** ******
      ****** ****** ****** ****** ****** ****** ****** ****** ****** ******
      ****** ****** ****** ****** ****** ****** ****** ****** ****** ******
   6  ****** ****** ****** ****** ****** ****** ****** ****** ****** ******
      ****** ****** ****** ****** ****** ****** ****** ****** ****** ******
      ****** ****** ****** ****** ****** ****** ****** ****** ****** ******
   7  ****** ****** ****** ****** ****** ****** ****** ****** ****** ******
      ****** ****** ****** ****** ****** ****** ****** ****** ****** ******
      ****** ****** ****** ****** ****** ****** ****** ****** ****** ******
   8  ****** ****** ****** ****** ****** ****** ****** ****** ****** ******
      ****** ****** ****** ****** ****** ****** ****** ****** ****** ******
      ****** ****** ****** ****** ****** ****** ****** ****** ****** ******
   9  ****** ****** ****** ****** ****** ****** ****** ****** ****** ******
      ****** ****** ****** ****** ****** ****** ****** ****** ****** ******
      ****** ****** ****** ****** ****** ****** ****** ****** ****** ******
  10  ****** ****** ****** ****** ****** ****** ****** ****** ****** ******
      ****** ****** ****** ****** ****** ****** ****** ****** ****** ******
      ****** ****** ****** ****** ****** ****** ****** ****** ****** ******
  11  ****** ****** ****** ****** ****** ****** ****** ****** ****** ******
      ****** ****** ****** ****** ****** ****** ****** ****** ****** ******
      ****** ****** ****** ****** ****** ****** ****** ****** ****** ******
  12  ****** ****** ****** ****** ****** ****** ****** ****** ****** ******
      ****** ****** ****** ****** ****** ****** ****** ****** ****** ******
      ****** ****** ****** ****** ****** ****** ****** ****** ****** ******
  13  ****** ****** ****** ****** ****** ****** ****** ****** ****** ******
      ****** ****** ****** ****** ****** ****** ****** ****** ****** ******
      ****** ****** ****** ****** ****** ****** ****** ****** ****** ******
  14  ****** ****** ****** ****** ****** ****** ****** ****** ****** ******
      ****** ****** ****** ****** ****** ****** ****** ****** ****** ******
      ****** ****** ****** ****** ****** ****** ****** ****** ****** ******
  15  ****** ****** ****** ****** ****** ****** ****** ****** ****** ******
      ****** ****** ****** ****** ****** ****** ****** ****** ****** ******
      ****** ****** ****** ****** ****** ****** ****** ****** ****** ******
  16  ****** ****** ****** ****** ****** ****** ****** ****** ****** ******
      ****** ****** ****** ****** ****** ****** ****** ****** ****** ******
      ****** ****** ****** ****** ****** ****** ****** ****** ****** ******
  17  ****** ****** ****** ****** ****** ****** ****** ****** ****** ******
      ****** ****** ****** ****** ****** ****** ****** ****** ****** ******
      ****** ****** ****** ****** ****** ****** ****** ****** ****** ******
  18  ****** ****** ****** ****** ****** ****** ****** ****** ****** ******
      ****** ****** ****** ****** ****** ****** ****** ****** ****** ******
      ****** ****** ****** ****** ****** ****** ****** ****** ****** ******
  19  ****** ****** ****** ****** ****** ****** ****** ****** ****** ******
      ****** ****** ****** ****** ****** ****** ****** ****** ****** ******
      ****** ****** ****** ****** ****** ****** ****** ****** ****** ******
  20  ****** ****** ****** ****** ****** ****** ****** ****** ****** ******
      ****** ****** ****** ****** ****** ****** ****** ****** ****** ******
      ****** ****** ****** ****** ****** ****** ****** ****** ****** ******
  21  ****** ****** ****** ****** ****** ****** ****** ****** ****** ******
      ****** ****** ****** ****** ****** ****** ****** ****** ****** ******
      ****** ****** ****** ****** ****** ****** ****** ****** ****** ******
  22  ****** ****** ****** ****** ****** ****** ****** ****** ****** ******
      ****** ****** ****** ****** ****** ****** ****** ****** ****** ******
      ****** ****** ****** ****** ****** ****** ****** ****** ****** ******
  23  ****** ****** ****** ****** ****** ****** ****** ****** ****** ******
      ****** ****** ****** ****** ****** ****** ****** ****** ****** ******
      ****** ****** ****** ****** ****** ****** ****** ****** ****** ******
  24  ****** ****** ****** ****** ****** ****** ****** ****** ****** ******
      ****** ****** ****** ****** ****** ****** ****** ****** ****** ******
      ****** ****** ****** ****** ****** ****** ****** ****** ****** ******
  25  ****** ****** ****** ****** ****** ****** ****** ****** ****** ******
      ****** ****** ****** ****** ****** ****** ****** ****** ****** ******
      ****** ****** ****** ****** ****** ****** ****** ****** ****** ******

 HEAD WILL BE SAVED ON UNIT   51 AT END OF TIME STEP    1, STRESS PERIOD    6
1
  VOLUMETRIC BUDGET FOR ENTIRE MODEL AT END OF TIME STEP    1, STRESS PERIOD   6
  ------------------------------------------------------------------------------

     CUMULATIVE VOLUMES      L**3       RATES FOR THIS TIME STEP      L**3/T
     ------------------                 ------------------------

           IN:                                      IN:
           ---                                      ---
             STORAGE =    20192420.8654               STORAGE =           0.0000
       CONSTANT HEAD =   686891452.9229         CONSTANT HEAD =     1253072.6513
               WELLS =           0.0000                 WELLS =           0.0000
            RECHARGE =    15097200.0000              RECHARGE =       55200.0000
      STREAM LEAKAGE =           0.0000        STREAM LEAKAGE =           0.0000

            TOTAL IN =   722181073.7883              TOTAL IN =     1308272.6513

          OUT:                                     OUT:
          ----                                     ----
             STORAGE =      279709.8234               STORAGE =        1937.9731
       CONSTANT HEAD =           0.0000         CONSTANT HEAD =           0.0000
               WELLS =    75166856.2637                 WELLS =      137165.7961
            RECHARGE =           0.0000              RECHARGE =           0.0000
      STREAM LEAKAGE =   646734516.0500        STREAM LEAKAGE =     1169168.8485

           TOTAL OUT =   722181082.1371             TOTAL OUT =     1308272.6177

            IN - OUT =          -8.3489              IN - OUT =       3.3528E-02

 PERCENT DISCREPANCY =          -0.00     PERCENT DISCREPANCY =           0.00






         TIME SUMMARY AT END OF TIME STEP    1 IN STRESS PERIOD    6
                    SECONDS     MINUTES      HOURS       DAYS        YEARS
                    -----------------------------------------------------------
   TIME STEP LENGTH 7.86240E+06 1.31040E+05  2184.0      91.000     0.24914    
 STRESS PERIOD TIME 7.86240E+06 1.31040E+05  2184.0      91.000     0.24914    
         TOTAL TIME 4.73472E+07 7.89120E+05  13152.      548.00      1.5003    
1
1
                            STRESS PERIOD NO.    7, LENGTH =   91.00000    
                            -----------------------------------------------

                              NUMBER OF TIME STEPS =     1

                               MULTIPLIER FOR DELT =     1.500

                            INITIAL TIME STEP SIZE =   91.00000    

 WELL NO.  LAYER   ROW   COL   STRESS RATE         
 --------------------------------------------------
      1      1     22      9     -0.3717E+05
      2      1     24     11     -0.5000E+05
      3      1     24     23     -0.5500E+05

      3 WELLS

                 RECHARGE =   0.00000    

 REUSING STREAM SEGMENT DATA FROM LAST STRESS PERIOD
 
 SOLVING FOR HEAD 


     6 CALLS TO PCG ROUTINE FOR TIME STEP   1 IN STRESS PERIOD    7
    22 TOTAL ITERATIONS

 OUTPUT CONTROL FOR STRESS PERIOD    7   TIME STEP    1
    SAVE BUDGET
    SAVE HEAD FOR ALL LAYERS
    PRINT HEAD FOR ALL LAYERS
 UBDSV2 SAVING "STREAMFLOW OUT  " ON UNIT  50 AT TIME STEP  1, STRESS PERIOD   7



 STREAM LISTING     PERIOD      7   STEP        1

 LAYER ROW COL. STREAM  RCH.  FLOW INTO     FLOW TO   FLOW OUT OF   OVRLND.     DIRECT     STREAM       STREAM     STREAM     STREAM   STREAMBED  STREAMBED
                SEG.NO.  NO.  STRM. RCH.    AQUIFER    STRM. RCH.    RUNOFF     PRECIP       ET          HEAD       DEPTH      WIDTH   CONDCTNC.   GRADIENT

   1   13    1     1     1    1.0000E+05 -2.7289E+04   1.2729E+05  0.000E+00  0.000E+00  0.000E+00  4.84176E+01  1.562E-01  2.000E+01  2.000E+04 -1.364E+00
   1   13    2     1     2    1.2729E+05 -3.6971E+04   1.6426E+05  0.000E+00  0.000E+00  0.000E+00  4.79654E+01  1.814E-01  2.000E+01  2.000E+04 -1.849E+00
   1   14    3     1     3    1.6426E+05 -3.2259E+04   1.9652E+05  0.000E+00  0.000E+00  0.000E+00  4.75129E+01  2.061E-01  2.000E+01  2.000E+04 -1.613E+00
   1   15    4     1     4    1.9652E+05 -3.1253E+04   2.2777E+05  0.000E+00  0.000E+00  0.000E+00  4.70567E+01  2.271E-01  2.000E+01  2.000E+04 -1.563E+00
   1   16    5     1     5    2.2777E+05 -3.2281E+04   2.6005E+05  0.000E+00  0.000E+00  0.000E+00  4.65993E+01  2.470E-01  2.000E+01  2.000E+04 -1.614E+00
   1   16    6     1     6    2.6005E+05 -2.8097E+04   2.8815E+05  0.000E+00  0.000E+00  0.000E+00  4.61399E+01  2.649E-01  2.000E+01  2.000E+04 -1.405E+00
   1   16    7     1     7    2.8815E+05 -2.7787E+04   3.1594E+05  0.000E+00  0.000E+00  0.000E+00  4.56785E+01  2.808E-01  2.000E+01  2.000E+04 -1.389E+00
   1   16    8     1     8    3.1594E+05 -2.7829E+04   3.4377E+05  0.000E+00  0.000E+00  0.000E+00  4.52165E+01  2.960E-01  2.000E+01  2.000E+04 -1.391E+00
   1   16    9     1     9    3.4377E+05 -2.7827E+04   3.7159E+05  0.000E+00  0.000E+00  0.000E+00  4.47539E+01  3.108E-01  2.000E+01  2.000E+04 -1.391E+00
   1   16   10     1    10    3.7159E+05 -2.7856E+04   3.9945E+05  0.000E+00  0.000E+00  0.000E+00  4.42910E+01  3.251E-01  2.000E+01  2.000E+04 -1.393E+00
   1   16   11     1    11    3.9945E+05 -2.8496E+04   4.2794E+05  0.000E+00  0.000E+00  0.000E+00  4.38277E+01  3.391E-01  2.000E+01  2.000E+04 -1.425E+00
   1   16   12     1    12    4.2794E+05 -3.3818E+04   4.6176E+05  0.000E+00  0.000E+00  0.000E+00  4.33656E+01  3.542E-01  2.000E+01  2.000E+04 -1.691E+00
   1   15   13     1    13    4.6176E+05 -3.3294E+04   4.9506E+05  0.000E+00  0.000E+00  0.000E+00  4.29041E+01  3.700E-01  2.000E+01  2.000E+04 -1.665E+00
   1   14   14     1    14    4.9506E+05 -3.4250E+04   5.2931E+05  0.000E+00  0.000E+00  0.000E+00  4.24423E+01  3.855E-01  2.000E+01  2.000E+04 -1.712E+00
   1   13   15     1    15    5.2931E+05 -3.6714E+04   5.6602E+05  0.000E+00  0.000E+00  0.000E+00  4.19808E+01  4.013E-01  2.000E+01  2.000E+04 -1.836E+00
   1   12   16     1    16    5.6602E+05 -4.2966E+04   6.0899E+05  0.000E+00  0.000E+00  0.000E+00  4.15208E+01  4.185E-01  2.000E+01  2.000E+04 -2.148E+00
   1   12   17     1    17    6.0899E+05 -3.3571E+04   6.4256E+05  0.000E+00  0.000E+00  0.000E+00  4.10597E+01  4.347E-01  2.000E+01  2.000E+04 -1.679E+00
   1   12   18     1    18    6.4256E+05 -3.1976E+04   6.7453E+05  0.000E+00  0.000E+00  0.000E+00  4.05959E+01  4.482E-01  2.000E+01  2.000E+04 -1.599E+00
   1   12   19     1    19    6.7453E+05 -3.6061E+04   7.1059E+05  0.000E+00  0.000E+00  0.000E+00  4.01324E+01  4.620E-01  2.000E+01  2.000E+04 -1.803E+00
   1   13   20     1    20    7.1059E+05 -2.6239E+04   7.3683E+05  0.000E+00  0.000E+00  0.000E+00  3.96675E+01  4.743E-01  2.000E+01  2.000E+04 -1.312E+00
   1   14   21     1    21    7.3683E+05 -1.9054E+04   7.5589E+05  0.000E+00  0.000E+00  0.000E+00  3.91991E+01  4.832E-01  2.000E+01  2.000E+04 -9.527E-01
   1   14   22     1    22    7.5589E+05 -1.5664E+03   7.5745E+05  0.000E+00  0.000E+00  0.000E+00  3.87258E+01  4.872E-01  2.000E+01  2.000E+04 -7.832E-02
   1    9   30     2     1    5.0000E+04 -2.6339E+04   7.6339E+04  0.000E+00  0.000E+00  0.000E+00  4.02583E+01  1.333E-01  2.000E+01  2.000E+04 -1.317E+00
   1    9   29     2     2    7.6339E+04 -2.8808E+04   1.0515E+05  0.000E+00  0.000E+00  0.000E+00  4.00407E+01  1.657E-01  2.000E+01  2.000E+04 -1.440E+00
   1    9   28     2     3    1.0515E+05 -3.3092E+04   1.3824E+05  0.000E+00  0.000E+00  0.000E+00  3.98226E+01  1.976E-01  2.000E+01  2.000E+04 -1.655E+00
   1    9   27     2     4    1.3824E+05 -4.7178E+04   1.8542E+05  0.000E+00  0.000E+00  0.000E+00  3.96094E+01  2.344E-01  2.000E+01  2.000E+04 -2.359E+00
   1   10   26     2     5    1.8542E+05 -3.3138E+04   2.1855E+05  0.000E+00  0.000E+00  0.000E+00  3.93928E+01  2.678E-01  2.000E+01  2.000E+04 -1.657E+00
   1   11   25     2     6    2.1855E+05 -2.4797E+04   2.4335E+05  0.000E+00  0.000E+00  0.000E+00  3.91652E+01  2.902E-01  2.000E+01  2.000E+04 -1.240E+00
   1   12   24     2     7    2.4335E+05 -1.8244E+04   2.6160E+05  0.000E+00  0.000E+00  0.000E+00  3.89311E+01  3.061E-01  2.000E+01  2.000E+04 -9.122E-01
   1   13   23     2     8    2.6160E+05 -1.2898E+04   2.7449E+05  0.000E+00  0.000E+00  0.000E+00  3.86923E+01  3.173E-01  2.000E+01  2.000E+04 -6.449E-01
   1   14   22     2     9    2.7449E+05 -7.0949E+03   2.8159E+05  0.000E+00  0.000E+00  0.000E+00  3.84494E+01  3.244E-01  2.000E+01  2.000E+04 -3.547E-01
   1   14   22     3     1    1.0390E+06 -1.5149E+04   1.0542E+06  0.000E+00  0.000E+00  0.000E+00  3.80467E+01  4.911E-01  2.000E+01  2.000E+04 -7.575E-01
   1   15   23     3     2    1.0542E+06 -2.2886E+04   1.0771E+06  0.000E+00  0.000E+00  0.000E+00  3.71631E+01  4.964E-01  2.000E+01  2.000E+04 -1.144E+00
   1   15   24     3     3    1.0771E+06 -1.9123E+04   1.0962E+06  0.000E+00  0.000E+00  0.000E+00  3.62801E+01  5.023E-01  2.000E+01  2.000E+04 -9.562E-01
   1   15   25     3     4    1.0962E+06 -1.8805E+04   1.1150E+06  0.000E+00  0.000E+00  0.000E+00  3.53964E+01  5.075E-01  2.000E+01  2.000E+04 -9.402E-01
   1   15   26     3     5    1.1150E+06 -2.1603E+04   1.1366E+06  0.000E+00  0.000E+00  0.000E+00  3.45131E+01  5.131E-01  2.000E+01  2.000E+04 -1.080E+00
   1   16   27     3     6    1.1366E+06 -2.8540E+04   1.1651E+06  0.000E+00  0.000E+00  0.000E+00  3.36310E+01  5.199E-01  2.000E+01  2.000E+04 -1.427E+00
   1   17   28     3     7    1.1651E+06 -3.5507E+04   1.2007E+06  0.000E+00  0.000E+00  0.000E+00  3.27508E+01  5.285E-01  2.000E+01  2.000E+04 -1.775E+00
   1   18   29     3     8    1.2007E+06 -4.6459E+04   1.2471E+06  0.000E+00  0.000E+00  0.000E+00  3.18728E+01  5.394E-01  2.000E+01  2.000E+04 -2.323E+00
   1   18   30     3     9    1.2471E+06 -4.3138E+04   1.2903E+06  0.000E+00  0.000E+00  0.000E+00  3.09956E+01  5.512E-01  2.000E+01  2.000E+04 -2.157E+00



1
              HEAD IN LAYER   1 AT END OF TIME STEP   1 IN STRESS PERIOD    7
  ---------------------------------------------------------------------------

          1      2      3      4      5      6      7      8      9     10
         11     12     13     14     15     16     17     18     19     20
         21     22     23     24     25     26     27     28     29     30
 .........................................................................
   1  ****** ****** ****** ****** ****** ****** ****** ****** ****** ******
      ****** ****** ****** ****** ****** ****** ****** ****** ****** ******
      ****** ****** ****** ****** ****** ****** ****** ****** ****** ******
   2  ****** ****** ****** ****** ****** ****** ****** ****** ****** ******
      ****** ****** ****** ****** ****** ****** ****** ****** ****** ******
      ****** ****** ****** ****** ****** ****** ****** ****** ****** ******
   3  ****** ****** ****** ****** ****** ****** ****** ****** ****** ******
      ****** ****** ****** ****** ****** ****** ****** ****** ****** ******
      ****** ****** ****** ****** ****** ****** ****** ****** ****** ******
   4  ****** ****** ****** ****** ****** ****** ****** ****** ****** ******
      ****** ****** ****** ****** ****** ****** ****** ****** ****** ******
      ****** ****** ****** ****** ****** ****** ****** ****** ****** ******
   5  ****** ****** ****** ****** ****** ****** ****** ****** ****** ******
      ****** ****** ****** ****** ****** ****** ****** ****** ****** ******
      ****** ****** ****** ****** ****** ****** ****** ****** ****** ******
   6  ****** ****** ****** ****** ****** ****** ****** ****** ****** ******
      ****** ****** ****** ****** ****** ****** ****** ****** ****** ******
      ****** ****** ****** ****** ****** ****** ****** ****** ****** ******
   7  ****** ****** ****** ****** ****** ****** ****** ****** ****** ******
      ****** ****** ****** ****** ****** ****** ****** ****** ****** ******
      ****** ****** ****** ****** ****** ****** ****** ****** ****** ******
   8  ****** ****** ****** ****** ****** ****** ****** ****** ****** ******
      ****** ****** ****** ****** ****** ****** ****** ****** ****** ******
      ****** ****** ****** ****** ****** ****** ****** ****** ****** ******
   9  ****** ****** ****** ****** ****** ****** ****** ****** ****** ******
      ****** ****** ****** ****** ****** ****** ****** ****** ****** ******
      ****** ****** ****** ****** ****** ****** ****** ****** ****** ******
  10  ****** ****** ****** ****** ****** ****** ****** ****** ****** ******
      ****** ****** ****** ****** ****** ****** ****** ****** ****** ******
      ****** ****** ****** ****** ****** ****** ****** ****** ****** ******
  11  ****** ****** ****** ****** ****** ****** ****** ****** ****** ******
      ****** ****** ****** ****** ****** ****** ****** ****** ****** ******
      ****** ****** ****** ****** ****** ****** ****** ****** ****** ******
  12  ****** ****** ****** ****** ****** ****** ****** ****** ****** ******
      ****** ****** ****** ****** ****** ****** ****** ****** ****** ******
      ****** ****** ****** ****** ****** ****** ****** ****** ****** ******
  13  ****** ****** ****** ****** ****** ****** ****** ****** ****** ******
      ****** ****** ****** ****** ****** ****** ****** ****** ****** ******
      ****** ****** ****** ****** ****** ****** ****** ****** ****** ******
  14  ****** ****** ****** ****** ****** ****** ****** ****** ****** ******
      ****** ****** ****** ****** ****** ****** ****** ****** ****** ******
      ****** ****** ****** ****** ****** ****** ****** ****** ****** ******
  15  ****** ****** ****** ****** ****** ****** ****** ****** ****** ******
      ****** ****** ****** ****** ****** ****** ****** ****** ****** ******
      ****** ****** ****** ****** ****** ****** ****** ****** ****** ******
  16  ****** ****** ****** ****** ****** ****** ****** ****** ****** ******
      ****** ****** ****** ****** ****** ****** ****** ****** ****** ******
      ****** ****** ****** ****** ****** ****** ****** ****** ****** ******
  17  ****** ****** ****** ****** ****** ****** ****** ****** ****** ******
      ****** ****** ****** ****** ****** ****** ****** ****** ****** ******
      ****** ****** ****** ****** ****** ****** ****** ****** ****** ******
  18  ****** ****** ****** ****** ****** ****** ****** ****** ****** ******
      ****** ****** ****** ****** ****** ****** ****** ****** ****** ******
      ****** ****** ****** ****** ****** ****** ****** ****** ****** ******
  19  ****** ****** ****** ****** ****** ****** ****** ****** ****** ******
      ****** ****** ****** ****** ****** ****** ****** ****** ****** ******
      ****** ****** ****** ****** ****** ****** ****** ****** ****** ******
  20  ****** ****** ****** ****** ****** ****** ****** ****** ****** ******
      ****** ****** ****** ****** ****** ****** ****** ****** ****** ******
      ****** ****** ****** ****** ****** ****** ****** ****** ****** ******
  21  ****** ****** ****** ****** ****** ****** ****** ****** ****** ******
      ****** ****** ****** ****** ****** ****** ****** ****** ****** ******
      ****** ****** ****** ****** ****** ****** ****** ****** ****** ******
  22  ****** ****** ****** ****** ****** ****** ****** ****** ****** ******
      ****** ****** ****** ****** ****** ****** ****** ****** ****** ******
      ****** ****** ****** ****** ****** ****** ****** ****** ****** ******
  23  ****** ****** ****** ****** ****** ****** ****** ****** ****** ******
      ****** ****** ****** ****** ****** ****** ****** ****** ****** ******
      ****** ****** ****** ****** ****** ****** ****** ****** ****** ******
  24  ****** ****** ****** ****** ****** ****** ****** ****** ****** ******
      ****** ****** ****** ****** ****** ****** ****** ****** ****** ******
      ****** ****** ****** ****** ****** ****** ****** ****** ****** ******
  25  ****** ****** ****** ****** ****** ****** ****** ****** ****** ******
      ****** ****** ****** ****** ****** ****** ****** ****** ****** ******
      ****** ****** ****** ****** ****** ****** ****** ****** ****** ******

 HEAD WILL BE SAVED ON UNIT   51 AT END OF TIME STEP    1, STRESS PERIOD    7
1
  VOLUMETRIC BUDGET FOR ENTIRE MODEL AT END OF TIME STEP    1, STRESS PERIOD   7
  ------------------------------------------------------------------------------

     CUMULATIVE VOLUMES      L**3       RATES FOR THIS TIME STEP      L**3/T
     ------------------                 ------------------------

           IN:                                      IN:
           ---                                      ---
             STORAGE =    20430304.3199               STORAGE =        2614.1039
       CONSTANT HEAD =   803353595.1857         CONSTANT HEAD =     1279803.7611
               WELLS =           0.0000                 WELLS =           0.0000
            RECHARGE =    15097200.0000              RECHARGE =           0.0000
      STREAM LEAKAGE =           0.0000        STREAM LEAKAGE =           0.0000

            TOTAL IN =   838881099.5056              TOTAL IN =     1282417.8650

          OUT:                                     OUT:
          ----                                     ----
             STORAGE =      279709.8234               STORAGE =           0.0000
       CONSTANT HEAD =           0.0000         CONSTANT HEAD =           0.0000
               WELLS =    88103989.2090                 WELLS =      142166.2961
            RECHARGE =           0.0000              RECHARGE =           0.0000
      STREAM LEAKAGE =   750497413.0338        STREAM LEAKAGE =     1140251.6152

           TOTAL OUT =   838881112.0661             TOTAL OUT =     1282417.9113

            IN - OUT =         -12.5605              IN - OUT =      -4.6282E-02

 PERCENT DISCREPANCY =          -0.00     PERCENT DISCREPANCY =          -0.00






         TIME SUMMARY AT END OF TIME STEP    1 IN STRESS PERIOD    7
                    SECONDS     MINUTES      HOURS       DAYS        YEARS
                    -----------------------------------------------------------
   TIME STEP LENGTH 7.86240E+06 1.31040E+05  2184.0      91.000     0.24914    
 STRESS PERIOD TIME 7.86240E+06 1.31040E+05  2184.0      91.000     0.24914    
         TOTAL TIME 5.52096E+07 9.20160E+05  15336.      639.00      1.7495    
1
1
                            STRESS PERIOD NO.    8, LENGTH =   91.00000    
                            -----------------------------------------------

                              NUMBER OF TIME STEPS =     1

                               MULTIPLIER FOR DELT =     1.500

                            INITIAL TIME STEP SIZE =   91.00000    

 WELL NO.  LAYER   ROW   COL   STRESS RATE         
 --------------------------------------------------
      1      1     22      9     -0.3717E+05
      2      1     24     11     -0.5000E+05
      3      1     24     23     -0.5500E+05

      3 WELLS

                 RECHARGE =  1.000000E-03

 REUSING STREAM SEGMENT DATA FROM LAST STRESS PERIOD
 
 SOLVING FOR HEAD 


     6 CALLS TO PCG ROUTINE FOR TIME STEP   1 IN STRESS PERIOD    8
    22 TOTAL ITERATIONS

 OUTPUT CONTROL FOR STRESS PERIOD    8   TIME STEP    1
    SAVE BUDGET
    SAVE HEAD FOR ALL LAYERS
    PRINT HEAD FOR ALL LAYERS
 UBDSV2 SAVING "STREAMFLOW OUT  " ON UNIT  50 AT TIME STEP  1, STRESS PERIOD   8



 STREAM LISTING     PERIOD      8   STEP        1

 LAYER ROW COL. STREAM  RCH.  FLOW INTO     FLOW TO   FLOW OUT OF   OVRLND.     DIRECT     STREAM       STREAM     STREAM     STREAM   STREAMBED  STREAMBED
                SEG.NO.  NO.  STRM. RCH.    AQUIFER    STRM. RCH.    RUNOFF     PRECIP       ET          HEAD       DEPTH      WIDTH   CONDCTNC.   GRADIENT

   1   13    1     1     1    1.0000E+05 -2.7682E+04   1.2768E+05  0.000E+00  0.000E+00  0.000E+00  4.84177E+01  1.564E-01  2.000E+01  2.000E+04 -1.384E+00
   1   13    2     1     2    1.2768E+05 -3.7438E+04   1.6512E+05  0.000E+00  0.000E+00  0.000E+00  4.79659E+01  1.818E-01  2.000E+01  2.000E+04 -1.872E+00
   1   14    3     1     3    1.6512E+05 -3.2721E+04   1.9784E+05  0.000E+00  0.000E+00  0.000E+00  4.75137E+01  2.068E-01  2.000E+01  2.000E+04 -1.636E+00
   1   15    4     1     4    1.9784E+05 -3.1699E+04   2.2954E+05  0.000E+00  0.000E+00  0.000E+00  4.70577E+01  2.281E-01  2.000E+01  2.000E+04 -1.585E+00
   1   16    5     1     5    2.2954E+05 -3.2686E+04   2.6223E+05  0.000E+00  0.000E+00  0.000E+00  4.66004E+01  2.482E-01  2.000E+01  2.000E+04 -1.634E+00
   1   16    6     1     6    2.6223E+05 -2.8448E+04   2.9067E+05  0.000E+00  0.000E+00  0.000E+00  4.61413E+01  2.663E-01  2.000E+01  2.000E+04 -1.422E+00
   1   16    7     1     7    2.9067E+05 -2.8134E+04   3.1881E+05  0.000E+00  0.000E+00  0.000E+00  4.56800E+01  2.823E-01  2.000E+01  2.000E+04 -1.407E+00
   1   16    8     1     8    3.1881E+05 -2.8178E+04   3.4699E+05  0.000E+00  0.000E+00  0.000E+00  4.52181E+01  2.977E-01  2.000E+01  2.000E+04 -1.409E+00
   1   16    9     1     9    3.4699E+05 -2.8176E+04   3.7516E+05  0.000E+00  0.000E+00  0.000E+00  4.47557E+01  3.125E-01  2.000E+01  2.000E+04 -1.409E+00
   1   16   10     1    10    3.7516E+05 -2.8203E+04   4.0337E+05  0.000E+00  0.000E+00  0.000E+00  4.42929E+01  3.269E-01  2.000E+01  2.000E+04 -1.410E+00
   1   16   11     1    11    4.0337E+05 -2.8848E+04   4.3221E+05  0.000E+00  0.000E+00  0.000E+00  4.38297E+01  3.411E-01  2.000E+01  2.000E+04 -1.442E+00
   1   16   12     1    12    4.3221E+05 -3.4229E+04   4.6644E+05  0.000E+00  0.000E+00  0.000E+00  4.33677E+01  3.563E-01  2.000E+01  2.000E+04 -1.711E+00
   1   15   13     1    13    4.6644E+05 -3.3746E+04   5.0019E+05  0.000E+00  0.000E+00  0.000E+00  4.29064E+01  3.723E-01  2.000E+01  2.000E+04 -1.687E+00
   1   14   14     1    14    5.0019E+05 -3.4715E+04   5.3490E+05  0.000E+00  0.000E+00  0.000E+00  4.24447E+01  3.879E-01  2.000E+01  2.000E+04 -1.736E+00
   1   13   15     1    15    5.3490E+05 -3.7174E+04   5.7208E+05  0.000E+00  0.000E+00  0.000E+00  4.19834E+01  4.038E-01  2.000E+01  2.000E+04 -1.859E+00
   1   12   16     1    16    5.7208E+05 -4.3410E+04   6.1549E+05  0.000E+00  0.000E+00  0.000E+00  4.15235E+01  4.212E-01  2.000E+01  2.000E+04 -2.170E+00
   1   12   17     1    17    6.1549E+05 -3.3930E+04   6.4942E+05  0.000E+00  0.000E+00  0.000E+00  4.10625E+01  4.375E-01  2.000E+01  2.000E+04 -1.697E+00
   1   12   18     1    18    6.4942E+05 -3.2321E+04   6.8174E+05  0.000E+00  0.000E+00  0.000E+00  4.05988E+01  4.511E-01  2.000E+01  2.000E+04 -1.616E+00
   1   12   19     1    19    6.8174E+05 -3.6438E+04   7.1818E+05  0.000E+00  0.000E+00  0.000E+00  4.01354E+01  4.649E-01  2.000E+01  2.000E+04 -1.822E+00
   1   13   20     1    20    7.1818E+05 -2.6595E+04   7.4477E+05  0.000E+00  0.000E+00  0.000E+00  3.96705E+01  4.774E-01  2.000E+01  2.000E+04 -1.330E+00
   1   14   21     1    21    7.4477E+05 -1.9360E+04   7.6413E+05  0.000E+00  0.000E+00  0.000E+00  3.92022E+01  4.863E-01  2.000E+01  2.000E+04 -9.680E-01
   1   14   22     1    22    7.6413E+05 -1.6753E+03   7.6581E+05  0.000E+00  0.000E+00  0.000E+00  3.87290E+01  4.904E-01  2.000E+01  2.000E+04 -8.377E-02
   1    9   30     2     1    5.0000E+04 -2.6620E+04   7.6620E+04  0.000E+00  0.000E+00  0.000E+00  4.02585E+01  1.335E-01  2.000E+01  2.000E+04 -1.331E+00
   1    9   29     2     2    7.6620E+04 -2.9088E+04   1.0571E+05  0.000E+00  0.000E+00  0.000E+00  4.00411E+01  1.661E-01  2.000E+01  2.000E+04 -1.454E+00
   1    9   28     2     3    1.0571E+05 -3.3382E+04   1.3909E+05  0.000E+00  0.000E+00  0.000E+00  3.98233E+01  1.983E-01  2.000E+01  2.000E+04 -1.669E+00
   1    9   27     2     4    1.3909E+05 -4.7531E+04   1.8662E+05  0.000E+00  0.000E+00  0.000E+00  3.96103E+01  2.353E-01  2.000E+01  2.000E+04 -2.377E+00
   1   10   26     2     5    1.8662E+05 -3.3505E+04   2.2013E+05  0.000E+00  0.000E+00  0.000E+00  3.93939E+01  2.689E-01  2.000E+01  2.000E+04 -1.675E+00
   1   11   25     2     6    2.2013E+05 -2.5151E+04   2.4528E+05  0.000E+00  0.000E+00  0.000E+00  3.91665E+01  2.915E-01  2.000E+01  2.000E+04 -1.258E+00
   1   12   24     2     7    2.4528E+05 -1.8560E+04   2.6384E+05  0.000E+00  0.000E+00  0.000E+00  3.89326E+01  3.076E-01  2.000E+01  2.000E+04 -9.280E-01
   1   13   23     2     8    2.6384E+05 -1.3156E+04   2.7699E+05  0.000E+00  0.000E+00  0.000E+00  3.86940E+01  3.190E-01  2.000E+01  2.000E+04 -6.578E-01
   1   14   22     2     9    2.7699E+05 -7.2320E+03   2.8422E+05  0.000E+00  0.000E+00  0.000E+00  3.84512E+01  3.262E-01  2.000E+01  2.000E+04 -3.616E-01
   1   14   22     3     1    1.0500E+06 -1.5260E+04   1.0653E+06  0.000E+00  0.000E+00  0.000E+00  3.80498E+01  4.942E-01  2.000E+01  2.000E+04 -7.630E-01
   1   15   23     3     2    1.0653E+06 -2.3171E+04   1.0885E+06  0.000E+00  0.000E+00  0.000E+00  3.71662E+01  4.996E-01  2.000E+01  2.000E+04 -1.159E+00
   1   15   24     3     3    1.0885E+06 -1.9361E+04   1.1078E+06  0.000E+00  0.000E+00  0.000E+00  3.62832E+01  5.055E-01  2.000E+01  2.000E+04 -9.681E-01
   1   15   25     3     4    1.1078E+06 -1.9043E+04   1.1269E+06  0.000E+00  0.000E+00  0.000E+00  3.53996E+01  5.108E-01  2.000E+01  2.000E+04 -9.521E-01
   1   15   26     3     5    1.1269E+06 -2.1881E+04   1.1487E+06  0.000E+00  0.000E+00  0.000E+00  3.45163E+01  5.163E-01  2.000E+01  2.000E+04 -1.094E+00
   1   16   27     3     6    1.1487E+06 -2.8874E+04   1.1776E+06  0.000E+00  0.000E+00  0.000E+00  3.36343E+01  5.232E-01  2.000E+01  2.000E+04 -1.444E+00
   1   17   28     3     7    1.1776E+06 -3.5848E+04   1.2135E+06  0.000E+00  0.000E+00  0.000E+00  3.27541E+01  5.319E-01  2.000E+01  2.000E+04 -1.792E+00
   1   18   29     3     8    1.2135E+06 -4.6778E+04   1.2602E+06  0.000E+00  0.000E+00  0.000E+00  3.18762E+01  5.429E-01  2.000E+01  2.000E+04 -2.339E+00
   1   18   30     3     9    1.2602E+06 -4.3406E+04   1.3037E+06  0.000E+00  0.000E+00  0.000E+00  3.09991E+01  5.547E-01  2.000E+01  2.000E+04 -2.170E+00



1
              HEAD IN LAYER   1 AT END OF TIME STEP   1 IN STRESS PERIOD    8
  ---------------------------------------------------------------------------

          1      2      3      4      5      6      7      8      9     10
         11     12     13     14     15     16     17     18     19     20
         21     22     23     24     25     26     27     28     29     30
 .........................................................................
   1  ****** ****** ****** ****** ****** ****** ****** ****** ****** ******
      ****** ****** ****** ****** ****** ****** ****** ****** ****** ******
      ****** ****** ****** ****** ****** ****** ****** ****** ****** ******
   2  ****** ****** ****** ****** ****** ****** ****** ****** ****** ******
      ****** ****** ****** ****** ****** ****** ****** ****** ****** ******
      ****** ****** ****** ****** ****** ****** ****** ****** ****** ******
   3  ****** ****** ****** ****** ****** ****** ****** ****** ****** ******
      ****** ****** ****** ****** ****** ****** ****** ****** ****** ******
      ****** ****** ****** ****** ****** ****** ****** ****** ****** ******
   4  ****** ****** ****** ****** ****** ****** ****** ****** ****** ******
      ****** ****** ****** ****** ****** ****** ****** ****** ****** ******
      ****** ****** ****** ****** ****** ****** ****** ****** ****** ******
   5  ****** ****** ****** ****** ****** ****** ****** ****** ****** ******
      ****** ****** ****** ****** ****** ****** ****** ****** ****** ******
      ****** ****** ****** ****** ****** ****** ****** ****** ****** ******
   6  ****** ****** ****** ****** ****** ****** ****** ****** ****** ******
      ****** ****** ****** ****** ****** ****** ****** ****** ****** ******
      ****** ****** ****** ****** ****** ****** ****** ****** ****** ******
   7  ****** ****** ****** ****** ****** ****** ****** ****** ****** ******
      ****** ****** ****** ****** ****** ****** ****** ****** ****** ******
      ****** ****** ****** ****** ****** ****** ****** ****** ****** ******
   8  ****** ****** ****** ****** ****** ****** ****** ****** ****** ******
      ****** ****** ****** ****** ****** ****** ****** ****** ****** ******
      ****** ****** ****** ****** ****** ****** ****** ****** ****** ******
   9  ****** ****** ****** ****** ****** ****** ****** ****** ****** ******
      ****** ****** ****** ****** ****** ****** ****** ****** ****** ******
      ****** ****** ****** ****** ****** ****** ****** ****** ****** ******
  10  ****** ****** ****** ****** ****** ****** ****** ****** ****** ******
      ****** ****** ****** ****** ****** ****** ****** ****** ****** ******
      ****** ****** ****** ****** ****** ****** ****** ****** ****** ******
  11  ****** ****** ****** ****** ****** ****** ****** ****** ****** ******
      ****** ****** ****** ****** ****** ****** ****** ****** ****** ******
      ****** ****** ****** ****** ****** ****** ****** ****** ****** ******
  12  ****** ****** ****** ****** ****** ****** ****** ****** ****** ******
      ****** ****** ****** ****** ****** ****** ****** ****** ****** ******
      ****** ****** ****** ****** ****** ****** ****** ****** ****** ******
  13  ****** ****** ****** ****** ****** ****** ****** ****** ****** ******
      ****** ****** ****** ****** ****** ****** ****** ****** ****** ******
      ****** ****** ****** ****** ****** ****** ****** ****** ****** ******
  14  ****** ****** ****** ****** ****** ****** ****** ****** ****** ******
      ****** ****** ****** ****** ****** ****** ****** ****** ****** ******
      ****** ****** ****** ****** ****** ****** ****** ****** ****** ******
  15  ****** ****** ****** ****** ****** ****** ****** ****** ****** ******
      ****** ****** ****** ****** ****** ****** ****** ****** ****** ******
      ****** ****** ****** ****** ****** ****** ****** ****** ****** ******
  16  ****** ****** ****** ****** ****** ****** ****** ****** ****** ******
      ****** ****** ****** ****** ****** ****** ****** ****** ****** ******
      ****** ****** ****** ****** ****** ****** ****** ****** ****** ******
  17  ****** ****** ****** ****** ****** ****** ****** ****** ****** ******
      ****** ****** ****** ****** ****** ****** ****** ****** ****** ******
      ****** ****** ****** ****** ****** ****** ****** ****** ****** ******
  18  ****** ****** ****** ****** ****** ****** ****** ****** ****** ******
      ****** ****** ****** ****** ****** ****** ****** ****** ****** ******
      ****** ****** ****** ****** ****** ****** ****** ****** ****** ******
  19  ****** ****** ****** ****** ****** ****** ****** ****** ****** ******
      ****** ****** ****** ****** ****** ****** ****** ****** ****** ******
      ****** ****** ****** ****** ****** ****** ****** ****** ****** ******
  20  ****** ****** ****** ****** ****** ****** ****** ****** ****** ******
      ****** ****** ****** ****** ****** ****** ****** ****** ****** ******
      ****** ****** ****** ****** ****** ****** ****** ****** ****** ******
  21  ****** ****** ****** ****** ****** ****** ****** ****** ****** ******
      ****** ****** ****** ****** ****** ****** ****** ****** ****** ******
      ****** ****** ****** ****** ****** ****** ****** ****** ****** ******
  22  ****** ****** ****** ****** ****** ****** ****** ****** ****** ******
      ****** ****** ****** ****** ****** ****** ****** ****** ****** ******
      ****** ****** ****** ****** ****** ****** ****** ****** ****** ******
  23  ****** ****** ****** ****** ****** ****** ****** ****** ****** ******
      ****** ****** ****** ****** ****** ****** ****** ****** ****** ******
      ****** ****** ****** ****** ****** ****** ****** ****** ****** ******
  24  ****** ****** ****** ****** ****** ****** ****** ****** ****** ******
      ****** ****** ****** ****** ****** ****** ****** ****** ****** ******
      ****** ****** ****** ****** ****** ****** ****** ****** ****** ******
  25  ****** ****** ****** ****** ****** ****** ****** ****** ****** ******
      ****** ****** ****** ****** ****** ****** ****** ****** ****** ******
      ****** ****** ****** ****** ****** ****** ****** ****** ****** ******

 HEAD WILL BE SAVED ON UNIT   51 AT END OF TIME STEP    1, STRESS PERIOD    8
1
  VOLUMETRIC BUDGET FOR ENTIRE MODEL AT END OF TIME STEP    1, STRESS PERIOD   8
  ------------------------------------------------------------------------------

     CUMULATIVE VOLUMES      L**3       RATES FOR THIS TIME STEP      L**3/T
     ------------------                 ------------------------

           IN:                                      IN:
           ---                                      ---
             STORAGE =    20430304.3199               STORAGE =           0.0000
       CONSTANT HEAD =   918867671.7757         CONSTANT HEAD =     1269385.4570
               WELLS =           0.0000                 WELLS =           0.0000
            RECHARGE =    17608800.0000              RECHARGE =       27600.0000
      STREAM LEAKAGE =           0.0000        STREAM LEAKAGE =           0.0000

            TOTAL IN =   956906776.0956              TOTAL IN =     1296985.4570

          OUT:                                     OUT:
          ----                                     ----
             STORAGE =      385694.7959               STORAGE =        1164.6700
       CONSTANT HEAD =           0.0000         CONSTANT HEAD =           0.0000
               WELLS =   101041122.1543                 WELLS =      142166.2961
            RECHARGE =           0.0000              RECHARGE =           0.0000
      STREAM LEAKAGE =   855479969.8273        STREAM LEAKAGE =     1153654.4703

           TOTAL OUT =   956906786.7774             TOTAL OUT =     1296985.4364

            IN - OUT =         -10.6819              IN - OUT =       2.0644E-02

 PERCENT DISCREPANCY =          -0.00     PERCENT DISCREPANCY =           0.00






         TIME SUMMARY AT END OF TIME STEP    1 IN STRESS PERIOD    8
                    SECONDS     MINUTES      HOURS       DAYS        YEARS
                    -----------------------------------------------------------
   TIME STEP LENGTH 7.86240E+06 1.31040E+05  2184.0      91.000     0.24914    
 STRESS PERIOD TIME 7.86240E+06 1.31040E+05  2184.0      91.000     0.24914    
         TOTAL TIME 6.30720E+07 1.05120E+06  17520.      730.00      1.9986    
1
1
                            STRESS PERIOD NO.    9, LENGTH =   92.00000    
                            -----------------------------------------------

                              NUMBER OF TIME STEPS =     1

                               MULTIPLIER FOR DELT =     1.500

                            INITIAL TIME STEP SIZE =   92.00000    

 WELL NO.  LAYER   ROW   COL   STRESS RATE         
 --------------------------------------------------
      1      1     22      9     -0.3717E+05
      2      1     24     11     -0.5000E+05
      3      1     24     23     -0.5500E+05

      3 WELLS

                 RECHARGE =  5.000000E-04

 REUSING STREAM SEGMENT DATA FROM LAST STRESS PERIOD
 
 SOLVING FOR HEAD 


     5 CALLS TO PCG ROUTINE FOR TIME STEP   1 IN STRESS PERIOD    9
    20 TOTAL ITERATIONS

 OUTPUT CONTROL FOR STRESS PERIOD    9   TIME STEP    1
    SAVE BUDGET
    SAVE HEAD FOR ALL LAYERS
    PRINT HEAD FOR ALL LAYERS
 UBDSV2 SAVING "STREAMFLOW OUT  " ON UNIT  50 AT TIME STEP  1, STRESS PERIOD   9



 STREAM LISTING     PERIOD      9   STEP        1

 LAYER ROW COL. STREAM  RCH.  FLOW INTO     FLOW TO   FLOW OUT OF   OVRLND.     DIRECT     STREAM       STREAM     STREAM     STREAM   STREAMBED  STREAMBED
                SEG.NO.  NO.  STRM. RCH.    AQUIFER    STRM. RCH.    RUNOFF     PRECIP       ET          HEAD       DEPTH      WIDTH   CONDCTNC.   GRADIENT

   1   13    1     1     1    1.0000E+05 -2.7483E+04   1.2748E+05  0.000E+00  0.000E+00  0.000E+00  4.84176E+01  1.563E-01  2.000E+01  2.000E+04 -1.374E+00
   1   13    2     1     2    1.2748E+05 -3.7201E+04   1.6468E+05  0.000E+00  0.000E+00  0.000E+00  4.79657E+01  1.816E-01  2.000E+01  2.000E+04 -1.860E+00
   1   14    3     1     3    1.6468E+05 -3.2487E+04   1.9717E+05  0.000E+00  0.000E+00  0.000E+00  4.75133E+01  2.065E-01  2.000E+01  2.000E+04 -1.624E+00
   1   15    4     1     4    1.9717E+05 -3.1474E+04   2.2865E+05  0.000E+00  0.000E+00  0.000E+00  4.70572E+01  2.276E-01  2.000E+01  2.000E+04 -1.574E+00
   1   16    5     1     5    2.2865E+05 -3.2482E+04   2.6113E+05  0.000E+00  0.000E+00  0.000E+00  4.65998E+01  2.476E-01  2.000E+01  2.000E+04 -1.624E+00
   1   16    6     1     6    2.6113E+05 -2.8271E+04   2.8940E+05  0.000E+00  0.000E+00  0.000E+00  4.61406E+01  2.656E-01  2.000E+01  2.000E+04 -1.414E+00
   1   16    7     1     7    2.8940E+05 -2.7959E+04   3.1736E+05  0.000E+00  0.000E+00  0.000E+00  4.56793E+01  2.815E-01  2.000E+01  2.000E+04 -1.398E+00
   1   16    8     1     8    3.1736E+05 -2.8002E+04   3.4536E+05  0.000E+00  0.000E+00  0.000E+00  4.52173E+01  2.968E-01  2.000E+01  2.000E+04 -1.400E+00
   1   16    9     1     9    3.4536E+05 -2.8000E+04   3.7336E+05  0.000E+00  0.000E+00  0.000E+00  4.47548E+01  3.116E-01  2.000E+01  2.000E+04 -1.400E+00
   1   16   10     1    10    3.7336E+05 -2.8028E+04   4.0139E+05  0.000E+00  0.000E+00  0.000E+00  4.42919E+01  3.260E-01  2.000E+01  2.000E+04 -1.401E+00
   1   16   11     1    11    4.0139E+05 -2.8670E+04   4.3006E+05  0.000E+00  0.000E+00  0.000E+00  4.38287E+01  3.401E-01  2.000E+01  2.000E+04 -1.434E+00
   1   16   12     1    12    4.3006E+05 -3.4021E+04   4.6408E+05  0.000E+00  0.000E+00  0.000E+00  4.33666E+01  3.553E-01  2.000E+01  2.000E+04 -1.701E+00
   1   15   13     1    13    4.6408E+05 -3.3518E+04   4.9760E+05  0.000E+00  0.000E+00  0.000E+00  4.29052E+01  3.711E-01  2.000E+01  2.000E+04 -1.676E+00
   1   14   14     1    14    4.9760E+05 -3.4480E+04   5.3208E+05  0.000E+00  0.000E+00  0.000E+00  4.24435E+01  3.867E-01  2.000E+01  2.000E+04 -1.724E+00
   1   13   15     1    15    5.3208E+05 -3.6941E+04   5.6902E+05  0.000E+00  0.000E+00  0.000E+00  4.19821E+01  4.025E-01  2.000E+01  2.000E+04 -1.847E+00
   1   12   16     1    16    5.6902E+05 -4.3185E+04   6.1220E+05  0.000E+00  0.000E+00  0.000E+00  4.15221E+01  4.199E-01  2.000E+01  2.000E+04 -2.159E+00
   1   12   17     1    17    6.1220E+05 -3.3749E+04   6.4595E+05  0.000E+00  0.000E+00  0.000E+00  4.10611E+01  4.361E-01  2.000E+01  2.000E+04 -1.687E+00
   1   12   18     1    18    6.4595E+05 -3.2147E+04   6.7810E+05  0.000E+00  0.000E+00  0.000E+00  4.05974E+01  4.496E-01  2.000E+01  2.000E+04 -1.607E+00
   1   12   19     1    19    6.7810E+05 -3.6248E+04   7.1435E+05  0.000E+00  0.000E+00  0.000E+00  4.01339E+01  4.634E-01  2.000E+01  2.000E+04 -1.812E+00
   1   13   20     1    20    7.1435E+05 -2.6415E+04   7.4076E+05  0.000E+00  0.000E+00  0.000E+00  3.96690E+01  4.758E-01  2.000E+01  2.000E+04 -1.321E+00
   1   14   21     1    21    7.4076E+05 -1.9205E+04   7.5997E+05  0.000E+00  0.000E+00  0.000E+00  3.92006E+01  4.847E-01  2.000E+01  2.000E+04 -9.603E-01
   1   14   22     1    22    7.5997E+05 -1.6202E+03   7.6159E+05  0.000E+00  0.000E+00  0.000E+00  3.87274E+01  4.887E-01  2.000E+01  2.000E+04 -8.101E-02
   1    9   30     2     1    5.0000E+04 -2.6479E+04   7.6479E+04  0.000E+00  0.000E+00  0.000E+00  4.02584E+01  1.334E-01  2.000E+01  2.000E+04 -1.324E+00
   1    9   29     2     2    7.6479E+04 -2.8947E+04   1.0543E+05  0.000E+00  0.000E+00  0.000E+00  4.00409E+01  1.659E-01  2.000E+01  2.000E+04 -1.447E+00
   1    9   28     2     3    1.0543E+05 -3.3237E+04   1.3866E+05  0.000E+00  0.000E+00  0.000E+00  3.98229E+01  1.979E-01  2.000E+01  2.000E+04 -1.662E+00
   1    9   27     2     4    1.3866E+05 -4.7353E+04   1.8602E+05  0.000E+00  0.000E+00  0.000E+00  3.96099E+01  2.349E-01  2.000E+01  2.000E+04 -2.368E+00
   1   10   26     2     5    1.8602E+05 -3.3320E+04   2.1934E+05  0.000E+00  0.000E+00  0.000E+00  3.93933E+01  2.683E-01  2.000E+01  2.000E+04 -1.666E+00
   1   11   25     2     6    2.1934E+05 -2.4973E+04   2.4431E+05  0.000E+00  0.000E+00  0.000E+00  3.91658E+01  2.908E-01  2.000E+01  2.000E+04 -1.249E+00
   1   12   24     2     7    2.4431E+05 -1.8401E+04   2.6271E+05  0.000E+00  0.000E+00  0.000E+00  3.89319E+01  3.069E-01  2.000E+01  2.000E+04 -9.200E-01
   1   13   23     2     8    2.6271E+05 -1.3026E+04   2.7574E+05  0.000E+00  0.000E+00  0.000E+00  3.86932E+01  3.182E-01  2.000E+01  2.000E+04 -6.513E-01
   1   14   22     2     9    2.7574E+05 -7.1626E+03   2.8290E+05  0.000E+00  0.000E+00  0.000E+00  3.84503E+01  3.253E-01  2.000E+01  2.000E+04 -3.581E-01
   1   14   22     3     1    1.0445E+06 -1.5204E+04   1.0597E+06  0.000E+00  0.000E+00  0.000E+00  3.80482E+01  4.926E-01  2.000E+01  2.000E+04 -7.602E-01
   1   15   23     3     2    1.0597E+06 -2.3026E+04   1.0827E+06  0.000E+00  0.000E+00  0.000E+00  3.71647E+01  4.980E-01  2.000E+01  2.000E+04 -1.151E+00
   1   15   24     3     3    1.0827E+06 -1.9241E+04   1.1020E+06  0.000E+00  0.000E+00  0.000E+00  3.62816E+01  5.039E-01  2.000E+01  2.000E+04 -9.620E-01
   1   15   25     3     4    1.1020E+06 -1.8922E+04   1.1209E+06  0.000E+00  0.000E+00  0.000E+00  3.53980E+01  5.091E-01  2.000E+01  2.000E+04 -9.461E-01
   1   15   26     3     5    1.1209E+06 -2.1741E+04   1.1426E+06  0.000E+00  0.000E+00  0.000E+00  3.45147E+01  5.147E-01  2.000E+01  2.000E+04 -1.087E+00
   1   16   27     3     6    1.1426E+06 -2.8705E+04   1.1713E+06  0.000E+00  0.000E+00  0.000E+00  3.36327E+01  5.215E-01  2.000E+01  2.000E+04 -1.435E+00
   1   17   28     3     7    1.1713E+06 -3.5675E+04   1.2070E+06  0.000E+00  0.000E+00  0.000E+00  3.27524E+01  5.302E-01  2.000E+01  2.000E+04 -1.784E+00
   1   18   29     3     8    1.2070E+06 -4.6616E+04   1.2536E+06  0.000E+00  0.000E+00  0.000E+00  3.18745E+01  5.411E-01  2.000E+01  2.000E+04 -2.331E+00
   1   18   30     3     9    1.2536E+06 -4.3270E+04   1.2969E+06  0.000E+00  0.000E+00  0.000E+00  3.09974E+01  5.529E-01  2.000E+01  2.000E+04 -2.164E+00



1
              HEAD IN LAYER   1 AT END OF TIME STEP   1 IN STRESS PERIOD    9
  ---------------------------------------------------------------------------

          1      2      3      4      5      6      7      8      9     10
         11     12     13     14     15     16     17     18     19     20
         21     22     23     24     25     26     27     28     29     30
 .........................................................................
   1  ****** ****** ****** ****** ****** ****** ****** ****** ****** ******
      ****** ****** ****** ****** ****** ****** ****** ****** ****** ******
      ****** ****** ****** ****** ****** ****** ****** ****** ****** ******
   2  ****** ****** ****** ****** ****** ****** ****** ****** ****** ******
      ****** ****** ****** ****** ****** ****** ****** ****** ****** ******
      ****** ****** ****** ****** ****** ****** ****** ****** ****** ******
   3  ****** ****** ****** ****** ****** ****** ****** ****** ****** ******
      ****** ****** ****** ****** ****** ****** ****** ****** ****** ******
      ****** ****** ****** ****** ****** ****** ****** ****** ****** ******
   4  ****** ****** ****** ****** ****** ****** ****** ****** ****** ******
      ****** ****** ****** ****** ****** ****** ****** ****** ****** ******
      ****** ****** ****** ****** ****** ****** ****** ****** ****** ******
   5  ****** ****** ****** ****** ****** ****** ****** ****** ****** ******
      ****** ****** ****** ****** ****** ****** ****** ****** ****** ******
      ****** ****** ****** ****** ****** ****** ****** ****** ****** ******
   6  ****** ****** ****** ****** ****** ****** ****** ****** ****** ******
      ****** ****** ****** ****** ****** ****** ****** ****** ****** ******
      ****** ****** ****** ****** ****** ****** ****** ****** ****** ******
   7  ****** ****** ****** ****** ****** ****** ****** ****** ****** ******
      ****** ****** ****** ****** ****** ****** ****** ****** ****** ******
      ****** ****** ****** ****** ****** ****** ****** ****** ****** ******
   8  ****** ****** ****** ****** ****** ****** ****** ****** ****** ******
      ****** ****** ****** ****** ****** ****** ****** ****** ****** ******
      ****** ****** ****** ****** ****** ****** ****** ****** ****** ******
   9  ****** ****** ****** ****** ****** ****** ****** ****** ****** ******
      ****** ****** ****** ****** ****** ****** ****** ****** ****** ******
      ****** ****** ****** ****** ****** ****** ****** ****** ****** ******
  10  ****** ****** ****** ****** ****** ****** ****** ****** ****** ******
      ****** ****** ****** ****** ****** ****** ****** ****** ****** ******
      ****** ****** ****** ****** ****** ****** ****** ****** ****** ******
  11  ****** ****** ****** ****** ****** ****** ****** ****** ****** ******
      ****** ****** ****** ****** ****** ****** ****** ****** ****** ******
      ****** ****** ****** ****** ****** ****** ****** ****** ****** ******
  12  ****** ****** ****** ****** ****** ****** ****** ****** ****** ******
      ****** ****** ****** ****** ****** ****** ****** ****** ****** ******
      ****** ****** ****** ****** ****** ****** ****** ****** ****** ******
  13  ****** ****** ****** ****** ****** ****** ****** ****** ****** ******
      ****** ****** ****** ****** ****** ****** ****** ****** ****** ******
      ****** ****** ****** ****** ****** ****** ****** ****** ****** ******
  14  ****** ****** ****** ****** ****** ****** ****** ****** ****** ******
      ****** ****** ****** ****** ****** ****** ****** ****** ****** ******
      ****** ****** ****** ****** ****** ****** ****** ****** ****** ******
  15  ****** ****** ****** ****** ****** ****** ****** ****** ****** ******
      ****** ****** ****** ****** ****** ****** ****** ****** ****** ******
      ****** ****** ****** ****** ****** ****** ****** ****** ****** ******
  16  ****** ****** ****** ****** ****** ****** ****** ****** ****** ******
      ****** ****** ****** ****** ****** ****** ****** ****** ****** ******
      ****** ****** ****** ****** ****** ****** ****** ****** ****** ******
  17  ****** ****** ****** ****** ****** ****** ****** ****** ****** ******
      ****** ****** ****** ****** ****** ****** ****** ****** ****** ******
      ****** ****** ****** ****** ****** ****** ****** ****** ****** ******
  18  ****** ****** ****** ****** ****** ****** ****** ****** ****** ******
      ****** ****** ****** ****** ****** ****** ****** ****** ****** ******
      ****** ****** ****** ****** ****** ****** ****** ****** ****** ******
  19  ****** ****** ****** ****** ****** ****** ****** ****** ****** ******
      ****** ****** ****** ****** ****** ****** ****** ****** ****** ******
      ****** ****** ****** ****** ****** ****** ****** ****** ****** ******
  20  ****** ****** ****** ****** ****** ****** ****** ****** ****** ******
      ****** ****** ****** ****** ****** ****** ****** ****** ****** ******
      ****** ****** ****** ****** ****** ****** ****** ****** ****** ******
  21  ****** ****** ****** ****** ****** ****** ****** ****** ****** ******
      ****** ****** ****** ****** ****** ****** ****** ****** ****** ******
      ****** ****** ****** ****** ****** ****** ****** ****** ****** ******
  22  ****** ****** ****** ****** ****** ****** ****** ****** ****** ******
      ****** ****** ****** ****** ****** ****** ****** ****** ****** ******
      ****** ****** ****** ****** ****** ****** ****** ****** ****** ******
  23  ****** ****** ****** ****** ****** ****** ****** ****** ****** ******
      ****** ****** ****** ****** ****** ****** ****** ****** ****** ******
      ****** ****** ****** ****** ****** ****** ****** ****** ****** ******
  24  ****** ****** ****** ****** ****** ****** ****** ****** ****** ******
      ****** ****** ****** ****** ****** ****** ****** ****** ****** ******
      ****** ****** ****** ****** ****** ****** ****** ****** ****** ******
  25  ****** ****** ****** ****** ****** ****** ****** ****** ****** ******
      ****** ****** ****** ****** ****** ****** ****** ****** ****** ******
      ****** ****** ****** ****** ****** ****** ****** ****** ****** ******

 HEAD WILL BE SAVED ON UNIT   51 AT END OF TIME STEP    1, STRESS PERIOD    9
1
  VOLUMETRIC BUDGET FOR ENTIRE MODEL AT END OF TIME STEP    1, STRESS PERIOD   9
  ------------------------------------------------------------------------------

     CUMULATIVE VOLUMES      L**3       RATES FOR THIS TIME STEP      L**3/T
     ------------------                 ------------------------

           IN:                                      IN:
           ---                                      ---
             STORAGE =    20484035.3045               STORAGE =         584.0324
       CONSTANT HEAD =  1036137120.9321         CONSTANT HEAD =     1274667.9256
               WELLS =           0.0000                 WELLS =           0.0000
            RECHARGE =    18878400.0000              RECHARGE =       13800.0000
      STREAM LEAKAGE =           0.0000        STREAM LEAKAGE =           0.0000

            TOTAL IN =  1075499556.2366              TOTAL IN =     1289051.9581

          OUT:                                     OUT:
          ----                                     ----
             STORAGE =      385694.7959               STORAGE =           0.0000
       CONSTANT HEAD =           0.0000         CONSTANT HEAD =           0.0000
               WELLS =   114120421.3956                 WELLS =      142166.2961
            RECHARGE =           0.0000              RECHARGE =           0.0000
      STREAM LEAKAGE =   960993452.5504        STREAM LEAKAGE =     1146885.6818

           TOTAL OUT =  1075499568.7419             TOTAL OUT =     1289051.9779

            IN - OUT =         -12.5054              IN - OUT =      -1.9821E-02

 PERCENT DISCREPANCY =          -0.00     PERCENT DISCREPANCY =          -0.00






         TIME SUMMARY AT END OF TIME STEP    1 IN STRESS PERIOD    9
                    SECONDS     MINUTES      HOURS       DAYS        YEARS
                    -----------------------------------------------------------
   TIME STEP LENGTH 7.94880E+06 1.32480E+05  2208.0      92.000     0.25188    
 STRESS PERIOD TIME 7.94880E+06 1.32480E+05  2208.0      92.000     0.25188    
         TOTAL TIME 7.10208E+07 1.18368E+06  19728.      822.00      2.2505    
1
1
                            STRESS PERIOD NO.   10, LENGTH =   91.00000    
                            -----------------------------------------------

                              NUMBER OF TIME STEPS =     1

                               MULTIPLIER FOR DELT =     1.500

                            INITIAL TIME STEP SIZE =   91.00000    

 WELL NO.  LAYER   ROW   COL   STRESS RATE         
 --------------------------------------------------
      1      1     22      9     -0.3717E+05
      2      1     24     11     -0.5000E+05
      3      1     24     23     -0.5500E+05

      3 WELLS

                 RECHARGE =  2.000000E-03

 REUSING STREAM SEGMENT DATA FROM LAST STRESS PERIOD
 
 SOLVING FOR HEAD 


     6 CALLS TO PCG ROUTINE FOR TIME STEP   1 IN STRESS PERIOD   10
    22 TOTAL ITERATIONS

 OUTPUT CONTROL FOR STRESS PERIOD   10   TIME STEP    1
    SAVE BUDGET
    SAVE HEAD FOR ALL LAYERS
    PRINT HEAD FOR ALL LAYERS
 UBDSV2 SAVING "STREAMFLOW OUT  " ON UNIT  50 AT TIME STEP  1, STRESS PERIOD  10



 STREAM LISTING     PERIOD     10   STEP        1

 LAYER ROW COL. STREAM  RCH.  FLOW INTO     FLOW TO   FLOW OUT OF   OVRLND.     DIRECT     STREAM       STREAM     STREAM     STREAM   STREAMBED  STREAMBED
                SEG.NO.  NO.  STRM. RCH.    AQUIFER    STRM. RCH.    RUNOFF     PRECIP       ET          HEAD       DEPTH      WIDTH   CONDCTNC.   GRADIENT

   1   13    1     1     1    1.0000E+05 -2.8135E+04   1.2814E+05  0.000E+00  0.000E+00  0.000E+00  4.84179E+01  1.565E-01  2.000E+01  2.000E+04 -1.407E+00
   1   13    2     1     2    1.2814E+05 -3.7981E+04   1.6612E+05  0.000E+00  0.000E+00  0.000E+00  4.79665E+01  1.824E-01  2.000E+01  2.000E+04 -1.899E+00
   1   14    3     1     3    1.6612E+05 -3.3250E+04   1.9937E+05  0.000E+00  0.000E+00  0.000E+00  4.75145E+01  2.077E-01  2.000E+01  2.000E+04 -1.662E+00
   1   15    4     1     4    1.9937E+05 -3.2206E+04   2.3157E+05  0.000E+00  0.000E+00  0.000E+00  4.70588E+01  2.293E-01  2.000E+01  2.000E+04 -1.610E+00
   1   16    5     1     5    2.3157E+05 -3.3143E+04   2.6472E+05  0.000E+00  0.000E+00  0.000E+00  4.66018E+01  2.495E-01  2.000E+01  2.000E+04 -1.657E+00
   1   16    6     1     6    2.6472E+05 -2.8846E+04   2.9356E+05  0.000E+00  0.000E+00  0.000E+00  4.61428E+01  2.678E-01  2.000E+01  2.000E+04 -1.442E+00
   1   16    7     1     7    2.9356E+05 -2.8528E+04   3.2209E+05  0.000E+00  0.000E+00  0.000E+00  4.56817E+01  2.840E-01  2.000E+01  2.000E+04 -1.426E+00
   1   16    8     1     8    3.2209E+05 -2.8573E+04   3.5066E+05  0.000E+00  0.000E+00  0.000E+00  4.52200E+01  2.995E-01  2.000E+01  2.000E+04 -1.429E+00
   1   16    9     1     9    3.5066E+05 -2.8571E+04   3.7923E+05  0.000E+00  0.000E+00  0.000E+00  4.47577E+01  3.145E-01  2.000E+01  2.000E+04 -1.429E+00
   1   16   10     1    10    3.7923E+05 -2.8597E+04   4.0783E+05  0.000E+00  0.000E+00  0.000E+00  4.42950E+01  3.291E-01  2.000E+01  2.000E+04 -1.430E+00
   1   16   11     1    11    4.0783E+05 -2.9247E+04   4.3708E+05  0.000E+00  0.000E+00  0.000E+00  4.38320E+01  3.434E-01  2.000E+01  2.000E+04 -1.462E+00
   1   16   12     1    12    4.3708E+05 -3.4693E+04   4.7177E+05  0.000E+00  0.000E+00  0.000E+00  4.33701E+01  3.588E-01  2.000E+01  2.000E+04 -1.735E+00
   1   15   13     1    13    4.7177E+05 -3.4260E+04   5.0603E+05  0.000E+00  0.000E+00  0.000E+00  4.29089E+01  3.748E-01  2.000E+01  2.000E+04 -1.713E+00
   1   14   14     1    14    5.0603E+05 -3.5246E+04   5.4127E+05  0.000E+00  0.000E+00  0.000E+00  4.24474E+01  3.906E-01  2.000E+01  2.000E+04 -1.762E+00
   1   13   15     1    15    5.4127E+05 -3.7702E+04   5.7898E+05  0.000E+00  0.000E+00  0.000E+00  4.19863E+01  4.067E-01  2.000E+01  2.000E+04 -1.885E+00
   1   12   16     1    16    5.7898E+05 -4.3920E+04   6.2290E+05  0.000E+00  0.000E+00  0.000E+00  4.15265E+01  4.242E-01  2.000E+01  2.000E+04 -2.196E+00
   1   12   17     1    17    6.2290E+05 -3.4340E+04   6.5724E+05  0.000E+00  0.000E+00  0.000E+00  4.10656E+01  4.406E-01  2.000E+01  2.000E+04 -1.717E+00
   1   12   18     1    18    6.5724E+05 -3.2712E+04   6.8995E+05  0.000E+00  0.000E+00  0.000E+00  4.06020E+01  4.543E-01  2.000E+01  2.000E+04 -1.636E+00
   1   12   19     1    19    6.8995E+05 -3.6864E+04   7.2681E+05  0.000E+00  0.000E+00  0.000E+00  4.01387E+01  4.683E-01  2.000E+01  2.000E+04 -1.843E+00
   1   13   20     1    20    7.2681E+05 -2.6992E+04   7.5380E+05  0.000E+00  0.000E+00  0.000E+00  3.96740E+01  4.808E-01  2.000E+01  2.000E+04 -1.350E+00
   1   14   21     1    21    7.5380E+05 -1.9702E+04   7.7351E+05  0.000E+00  0.000E+00  0.000E+00  3.92058E+01  4.898E-01  2.000E+01  2.000E+04 -9.851E-01
   1   14   22     1    22    7.7351E+05 -1.7944E+03   7.7530E+05  0.000E+00  0.000E+00  0.000E+00  3.87326E+01  4.940E-01  2.000E+01  2.000E+04 -8.972E-02
   1    9   30     2     1    5.0000E+04 -2.6924E+04   7.6924E+04  0.000E+00  0.000E+00  0.000E+00  4.02587E+01  1.337E-01  2.000E+01  2.000E+04 -1.346E+00
   1    9   29     2     2    7.6924E+04 -2.9393E+04   1.0632E+05  0.000E+00  0.000E+00  0.000E+00  4.00416E+01  1.666E-01  2.000E+01  2.000E+04 -1.470E+00
   1    9   28     2     3    1.0632E+05 -3.3697E+04   1.4001E+05  0.000E+00  0.000E+00  0.000E+00  3.98240E+01  1.990E-01  2.000E+01  2.000E+04 -1.685E+00
   1    9   27     2     4    1.4001E+05 -4.7918E+04   1.8793E+05  0.000E+00  0.000E+00  0.000E+00  3.96113E+01  2.363E-01  2.000E+01  2.000E+04 -2.396E+00
   1   10   26     2     5    1.8793E+05 -3.3906E+04   2.2184E+05  0.000E+00  0.000E+00  0.000E+00  3.93951E+01  2.701E-01  2.000E+01  2.000E+04 -1.695E+00
   1   11   25     2     6    2.2184E+05 -2.5538E+04   2.4738E+05  0.000E+00  0.000E+00  0.000E+00  3.91679E+01  2.929E-01  2.000E+01  2.000E+04 -1.277E+00
   1   12   24     2     7    2.4738E+05 -1.8906E+04   2.6628E+05  0.000E+00  0.000E+00  0.000E+00  3.89343E+01  3.093E-01  2.000E+01  2.000E+04 -9.453E-01
   1   13   23     2     8    2.6628E+05 -1.3437E+04   2.7972E+05  0.000E+00  0.000E+00  0.000E+00  3.86958E+01  3.208E-01  2.000E+01  2.000E+04 -6.718E-01
   1   14   22     2     9    2.7972E+05 -7.3844E+03   2.8710E+05  0.000E+00  0.000E+00  0.000E+00  3.84531E+01  3.281E-01  2.000E+01  2.000E+04 -3.692E-01
   1   14   22     3     1    1.0624E+06 -1.5382E+04   1.0778E+06  0.000E+00  0.000E+00  0.000E+00  3.80532E+01  4.977E-01  2.000E+01  2.000E+04 -7.691E-01
   1   15   23     3     2    1.0778E+06 -2.3487E+04   1.1013E+06  0.000E+00  0.000E+00  0.000E+00  3.71698E+01  5.031E-01  2.000E+01  2.000E+04 -1.174E+00
   1   15   24     3     3    1.1013E+06 -1.9622E+04   1.1209E+06  0.000E+00  0.000E+00  0.000E+00  3.62868E+01  5.090E-01  2.000E+01  2.000E+04 -9.811E-01
   1   15   25     3     4    1.1209E+06 -1.9301E+04   1.1402E+06  0.000E+00  0.000E+00  0.000E+00  3.54033E+01  5.144E-01  2.000E+01  2.000E+04 -9.651E-01
   1   15   26     3     5    1.1402E+06 -2.2181E+04   1.1624E+06  0.000E+00  0.000E+00  0.000E+00  3.45200E+01  5.200E-01  2.000E+01  2.000E+04 -1.109E+00
   1   16   27     3     6    1.1624E+06 -2.9237E+04   1.1916E+06  0.000E+00  0.000E+00  0.000E+00  3.36381E+01  5.269E-01  2.000E+01  2.000E+04 -1.462E+00
   1   17   28     3     7    1.1916E+06 -3.6221E+04   1.2278E+06  0.000E+00  0.000E+00  0.000E+00  3.27579E+01  5.357E-01  2.000E+01  2.000E+04 -1.811E+00
   1   18   29     3     8    1.2278E+06 -4.7129E+04   1.2750E+06  0.000E+00  0.000E+00  0.000E+00  3.18800E+01  5.467E-01  2.000E+01  2.000E+04 -2.356E+00
   1   18   30     3     9    1.2750E+06 -4.3697E+04   1.3187E+06  0.000E+00  0.000E+00  0.000E+00  3.10029E+01  5.585E-01  2.000E+01  2.000E+04 -2.185E+00



1
              HEAD IN LAYER   1 AT END OF TIME STEP   1 IN STRESS PERIOD   10
  ---------------------------------------------------------------------------

          1      2      3      4      5      6      7      8      9     10
         11     12     13     14     15     16     17     18     19     20
         21     22     23     24     25     26     27     28     29     30
 .........................................................................
   1  ****** ****** ****** ****** ****** ****** ****** ****** ****** ******
      ****** ****** ****** ****** ****** ****** ****** ****** ****** ******
      ****** ****** ****** ****** ****** ****** ****** ****** ****** ******
   2  ****** ****** ****** ****** ****** ****** ****** ****** ****** ******
      ****** ****** ****** ****** ****** ****** ****** ****** ****** ******
      ****** ****** ****** ****** ****** ****** ****** ****** ****** ******
   3  ****** ****** ****** ****** ****** ****** ****** ****** ****** ******
      ****** ****** ****** ****** ****** ****** ****** ****** ****** ******
      ****** ****** ****** ****** ****** ****** ****** ****** ****** ******
   4  ****** ****** ****** ****** ****** ****** ****** ****** ****** ******
      ****** ****** ****** ****** ****** ****** ****** ****** ****** ******
      ****** ****** ****** ****** ****** ****** ****** ****** ****** ******
   5  ****** ****** ****** ****** ****** ****** ****** ****** ****** ******
      ****** ****** ****** ****** ****** ****** ****** ****** ****** ******
      ****** ****** ****** ****** ****** ****** ****** ****** ****** ******
   6  ****** ****** ****** ****** ****** ****** ****** ****** ****** ******
      ****** ****** ****** ****** ****** ****** ****** ****** ****** ******
      ****** ****** ****** ****** ****** ****** ****** ****** ****** ******
   7  ****** ****** ****** ****** ****** ****** ****** ****** ****** ******
      ****** ****** ****** ****** ****** ****** ****** ****** ****** ******
      ****** ****** ****** ****** ****** ****** ****** ****** ****** ******
   8  ****** ****** ****** ****** ****** ****** ****** ****** ****** ******
      ****** ****** ****** ****** ****** ****** ****** ****** ****** ******
      ****** ****** ****** ****** ****** ****** ****** ****** ****** ******
   9  ****** ****** ****** ****** ****** ****** ****** ****** ****** ******
      ****** ****** ****** ****** ****** ****** ****** ****** ****** ******
      ****** ****** ****** ****** ****** ****** ****** ****** ****** ******
  10  ****** ****** ****** ****** ****** ****** ****** ****** ****** ******
      ****** ****** ****** ****** ****** ****** ****** ****** ****** ******
      ****** ****** ****** ****** ****** ****** ****** ****** ****** ******
  11  ****** ****** ****** ****** ****** ****** ****** ****** ****** ******
      ****** ****** ****** ****** ****** ****** ****** ****** ****** ******
      ****** ****** ****** ****** ****** ****** ****** ****** ****** ******
  12  ****** ****** ****** ****** ****** ****** ****** ****** ****** ******
      ****** ****** ****** ****** ****** ****** ****** ****** ****** ******
      ****** ****** ****** ****** ****** ****** ****** ****** ****** ******
  13  ****** ****** ****** ****** ****** ****** ****** ****** ****** ******
      ****** ****** ****** ****** ****** ****** ****** ****** ****** ******
      ****** ****** ****** ****** ****** ****** ****** ****** ****** ******
  14  ****** ****** ****** ****** ****** ****** ****** ****** ****** ******
      ****** ****** ****** ****** ****** ****** ****** ****** ****** ******
      ****** ****** ****** ****** ****** ****** ****** ****** ****** ******
  15  ****** ****** ****** ****** ****** ****** ****** ****** ****** ******
      ****** ****** ****** ****** ****** ****** ****** ****** ****** ******
      ****** ****** ****** ****** ****** ****** ****** ****** ****** ******
  16  ****** ****** ****** ****** ****** ****** ****** ****** ****** ******
      ****** ****** ****** ****** ****** ****** ****** ****** ****** ******
      ****** ****** ****** ****** ****** ****** ****** ****** ****** ******
  17  ****** ****** ****** ****** ****** ****** ****** ****** ****** ******
      ****** ****** ****** ****** ****** ****** ****** ****** ****** ******
      ****** ****** ****** ****** ****** ****** ****** ****** ****** ******
  18  ****** ****** ****** ****** ****** ****** ****** ****** ****** ******
      ****** ****** ****** ****** ****** ****** ****** ****** ****** ******
      ****** ****** ****** ****** ****** ****** ****** ****** ****** ******
  19  ****** ****** ****** ****** ****** ****** ****** ****** ****** ******
      ****** ****** ****** ****** ****** ****** ****** ****** ****** ******
      ****** ****** ****** ****** ****** ****** ****** ****** ****** ******
  20  ****** ****** ****** ****** ****** ****** ****** ****** ****** ******
      ****** ****** ****** ****** ****** ****** ****** ****** ****** ******
      ****** ****** ****** ****** ****** ****** ****** ****** ****** ******
  21  ****** ****** ****** ****** ****** ****** ****** ****** ****** ******
      ****** ****** ****** ****** ****** ****** ****** ****** ****** ******
      ****** ****** ****** ****** ****** ****** ****** ****** ****** ******
  22  ****** ****** ****** ****** ****** ****** ****** ****** ****** ******
      ****** ****** ****** ****** ****** ****** ****** ****** ****** ******
      ****** ****** ****** ****** ****** ****** ****** ****** ****** ******
  23  ****** ****** ****** ****** ****** ****** ****** ****** ****** ******
      ****** ****** ****** ****** ****** ****** ****** ****** ****** ******
      ****** ****** ****** ****** ****** ****** ****** ****** ****** ******
  24  ****** ****** ****** ****** ****** ****** ****** ****** ****** ******
      ****** ****** ****** ****** ****** ****** ****** ****** ****** ******
      ****** ****** ****** ****** ****** ****** ****** ****** ****** ******
  25  ****** ****** ****** ****** ****** ****** ****** ****** ****** ******
      ****** ****** ****** ****** ****** ****** ****** ****** ****** ******
      ****** ****** ****** ****** ****** ****** ****** ****** ****** ******

 HEAD WILL BE SAVED ON UNIT   51 AT END OF TIME STEP    1, STRESS PERIOD   10
1
  VOLUMETRIC BUDGET FOR ENTIRE MODEL AT END OF TIME STEP    1, STRESS PERIOD  10
  ------------------------------------------------------------------------------

     CUMULATIVE VOLUMES      L**3       RATES FOR THIS TIME STEP      L**3/T
     ------------------                 ------------------------

           IN:                                      IN:
           ---                                      ---
             STORAGE =    20484035.3045               STORAGE =           0.0000
       CONSTANT HEAD =  1150575522.3811         CONSTANT HEAD =     1257564.8511
               WELLS =           0.0000                 WELLS =           0.0000
            RECHARGE =    23901600.0000              RECHARGE =       55200.0000
      STREAM LEAKAGE =           0.0000        STREAM LEAKAGE =           0.0000

            TOTAL IN =  1194961157.6856              TOTAL IN =     1312764.8511

          OUT:                                     OUT:
          ----                                     ----
             STORAGE =      562062.4769               STORAGE =        1938.1064
       CONSTANT HEAD =           0.0000         CONSTANT HEAD =           0.0000
               WELLS =   127057554.3409                 WELLS =      142166.2961
            RECHARGE =           0.0000              RECHARGE =           0.0000
      STREAM LEAKAGE =  1067341550.3213        STREAM LEAKAGE =     1168660.4151

           TOTAL OUT =  1194961167.1390             TOTAL OUT =     1312764.8176

            IN - OUT =          -9.4534              IN - OUT =       3.3538E-02

 PERCENT DISCREPANCY =          -0.00     PERCENT DISCREPANCY =           0.00






         TIME SUMMARY AT END OF TIME STEP    1 IN STRESS PERIOD   10
                    SECONDS     MINUTES      HOURS       DAYS        YEARS
                    -----------------------------------------------------------
   TIME STEP LENGTH 7.86240E+06 1.31040E+05  2184.0      91.000     0.24914    
 STRESS PERIOD TIME 7.86240E+06 1.31040E+05  2184.0      91.000     0.24914    
         TOTAL TIME 7.88832E+07 1.31472E+06  21912.      913.00      2.4997    
1
1
                            STRESS PERIOD NO.   11, LENGTH =   91.00000    
                            -----------------------------------------------

                              NUMBER OF TIME STEPS =     1

                               MULTIPLIER FOR DELT =     1.500

                            INITIAL TIME STEP SIZE =   91.00000    

 WELL NO.  LAYER   ROW   COL   STRESS RATE         
 --------------------------------------------------
      1      1     22      9     -0.3717E+05
      2      1     24     11     -0.5000E+05
      3      1     24     23     -0.5500E+05

      3 WELLS

                 RECHARGE =   0.00000    

 REUSING STREAM SEGMENT DATA FROM LAST STRESS PERIOD
 
 SOLVING FOR HEAD 


     6 CALLS TO PCG ROUTINE FOR TIME STEP   1 IN STRESS PERIOD   11
    22 TOTAL ITERATIONS

 OUTPUT CONTROL FOR STRESS PERIOD   11   TIME STEP    1
    SAVE BUDGET
    SAVE HEAD FOR ALL LAYERS
    PRINT HEAD FOR ALL LAYERS
 UBDSV2 SAVING "STREAMFLOW OUT  " ON UNIT  50 AT TIME STEP  1, STRESS PERIOD  11



 STREAM LISTING     PERIOD     11   STEP        1

 LAYER ROW COL. STREAM  RCH.  FLOW INTO     FLOW TO   FLOW OUT OF   OVRLND.     DIRECT     STREAM       STREAM     STREAM     STREAM   STREAMBED  STREAMBED
                SEG.NO.  NO.  STRM. RCH.    AQUIFER    STRM. RCH.    RUNOFF     PRECIP       ET          HEAD       DEPTH      WIDTH   CONDCTNC.   GRADIENT

   1   13    1     1     1    1.0000E+05 -2.7289E+04   1.2729E+05  0.000E+00  0.000E+00  0.000E+00  4.84176E+01  1.562E-01  2.000E+01  2.000E+04 -1.364E+00
   1   13    2     1     2    1.2729E+05 -3.6971E+04   1.6426E+05  0.000E+00  0.000E+00  0.000E+00  4.79654E+01  1.814E-01  2.000E+01  2.000E+04 -1.849E+00
   1   14    3     1     3    1.6426E+05 -3.2259E+04   1.9652E+05  0.000E+00  0.000E+00  0.000E+00  4.75129E+01  2.061E-01  2.000E+01  2.000E+04 -1.613E+00
   1   15    4     1     4    1.9652E+05 -3.1253E+04   2.2777E+05  0.000E+00  0.000E+00  0.000E+00  4.70567E+01  2.271E-01  2.000E+01  2.000E+04 -1.563E+00
   1   16    5     1     5    2.2777E+05 -3.2281E+04   2.6005E+05  0.000E+00  0.000E+00  0.000E+00  4.65993E+01  2.470E-01  2.000E+01  2.000E+04 -1.614E+00
   1   16    6     1     6    2.6005E+05 -2.8096E+04   2.8815E+05  0.000E+00  0.000E+00  0.000E+00  4.61399E+01  2.649E-01  2.000E+01  2.000E+04 -1.405E+00
   1   16    7     1     7    2.8815E+05 -2.7786E+04   3.1594E+05  0.000E+00  0.000E+00  0.000E+00  4.56785E+01  2.808E-01  2.000E+01  2.000E+04 -1.389E+00
   1   16    8     1     8    3.1594E+05 -2.7829E+04   3.4376E+05  0.000E+00  0.000E+00  0.000E+00  4.52165E+01  2.960E-01  2.000E+01  2.000E+04 -1.391E+00
   1   16    9     1     9    3.4376E+05 -2.7827E+04   3.7159E+05  0.000E+00  0.000E+00  0.000E+00  4.47539E+01  3.108E-01  2.000E+01  2.000E+04 -1.391E+00
   1   16   10     1    10    3.7159E+05 -2.7855E+04   3.9945E+05  0.000E+00  0.000E+00  0.000E+00  4.42910E+01  3.251E-01  2.000E+01  2.000E+04 -1.393E+00
   1   16   11     1    11    3.9945E+05 -2.8495E+04   4.2794E+05  0.000E+00  0.000E+00  0.000E+00  4.38277E+01  3.391E-01  2.000E+01  2.000E+04 -1.425E+00
   1   16   12     1    12    4.2794E+05 -3.3817E+04   4.6176E+05  0.000E+00  0.000E+00  0.000E+00  4.33656E+01  3.542E-01  2.000E+01  2.000E+04 -1.691E+00
   1   15   13     1    13    4.6176E+05 -3.3293E+04   4.9505E+05  0.000E+00  0.000E+00  0.000E+00  4.29041E+01  3.700E-01  2.000E+01  2.000E+04 -1.665E+00
   1   14   14     1    14    4.9505E+05 -3.4249E+04   5.2930E+05  0.000E+00  0.000E+00  0.000E+00  4.24423E+01  3.855E-01  2.000E+01  2.000E+04 -1.712E+00
   1   13   15     1    15    5.2930E+05 -3.6713E+04   5.6601E+05  0.000E+00  0.000E+00  0.000E+00  4.19808E+01  4.013E-01  2.000E+01  2.000E+04 -1.836E+00
   1   12   16     1    16    5.6601E+05 -4.2966E+04   6.0898E+05  0.000E+00  0.000E+00  0.000E+00  4.15208E+01  4.185E-01  2.000E+01  2.000E+04 -2.148E+00
   1   12   17     1    17    6.0898E+05 -3.3570E+04   6.4255E+05  0.000E+00  0.000E+00  0.000E+00  4.10597E+01  4.347E-01  2.000E+01  2.000E+04 -1.678E+00
   1   12   18     1    18    6.4255E+05 -3.1976E+04   6.7452E+05  0.000E+00  0.000E+00  0.000E+00  4.05959E+01  4.482E-01  2.000E+01  2.000E+04 -1.599E+00
   1   12   19     1    19    6.7452E+05 -3.6060E+04   7.1058E+05  0.000E+00  0.000E+00  0.000E+00  4.01324E+01  4.620E-01  2.000E+01  2.000E+04 -1.803E+00
   1   13   20     1    20    7.1058E+05 -2.6238E+04   7.3682E+05  0.000E+00  0.000E+00  0.000E+00  3.96675E+01  4.743E-01  2.000E+01  2.000E+04 -1.312E+00
   1   14   21     1    21    7.3682E+05 -1.9052E+04   7.5587E+05  0.000E+00  0.000E+00  0.000E+00  3.91991E+01  4.832E-01  2.000E+01  2.000E+04 -9.526E-01
   1   14   22     1    22    7.5587E+05 -1.5657E+03   7.5744E+05  0.000E+00  0.000E+00  0.000E+00  3.87258E+01  4.872E-01  2.000E+01  2.000E+04 -7.828E-02
   1    9   30     2     1    5.0000E+04 -2.6339E+04   7.6339E+04  0.000E+00  0.000E+00  0.000E+00  4.02583E+01  1.333E-01  2.000E+01  2.000E+04 -1.317E+00
   1    9   29     2     2    7.6339E+04 -2.8807E+04   1.0515E+05  0.000E+00  0.000E+00  0.000E+00  4.00407E+01  1.657E-01  2.000E+01  2.000E+04 -1.440E+00
   1    9   28     2     3    1.0515E+05 -3.3092E+04   1.3824E+05  0.000E+00  0.000E+00  0.000E+00  3.98226E+01  1.976E-01  2.000E+01  2.000E+04 -1.655E+00
   1    9   27     2     4    1.3824E+05 -4.7178E+04   1.8542E+05  0.000E+00  0.000E+00  0.000E+00  3.96094E+01  2.344E-01  2.000E+01  2.000E+04 -2.359E+00
   1   10   26     2     5    1.8542E+05 -3.3138E+04   2.1855E+05  0.000E+00  0.000E+00  0.000E+00  3.93928E+01  2.678E-01  2.000E+01  2.000E+04 -1.657E+00
   1   11   25     2     6    2.1855E+05 -2.4797E+04   2.4335E+05  0.000E+00  0.000E+00  0.000E+00  3.91652E+01  2.902E-01  2.000E+01  2.000E+04 -1.240E+00
   1   12   24     2     7    2.4335E+05 -1.8243E+04   2.6159E+05  0.000E+00  0.000E+00  0.000E+00  3.89311E+01  3.061E-01  2.000E+01  2.000E+04 -9.122E-01
   1   13   23     2     8    2.6159E+05 -1.2898E+04   2.7449E+05  0.000E+00  0.000E+00  0.000E+00  3.86923E+01  3.173E-01  2.000E+01  2.000E+04 -6.449E-01
   1   14   22     2     9    2.7449E+05 -7.0941E+03   2.8159E+05  0.000E+00  0.000E+00  0.000E+00  3.84494E+01  3.244E-01  2.000E+01  2.000E+04 -3.547E-01
   1   14   22     3     1    1.0390E+06 -1.5148E+04   1.0542E+06  0.000E+00  0.000E+00  0.000E+00  3.80467E+01  4.911E-01  2.000E+01  2.000E+04 -7.574E-01
   1   15   23     3     2    1.0542E+06 -2.2883E+04   1.0771E+06  0.000E+00  0.000E+00  0.000E+00  3.71631E+01  4.964E-01  2.000E+01  2.000E+04 -1.144E+00
   1   15   24     3     3    1.0771E+06 -1.9121E+04   1.0962E+06  0.000E+00  0.000E+00  0.000E+00  3.62801E+01  5.023E-01  2.000E+01  2.000E+04 -9.561E-01
   1   15   25     3     4    1.0962E+06 -1.8803E+04   1.1150E+06  0.000E+00  0.000E+00  0.000E+00  3.53964E+01  5.075E-01  2.000E+01  2.000E+04 -9.402E-01
   1   15   26     3     5    1.1150E+06 -2.1601E+04   1.1366E+06  0.000E+00  0.000E+00  0.000E+00  3.45131E+01  5.131E-01  2.000E+01  2.000E+04 -1.080E+00
   1   16   27     3     6    1.1366E+06 -2.8537E+04   1.1651E+06  0.000E+00  0.000E+00  0.000E+00  3.36310E+01  5.199E-01  2.000E+01  2.000E+04 -1.427E+00
   1   17   28     3     7    1.1651E+06 -3.5504E+04   1.2006E+06  0.000E+00  0.000E+00  0.000E+00  3.27507E+01  5.285E-01  2.000E+01  2.000E+04 -1.775E+00
   1   18   29     3     8    1.2006E+06 -4.6455E+04   1.2471E+06  0.000E+00  0.000E+00  0.000E+00  3.18728E+01  5.394E-01  2.000E+01  2.000E+04 -2.323E+00
   1   18   30     3     9    1.2471E+06 -4.3136E+04   1.2902E+06  0.000E+00  0.000E+00  0.000E+00  3.09956E+01  5.512E-01  2.000E+01  2.000E+04 -2.157E+00



1
              HEAD IN LAYER   1 AT END OF TIME STEP   1 IN STRESS PERIOD   11
  ---------------------------------------------------------------------------

          1      2      3      4      5      6      7      8      9     10
         11     12     13     14     15     16     17     18     19     20
         21     22     23     24     25     26     27     28     29     30
 .........................................................................
   1  ****** ****** ****** ****** ****** ****** ****** ****** ****** ******
      ****** ****** ****** ****** ****** ****** ****** ****** ****** ******
      ****** ****** ****** ****** ****** ****** ****** ****** ****** ******
   2  ****** ****** ****** ****** ****** ****** ****** ****** ****** ******
      ****** ****** ****** ****** ****** ****** ****** ****** ****** ******
      ****** ****** ****** ****** ****** ****** ****** ****** ****** ******
   3  ****** ****** ****** ****** ****** ****** ****** ****** ****** ******
      ****** ****** ****** ****** ****** ****** ****** ****** ****** ******
      ****** ****** ****** ****** ****** ****** ****** ****** ****** ******
   4  ****** ****** ****** ****** ****** ****** ****** ****** ****** ******
      ****** ****** ****** ****** ****** ****** ****** ****** ****** ******
      ****** ****** ****** ****** ****** ****** ****** ****** ****** ******
   5  ****** ****** ****** ****** ****** ****** ****** ****** ****** ******
      ****** ****** ****** ****** ****** ****** ****** ****** ****** ******
      ****** ****** ****** ****** ****** ****** ****** ****** ****** ******
   6  ****** ****** ****** ****** ****** ****** ****** ****** ****** ******
      ****** ****** ****** ****** ****** ****** ****** ****** ****** ******
      ****** ****** ****** ****** ****** ****** ****** ****** ****** ******
   7  ****** ****** ****** ****** ****** ****** ****** ****** ****** ******
      ****** ****** ****** ****** ****** ****** ****** ****** ****** ******
      ****** ****** ****** ****** ****** ****** ****** ****** ****** ******
   8  ****** ****** ****** ****** ****** ****** ****** ****** ****** ******
      ****** ****** ****** ****** ****** ****** ****** ****** ****** ******
      ****** ****** ****** ****** ****** ****** ****** ****** ****** ******
   9  ****** ****** ****** ****** ****** ****** ****** ****** ****** ******
      ****** ****** ****** ****** ****** ****** ****** ****** ****** ******
      ****** ****** ****** ****** ****** ****** ****** ****** ****** ******
  10  ****** ****** ****** ****** ****** ****** ****** ****** ****** ******
      ****** ****** ****** ****** ****** ****** ****** ****** ****** ******
      ****** ****** ****** ****** ****** ****** ****** ****** ****** ******
  11  ****** ****** ****** ****** ****** ****** ****** ****** ****** ******
      ****** ****** ****** ****** ****** ****** ****** ****** ****** ******
      ****** ****** ****** ****** ****** ****** ****** ****** ****** ******
  12  ****** ****** ****** ****** ****** ****** ****** ****** ****** ******
      ****** ****** ****** ****** ****** ****** ****** ****** ****** ******
      ****** ****** ****** ****** ****** ****** ****** ****** ****** ******
  13  ****** ****** ****** ****** ****** ****** ****** ****** ****** ******
      ****** ****** ****** ****** ****** ****** ****** ****** ****** ******
      ****** ****** ****** ****** ****** ****** ****** ****** ****** ******
  14  ****** ****** ****** ****** ****** ****** ****** ****** ****** ******
      ****** ****** ****** ****** ****** ****** ****** ****** ****** ******
      ****** ****** ****** ****** ****** ****** ****** ****** ****** ******
  15  ****** ****** ****** ****** ****** ****** ****** ****** ****** ******
      ****** ****** ****** ****** ****** ****** ****** ****** ****** ******
      ****** ****** ****** ****** ****** ****** ****** ****** ****** ******
  16  ****** ****** ****** ****** ****** ****** ****** ****** ****** ******
      ****** ****** ****** ****** ****** ****** ****** ****** ****** ******
      ****** ****** ****** ****** ****** ****** ****** ****** ****** ******
  17  ****** ****** ****** ****** ****** ****** ****** ****** ****** ******
      ****** ****** ****** ****** ****** ****** ****** ****** ****** ******
      ****** ****** ****** ****** ****** ****** ****** ****** ****** ******
  18  ****** ****** ****** ****** ****** ****** ****** ****** ****** ******
      ****** ****** ****** ****** ****** ****** ****** ****** ****** ******
      ****** ****** ****** ****** ****** ****** ****** ****** ****** ******
  19  ****** ****** ****** ****** ****** ****** ****** ****** ****** ******
      ****** ****** ****** ****** ****** ****** ****** ****** ****** ******
      ****** ****** ****** ****** ****** ****** ****** ****** ****** ******
  20  ****** ****** ****** ****** ****** ****** ****** ****** ****** ******
      ****** ****** ****** ****** ****** ****** ****** ****** ****** ******
      ****** ****** ****** ****** ****** ****** ****** ****** ****** ******
  21  ****** ****** ****** ****** ****** ****** ****** ****** ****** ******
      ****** ****** ****** ****** ****** ****** ****** ****** ****** ******
      ****** ****** ****** ****** ****** ****** ****** ****** ****** ******
  22  ****** ****** ****** ****** ****** ****** ****** ****** ****** ******
      ****** ****** ****** ****** ****** ****** ****** ****** ****** ******
      ****** ****** ****** ****** ****** ****** ****** ****** ****** ******
  23  ****** ****** ****** ****** ****** ****** ****** ****** ****** ******
      ****** ****** ****** ****** ****** ****** ****** ****** ****** ******
      ****** ****** ****** ****** ****** ****** ****** ****** ****** ******
  24  ****** ****** ****** ****** ****** ****** ****** ****** ****** ******
      ****** ****** ****** ****** ****** ****** ****** ****** ****** ******
      ****** ****** ****** ****** ****** ****** ****** ****** ****** ******
  25  ****** ****** ****** ****** ****** ****** ****** ****** ****** ******
      ****** ****** ****** ****** ****** ****** ****** ****** ****** ******
      ****** ****** ****** ****** ****** ****** ****** ****** ****** ******

 HEAD WILL BE SAVED ON UNIT   51 AT END OF TIME STEP    1, STRESS PERIOD   11
1
  VOLUMETRIC BUDGET FOR ENTIRE MODEL AT END OF TIME STEP    1, STRESS PERIOD  11
  ------------------------------------------------------------------------------

     CUMULATIVE VOLUMES      L**3       RATES FOR THIS TIME STEP      L**3/T
     ------------------                 ------------------------

           IN:                                      IN:
           ---                                      ---
             STORAGE =    20713036.3038               STORAGE =        2516.4945
       CONSTANT HEAD =  1267043153.9907         CONSTANT HEAD =     1279864.0836
               WELLS =           0.0000                 WELLS =           0.0000
            RECHARGE =    23901600.0000              RECHARGE =           0.0000
      STREAM LEAKAGE =           0.0000        STREAM LEAKAGE =           0.0000

            TOTAL IN =  1311657790.2945              TOTAL IN =     1282380.5781

          OUT:                                     OUT:
          ----                                     ----
             STORAGE =      562062.4769               STORAGE =           0.0000
       CONSTANT HEAD =           0.0000         CONSTANT HEAD =           0.0000
               WELLS =   139994687.2861                 WELLS =      142166.2961
            RECHARGE =           0.0000              RECHARGE =           0.0000
      STREAM LEAKAGE =  1171101054.0594        STREAM LEAKAGE =     1140214.3268

           TOTAL OUT =  1311657803.8224             TOTAL OUT =     1282380.6229

            IN - OUT =         -13.5279              IN - OUT =      -4.4774E-02

 PERCENT DISCREPANCY =          -0.00     PERCENT DISCREPANCY =          -0.00






         TIME SUMMARY AT END OF TIME STEP    1 IN STRESS PERIOD   11
                    SECONDS     MINUTES      HOURS       DAYS        YEARS
                    -----------------------------------------------------------
   TIME STEP LENGTH 7.86240E+06 1.31040E+05  2184.0      91.000     0.24914    
 STRESS PERIOD TIME 7.86240E+06 1.31040E+05  2184.0      91.000     0.24914    
         TOTAL TIME 8.67456E+07 1.44576E+06  24096.      1004.0      2.7488    
1
1
                            STRESS PERIOD NO.   12, LENGTH =   91.00000    
                            -----------------------------------------------

                              NUMBER OF TIME STEPS =     1

                               MULTIPLIER FOR DELT =     1.500

                            INITIAL TIME STEP SIZE =   91.00000    

 WELL NO.  LAYER   ROW   COL   STRESS RATE         
 --------------------------------------------------
      1      1     22      9     -0.3717E+05
      2      1     24     11     -0.5000E+05
      3      1     24     23     -0.5500E+05

      3 WELLS

                 RECHARGE =  1.000000E-03

 REUSING STREAM SEGMENT DATA FROM LAST STRESS PERIOD
 
 SOLVING FOR HEAD 


     6 CALLS TO PCG ROUTINE FOR TIME STEP   1 IN STRESS PERIOD   12
    22 TOTAL ITERATIONS

 OUTPUT CONTROL FOR STRESS PERIOD   12   TIME STEP    1
    SAVE BUDGET
    SAVE HEAD FOR ALL LAYERS
    PRINT HEAD FOR ALL LAYERS
 UBDSV2 SAVING "STREAMFLOW OUT  " ON UNIT  50 AT TIME STEP  1, STRESS PERIOD  12



 STREAM LISTING     PERIOD     12   STEP        1

 LAYER ROW COL. STREAM  RCH.  FLOW INTO     FLOW TO   FLOW OUT OF   OVRLND.     DIRECT     STREAM       STREAM     STREAM     STREAM   STREAMBED  STREAMBED
                SEG.NO.  NO.  STRM. RCH.    AQUIFER    STRM. RCH.    RUNOFF     PRECIP       ET          HEAD       DEPTH      WIDTH   CONDCTNC.   GRADIENT

   1   13    1     1     1    1.0000E+05 -2.7682E+04   1.2768E+05  0.000E+00  0.000E+00  0.000E+00  4.84177E+01  1.564E-01  2.000E+01  2.000E+04 -1.384E+00
   1   13    2     1     2    1.2768E+05 -3.7438E+04   1.6512E+05  0.000E+00  0.000E+00  0.000E+00  4.79659E+01  1.818E-01  2.000E+01  2.000E+04 -1.872E+00
   1   14    3     1     3    1.6512E+05 -3.2721E+04   1.9784E+05  0.000E+00  0.000E+00  0.000E+00  4.75137E+01  2.068E-01  2.000E+01  2.000E+04 -1.636E+00
   1   15    4     1     4    1.9784E+05 -3.1699E+04   2.2954E+05  0.000E+00  0.000E+00  0.000E+00  4.70577E+01  2.281E-01  2.000E+01  2.000E+04 -1.585E+00
   1   16    5     1     5    2.2954E+05 -3.2686E+04   2.6223E+05  0.000E+00  0.000E+00  0.000E+00  4.66004E+01  2.482E-01  2.000E+01  2.000E+04 -1.634E+00
   1   16    6     1     6    2.6223E+05 -2.8448E+04   2.9067E+05  0.000E+00  0.000E+00  0.000E+00  4.61413E+01  2.663E-01  2.000E+01  2.000E+04 -1.422E+00
   1   16    7     1     7    2.9067E+05 -2.8134E+04   3.1881E+05  0.000E+00  0.000E+00  0.000E+00  4.56800E+01  2.823E-01  2.000E+01  2.000E+04 -1.407E+00
   1   16    8     1     8    3.1881E+05 -2.8178E+04   3.4699E+05  0.000E+00  0.000E+00  0.000E+00  4.52181E+01  2.977E-01  2.000E+01  2.000E+04 -1.409E+00
   1   16    9     1     9    3.4699E+05 -2.8176E+04   3.7516E+05  0.000E+00  0.000E+00  0.000E+00  4.47557E+01  3.125E-01  2.000E+01  2.000E+04 -1.409E+00
   1   16   10     1    10    3.7516E+05 -2.8203E+04   4.0337E+05  0.000E+00  0.000E+00  0.000E+00  4.42929E+01  3.269E-01  2.000E+01  2.000E+04 -1.410E+00
   1   16   11     1    11    4.0337E+05 -2.8848E+04   4.3221E+05  0.000E+00  0.000E+00  0.000E+00  4.38297E+01  3.411E-01  2.000E+01  2.000E+04 -1.442E+00
   1   16   12     1    12    4.3221E+05 -3.4228E+04   4.6644E+05  0.000E+00  0.000E+00  0.000E+00  4.33677E+01  3.563E-01  2.000E+01  2.000E+04 -1.711E+00
   1   15   13     1    13    4.6644E+05 -3.3746E+04   5.0019E+05  0.000E+00  0.000E+00  0.000E+00  4.29064E+01  3.723E-01  2.000E+01  2.000E+04 -1.687E+00
   1   14   14     1    14    5.0019E+05 -3.4715E+04   5.3490E+05  0.000E+00  0.000E+00  0.000E+00  4.24447E+01  3.879E-01  2.000E+01  2.000E+04 -1.736E+00
   1   13   15     1    15    5.3490E+05 -3.7174E+04   5.7208E+05  0.000E+00  0.000E+00  0.000E+00  4.19834E+01  4.038E-01  2.000E+01  2.000E+04 -1.859E+00
   1   12   16     1    16    5.7208E+05 -4.3410E+04   6.1549E+05  0.000E+00  0.000E+00  0.000E+00  4.15235E+01  4.212E-01  2.000E+01  2.000E+04 -2.170E+00
   1   12   17     1    17    6.1549E+05 -3.3930E+04   6.4942E+05  0.000E+00  0.000E+00  0.000E+00  4.10625E+01  4.375E-01  2.000E+01  2.000E+04 -1.697E+00
   1   12   18     1    18    6.4942E+05 -3.2321E+04   6.8174E+05  0.000E+00  0.000E+00  0.000E+00  4.05988E+01  4.511E-01  2.000E+01  2.000E+04 -1.616E+00
   1   12   19     1    19    6.8174E+05 -3.6438E+04   7.1818E+05  0.000E+00  0.000E+00  0.000E+00  4.01354E+01  4.649E-01  2.000E+01  2.000E+04 -1.822E+00
   1   13   20     1    20    7.1818E+05 -2.6595E+04   7.4477E+05  0.000E+00  0.000E+00  0.000E+00  3.96705E+01  4.774E-01  2.000E+01  2.000E+04 -1.330E+00
   1   14   21     1    21    7.4477E+05 -1.9360E+04   7.6413E+05  0.000E+00  0.000E+00  0.000E+00  3.92022E+01  4.863E-01  2.000E+01  2.000E+04 -9.680E-01
   1   14   22     1    22    7.6413E+05 -1.6753E+03   7.6581E+05  0.000E+00  0.000E+00  0.000E+00  3.87290E+01  4.904E-01  2.000E+01  2.000E+04 -8.377E-02
   1    9   30     2     1    5.0000E+04 -2.6620E+04   7.6620E+04  0.000E+00  0.000E+00  0.000E+00  4.02585E+01  1.335E-01  2.000E+01  2.000E+04 -1.331E+00
   1    9   29     2     2    7.6620E+04 -2.9088E+04   1.0571E+05  0.000E+00  0.000E+00  0.000E+00  4.00411E+01  1.661E-01  2.000E+01  2.000E+04 -1.454E+00
   1    9   28     2     3    1.0571E+05 -3.3382E+04   1.3909E+05  0.000E+00  0.000E+00  0.000E+00  3.98233E+01  1.983E-01  2.000E+01  2.000E+04 -1.669E+00
   1    9   27     2     4    1.3909E+05 -4.7531E+04   1.8662E+05  0.000E+00  0.000E+00  0.000E+00  3.96103E+01  2.353E-01  2.000E+01  2.000E+04 -2.377E+00
   1   10   26     2     5    1.8662E+05 -3.3505E+04   2.2013E+05  0.000E+00  0.000E+00  0.000E+00  3.93939E+01  2.689E-01  2.000E+01  2.000E+04 -1.675E+00
   1   11   25     2     6    2.2013E+05 -2.5151E+04   2.4528E+05  0.000E+00  0.000E+00  0.000E+00  3.91665E+01  2.915E-01  2.000E+01  2.000E+04 -1.258E+00
   1   12   24     2     7    2.4528E+05 -1.8560E+04   2.6384E+05  0.000E+00  0.000E+00  0.000E+00  3.89326E+01  3.076E-01  2.000E+01  2.000E+04 -9.280E-01
   1   13   23     2     8    2.6384E+05 -1.3156E+04   2.7699E+05  0.000E+00  0.000E+00  0.000E+00  3.86940E+01  3.190E-01  2.000E+01  2.000E+04 -6.578E-01
   1   14   22     2     9    2.7699E+05 -7.2319E+03   2.8422E+05  0.000E+00  0.000E+00  0.000E+00  3.84512E+01  3.262E-01  2.000E+01  2.000E+04 -3.616E-01
   1   14   22     3     1    1.0500E+06 -1.5260E+04   1.0653E+06  0.000E+00  0.000E+00  0.000E+00  3.80498E+01  4.942E-01  2.000E+01  2.000E+04 -7.630E-01
   1   15   23     3     2    1.0653E+06 -2.3171E+04   1.0885E+06  0.000E+00  0.000E+00  0.000E+00  3.71662E+01  4.996E-01  2.000E+01  2.000E+04 -1.159E+00
   1   15   24     3     3    1.0885E+06 -1.9361E+04   1.1078E+06  0.000E+00  0.000E+00  0.000E+00  3.62832E+01  5.055E-01  2.000E+01  2.000E+04 -9.681E-01
   1   15   25     3     4    1.1078E+06 -1.9042E+04   1.1269E+06  0.000E+00  0.000E+00  0.000E+00  3.53996E+01  5.108E-01  2.000E+01  2.000E+04 -9.521E-01
   1   15   26     3     5    1.1269E+06 -2.1881E+04   1.1487E+06  0.000E+00  0.000E+00  0.000E+00  3.45163E+01  5.163E-01  2.000E+01  2.000E+04 -1.094E+00
   1   16   27     3     6    1.1487E+06 -2.8873E+04   1.1776E+06  0.000E+00  0.000E+00  0.000E+00  3.36343E+01  5.232E-01  2.000E+01  2.000E+04 -1.444E+00
   1   17   28     3     7    1.1776E+06 -3.5848E+04   1.2135E+06  0.000E+00  0.000E+00  0.000E+00  3.27541E+01  5.319E-01  2.000E+01  2.000E+04 -1.792E+00
   1   18   29     3     8    1.2135E+06 -4.6778E+04   1.2602E+06  0.000E+00  0.000E+00  0.000E+00  3.18762E+01  5.429E-01  2.000E+01  2.000E+04 -2.339E+00
   1   18   30     3     9    1.2602E+06 -4.3406E+04   1.3037E+06  0.000E+00  0.000E+00  0.000E+00  3.09991E+01  5.547E-01  2.000E+01  2.000E+04 -2.170E+00



1
              HEAD IN LAYER   1 AT END OF TIME STEP   1 IN STRESS PERIOD   12
  ---------------------------------------------------------------------------

          1      2      3      4      5      6      7      8      9     10
         11     12     13     14     15     16     17     18     19     20
         21     22     23     24     25     26     27     28     29     30
 .........................................................................
   1  ****** ****** ****** ****** ****** ****** ****** ****** ****** ******
      ****** ****** ****** ****** ****** ****** ****** ****** ****** ******
      ****** ****** ****** ****** ****** ****** ****** ****** ****** ******
   2  ****** ****** ****** ****** ****** ****** ****** ****** ****** ******
      ****** ****** ****** ****** ****** ****** ****** ****** ****** ******
      ****** ****** ****** ****** ****** ****** ****** ****** ****** ******
   3  ****** ****** ****** ****** ****** ****** ****** ****** ****** ******
      ****** ****** ****** ****** ****** ****** ****** ****** ****** ******
      ****** ****** ****** ****** ****** ****** ****** ****** ****** ******
   4  ****** ****** ****** ****** ****** ****** ****** ****** ****** ******
      ****** ****** ****** ****** ****** ****** ****** ****** ****** ******
      ****** ****** ****** ****** ****** ****** ****** ****** ****** ******
   5  ****** ****** ****** ****** ****** ****** ****** ****** ****** ******
      ****** ****** ****** ****** ****** ****** ****** ****** ****** ******
      ****** ****** ****** ****** ****** ****** ****** ****** ****** ******
   6  ****** ****** ****** ****** ****** ****** ****** ****** ****** ******
      ****** ****** ****** ****** ****** ****** ****** ****** ****** ******
      ****** ****** ****** ****** ****** ****** ****** ****** ****** ******
   7  ****** ****** ****** ****** ****** ****** ****** ****** ****** ******
      ****** ****** ****** ****** ****** ****** ****** ****** ****** ******
      ****** ****** ****** ****** ****** ****** ****** ****** ****** ******
   8  ****** ****** ****** ****** ****** ****** ****** ****** ****** ******
      ****** ****** ****** ****** ****** ****** ****** ****** ****** ******
      ****** ****** ****** ****** ****** ****** ****** ****** ****** ******
   9  ****** ****** ****** ****** ****** ****** ****** ****** ****** ******
      ****** ****** ****** ****** ****** ****** ****** ****** ****** ******
      ****** ****** ****** ****** ****** ****** ****** ****** ****** ******
  10  ****** ****** ****** ****** ****** ****** ****** ****** ****** ******
      ****** ****** ****** ****** ****** ****** ****** ****** ****** ******
      ****** ****** ****** ****** ****** ****** ****** ****** ****** ******
  11  ****** ****** ****** ****** ****** ****** ****** ****** ****** ******
      ****** ****** ****** ****** ****** ****** ****** ****** ****** ******
      ****** ****** ****** ****** ****** ****** ****** ****** ****** ******
  12  ****** ****** ****** ****** ****** ****** ****** ****** ****** ******
      ****** ****** ****** ****** ****** ****** ****** ****** ****** ******
      ****** ****** ****** ****** ****** ****** ****** ****** ****** ******
  13  ****** ****** ****** ****** ****** ****** ****** ****** ****** ******
      ****** ****** ****** ****** ****** ****** ****** ****** ****** ******
      ****** ****** ****** ****** ****** ****** ****** ****** ****** ******
  14  ****** ****** ****** ****** ****** ****** ****** ****** ****** ******
      ****** ****** ****** ****** ****** ****** ****** ****** ****** ******
      ****** ****** ****** ****** ****** ****** ****** ****** ****** ******
  15  ****** ****** ****** ****** ****** ****** ****** ****** ****** ******
      ****** ****** ****** ****** ****** ****** ****** ****** ****** ******
      ****** ****** ****** ****** ****** ****** ****** ****** ****** ******
  16  ****** ****** ****** ****** ****** ****** ****** ****** ****** ******
      ****** ****** ****** ****** ****** ****** ****** ****** ****** ******
      ****** ****** ****** ****** ****** ****** ****** ****** ****** ******
  17  ****** ****** ****** ****** ****** ****** ****** ****** ****** ******
      ****** ****** ****** ****** ****** ****** ****** ****** ****** ******
      ****** ****** ****** ****** ****** ****** ****** ****** ****** ******
  18  ****** ****** ****** ****** ****** ****** ****** ****** ****** ******
      ****** ****** ****** ****** ****** ****** ****** ****** ****** ******
      ****** ****** ****** ****** ****** ****** ****** ****** ****** ******
  19  ****** ****** ****** ****** ****** ****** ****** ****** ****** ******
      ****** ****** ****** ****** ****** ****** ****** ****** ****** ******
      ****** ****** ****** ****** ****** ****** ****** ****** ****** ******
  20  ****** ****** ****** ****** ****** ****** ****** ****** ****** ******
      ****** ****** ****** ****** ****** ****** ****** ****** ****** ******
      ****** ****** ****** ****** ****** ****** ****** ****** ****** ******
  21  ****** ****** ****** ****** ****** ****** ****** ****** ****** ******
      ****** ****** ****** ****** ****** ****** ****** ****** ****** ******
      ****** ****** ****** ****** ****** ****** ****** ****** ****** ******
  22  ****** ****** ****** ****** ****** ****** ****** ****** ****** ******
      ****** ****** ****** ****** ****** ****** ****** ****** ****** ******
      ****** ****** ****** ****** ****** ****** ****** ****** ****** ******
  23  ****** ****** ****** ****** ****** ****** ****** ****** ****** ******
      ****** ****** ****** ****** ****** ****** ****** ****** ****** ******
      ****** ****** ****** ****** ****** ****** ****** ****** ****** ******
  24  ****** ****** ****** ****** ****** ****** ****** ****** ****** ******
      ****** ****** ****** ****** ****** ****** ****** ****** ****** ******
      ****** ****** ****** ****** ****** ****** ****** ****** ****** ******
  25  ****** ****** ****** ****** ****** ****** ****** ****** ****** ******
      ****** ****** ****** ****** ****** ****** ****** ****** ****** ******
      ****** ****** ****** ****** ****** ****** ****** ****** ****** ******

 HEAD WILL BE SAVED ON UNIT   51 AT END OF TIME STEP    1, STRESS PERIOD   12
1
  VOLUMETRIC BUDGET FOR ENTIRE MODEL AT END OF TIME STEP    1, STRESS PERIOD  12
  ------------------------------------------------------------------------------

     CUMULATIVE VOLUMES      L**3       RATES FOR THIS TIME STEP      L**3/T
     ------------------                 ------------------------

           IN:                                      IN:
           ---                                      ---
             STORAGE =    20713036.3038               STORAGE =           0.0000
       CONSTANT HEAD =  1382557412.0328         CONSTANT HEAD =     1269387.4510
               WELLS =           0.0000                 WELLS =           0.0000
            RECHARGE =    26413200.0000              RECHARGE =       27600.0000
      STREAM LEAKAGE =           0.0000        STREAM LEAKAGE =           0.0000

            TOTAL IN =  1429683648.3366              TOTAL IN =     1296987.4510

          OUT:                                     OUT:
          ----                                     ----
             STORAGE =      668409.2715               STORAGE =        1168.6461
       CONSTANT HEAD =           0.0000         CONSTANT HEAD =           0.0000
               WELLS =   152931820.2314                 WELLS =      142166.2961
            RECHARGE =           0.0000              RECHARGE =           0.0000
      STREAM LEAKAGE =  1276083430.4814        STREAM LEAKAGE =     1153652.4882

           TOTAL OUT =  1429683659.9842             TOTAL OUT =     1296987.4303

            IN - OUT =         -11.6476              IN - OUT =       2.0662E-02

 PERCENT DISCREPANCY =          -0.00     PERCENT DISCREPANCY =           0.00






         TIME SUMMARY AT END OF TIME STEP    1 IN STRESS PERIOD   12
                    SECONDS     MINUTES      HOURS       DAYS        YEARS
                    -----------------------------------------------------------
   TIME STEP LENGTH 7.86240E+06 1.31040E+05  2184.0      91.000     0.24914    
 STRESS PERIOD TIME 7.86240E+06 1.31040E+05  2184.0      91.000     0.24914    
         TOTAL TIME 9.46080E+07 1.57680E+06  26280.      1095.0      2.9979    
1

 Run end date and time (yyyy/mm/dd hh:mm:ss): 2018/10/02 17:52:56
 Elapsed run time:  0.078 Seconds

