                                  MODFLOW-2005     
      U.S. GEOLOGICAL SURVEY MODULAR FINITE-DIFFERENCE GROUND-WATER FLOW MODEL
                            VERSION 1.11.00 8/8/2013

 LIST FILE: supply2.lst
                         UNIT   10

 OPENING ..\data\supply.dis
 FILE TYPE:DIS   UNIT   11   STATUS:OLD    
 FORMAT:FORMATTED              ACCESS:SEQUENTIAL          

 OPENING ..\data\supply.ba6
 FILE TYPE:BAS6   UNIT   12   STATUS:OLD    
 FORMAT:FORMATTED              ACCESS:SEQUENTIAL          

 OPENING ..\data\supply.bc6
 FILE TYPE:BCF6   UNIT   13   STATUS:OLD    
 FORMAT:FORMATTED              ACCESS:SEQUENTIAL          

 OPENING ..\data\supply.rch
 FILE TYPE:RCH   UNIT   15   STATUS:OLD    
 FORMAT:FORMATTED              ACCESS:SEQUENTIAL          

 OPENING ..\data\supply2.sfr
 FILE TYPE:SFR   UNIT   16   STATUS:OLD    
 FORMAT:FORMATTED              ACCESS:SEQUENTIAL          

 OPENING ..\data\supply.oc
 FILE TYPE:OC   UNIT   17   STATUS:OLD    
 FORMAT:FORMATTED              ACCESS:SEQUENTIAL          

 OPENING ..\data\supply.pcg
 FILE TYPE:PCG   UNIT   18   STATUS:OLD    
 FORMAT:FORMATTED              ACCESS:SEQUENTIAL          

 OPENING supply2.wel
 FILE TYPE:WEL   UNIT   19   STATUS:OLD    
 FORMAT:FORMATTED              ACCESS:SEQUENTIAL          

 OPENING supply2sf.cbc
 FILE TYPE:DATA(BINARY)   UNIT   50   STATUS:UNKNOWN
 FORMAT:BINARY                 ACCESS:SEQUENTIAL          

 OPENING supply2hd.bhd
 FILE TYPE:DATA(BINARY)   UNIT   51   STATUS:UNKNOWN
 FORMAT:BINARY                 ACCESS:SEQUENTIAL          

 BAS -- BASIC PACKAGE, VERSION 7, 5/2/2005 INPUT READ FROM UNIT   12
 
 MODFLOW was compiled using uniform precision
 Precision of REAL and DOUBLE PRECISION variables:          15

 DISCRETIZATION INPUT DATA READ FROM UNIT   11
    1 LAYERS        25 ROWS        30 COLUMNS
   12 STRESS PERIOD(S) IN SIMULATION
 MODEL TIME UNIT IS DAYS
 MODEL LENGTH UNIT IS UNDEFINED
  Confining bed flag for each layer:
   0

                     DELR =   200.000    

                     DELC =   200.000    

 TOP ELEVATION OF LAYER 1 =  100.0000    

   MODEL LAYER BOTTOM EL. =   0.00000     FOR LAYER   1


 STRESS PERIOD     LENGTH       TIME STEPS     MULTIPLIER FOR DELT    SS FLAG
 ----------------------------------------------------------------------------
        1         92.00000          1                    1.500         TR
        2         91.00000          1                    1.500         TR
        3         91.00000          1                    1.500         TR
        4         91.00000          1                    1.500         TR
        5         92.00000          1                    1.500         TR
        6         91.00000          1                    1.500         TR
        7         91.00000          1                    1.500         TR
        8         91.00000          1                    1.500         TR
        9         92.00000          1                    1.500         TR
       10         91.00000          1                    1.500         TR
       11         91.00000          1                    1.500         TR
       12         91.00000          1                    1.500         TR

 TRANSIENT SIMULATION



 
 #MODOFC transient water supply sample problem                                   
 #                                                                               
 THE FREE FORMAT OPTION HAS BEEN SELECTED



                     BOUNDARY ARRAY FOR LAYER   1
 READING ON UNIT   12 WITH FORMAT: (20I4)              

 AQUIFER HEAD WILL BE SET TO   0.0000     AT ALL NO-FLOW NODES (IBOUND=0).



                       INITIAL HEAD FOR LAYER   1
 READING ON UNIT   12 WITH FORMAT: (10F13.0)           

 OUTPUT CONTROL IS SPECIFIED ONLY AT TIME STEPS FOR WHICH OUTPUT IS DESIRED
 COMPACT CELL-BY-CELL BUDGET FILES WILL BE WRITTEN
 HEAD PRINT FORMAT CODE IS  18    DRAWDOWN PRINT FORMAT CODE IS   0
 HEADS WILL BE SAVED ON UNIT   51    DRAWDOWNS WILL BE SAVED ON UNIT    0

 BCF -- BLOCK-CENTERED FLOW PACKAGE, VERSION 7, 5/2/2005
         INPUT READ FROM UNIT 13
 TRANSIENT SIMULATION
 HEAD AT CELLS THAT CONVERT TO DRY=   0.0000    
 WETTING CAPABILITY IS NOT ACTIVE
      LAYER  LAYER-TYPE CODE     INTERBLOCK T
      --------------------------------------------
         1            0          0 -- HARMONIC    

 COLUMN TO ROW ANISOTROPY =  1.000000    

     PRIMARY STORAGE COEF =  5.000000E-02 FOR LAYER   1

     TRANSMIS. ALONG ROWS =   500.000     FOR LAYER   1

 WEL -- WELL PACKAGE, VERSION 7, 5/2/2005 INPUT READ FROM UNIT   19
 # Well package input file written by MMProc
 No named parameters
 MAXIMUM OF      6 ACTIVE WELLS AT ONE TIME


     0 Well parameters

 RCH -- RECHARGE PACKAGE, VERSION 7, 5/2/2005 INPUT READ FROM UNIT   15
 No named parameters
 OPTION 1 -- RECHARGE TO TOP LAYER


     0 Recharge parameters

 SFR7 -- STREAMFLOW ROUTING PACKAGE, VERSION 1.0.7, 2013-01-15
         INPUT READ FROM UNIT  16
 #  Supply2 test problem for GWM-VI
 #  The eighth entry in the first data line is ISTCB2 -
 #    Setting this to a negative number indicates that
 #    streamflows out of the reach will be saved to a
 #    binary file.  The absolute value of ISTCB2 is the
 #    unit to which unformatted flows will be written.
 #
 No named parameters
 Segment information will not be 
 read by reach
 No named parameters
 No specifed inflow files


 NUMBER OF STREAM REACHES IS   40

 NUMBER OF STREAM SEGMENTS IS    3

 NUMBER OF STREAM PARAMETERS IS    0

 NUMBER OF STREAM SEGMENTS DEFINED USING PARAMETERS IS              0

 MAXIMUM ERROR FOR STREAM LEAKAGE RATES IS  1.00E-04

 CONSTANT FOR MANNINGS EQUATION IS  1.2839E+05





   STREAM NETWORK DESCRIPTION: 

   LAYER    ROW    COL   SEGMENT   REACH     LENGTH
                          NUMBER   NUMBER    IN CELL        
   --------------------------------------------------
      1     13      1       1        1    2.0000E+02
      1     13      2       1        2    2.0000E+02
      1     14      3       1        3    2.0000E+02
      1     15      4       1        4    2.0000E+02
      1     16      5       1        5    2.0000E+02
      1     16      6       1        6    2.0000E+02
      1     16      7       1        7    2.0000E+02
      1     16      8       1        8    2.0000E+02
      1     16      9       1        9    2.0000E+02
      1     16     10       1       10    2.0000E+02
      1     16     11       1       11    2.0000E+02
      1     16     12       1       12    2.0000E+02
      1     15     13       1       13    2.0000E+02
      1     14     14       1       14    2.0000E+02
      1     13     15       1       15    2.0000E+02
      1     12     16       1       16    2.0000E+02
      1     12     17       1       17    2.0000E+02
      1     12     18       1       18    2.0000E+02
      1     12     19       1       19    2.0000E+02
      1     13     20       1       20    2.0000E+02
      1     14     21       1       21    2.0000E+02
      1     14     22       1       22    2.0000E+02
      1      9     30       2        1    2.0000E+02
      1      9     29       2        2    2.0000E+02
      1      9     28       2        3    2.0000E+02
      1      9     27       2        4    2.0000E+02
      1     10     26       2        5    2.0000E+02
      1     11     25       2        6    2.0000E+02
      1     12     24       2        7    2.0000E+02
      1     13     23       2        8    2.0000E+02
      1     14     22       2        9    2.0000E+02
      1     14     22       3        1    2.0000E+02
      1     15     23       3        2    2.0000E+02
      1     15     24       3        3    2.0000E+02
      1     15     25       3        4    2.0000E+02
      1     15     26       3        5    2.0000E+02
      1     16     27       3        6    2.0000E+02
      1     17     28       3        7    2.0000E+02
      1     18     29       3        8    2.0000E+02
      1     18     30       3        9    2.0000E+02




 PCG -- CONJUGATE-GRADIENT SOLUTION PACKAGE, VERSION 7, 5/2/2005
 MAXIMUM OF    500 CALLS OF SOLUTION ROUTINE
 MAXIMUM OF      5 INTERNAL ITERATIONS PER CALL TO SOLUTION ROUTINE
 MATRIX PRECONDITIONING TYPE :    1



                                    SOLUTION BY THE CONJUGATE-GRADIENT METHOD
                                   -------------------------------------------
                    MAXIMUM NUMBER OF CALLS TO PCG ROUTINE =      500
                        MAXIMUM ITERATIONS PER CALL TO PCG =        5
                               MATRIX PRECONDITIONING TYPE =        1
        RELAXATION FACTOR (ONLY USED WITH PRECOND. TYPE 1) =    0.10000E+01
 PARAMETER OF POLYNOMIAL PRECOND. = 2 (2) OR IS CALCULATED :        0
                         HEAD CHANGE CRITERION FOR CLOSURE =    0.10000E-05
                     RESIDUAL CHANGE CRITERION FOR CLOSURE =    0.10000E+01
            PCG HEAD AND RESIDUAL CHANGE PRINTOUT INTERVAL =        1
     PRINTING FROM SOLVER IS LIMITED(1) OR SUPPRESSED (>1) =        1
                            STEADY-STATE DAMPING PARAMETER =    0.10000E+01
                               TRANSIENT DAMPING PARAMETER =    0.10000E+01
1
                            STRESS PERIOD NO.    1, LENGTH =   92.00000    
                            -----------------------------------------------

                              NUMBER OF TIME STEPS =     1

                               MULTIPLIER FOR DELT =     1.500

                            INITIAL TIME STEP SIZE =   92.00000    

 WELL NO.  LAYER   ROW   COL   STRESS RATE         
 --------------------------------------------------
      1      1     23     29     -0.3033E+05
      2      1     23      8     -0.3444E+05
      3      1     23     22     -0.3874E+05

      3 WELLS

                 RECHARGE =  5.000000E-04



 CLASSIFICATION & COUNT OF STREAM SEGMENTS BASED ON SOURCE OF INFLOW:

                HEADWATER     DIVERSION     RECEIVES TRIBUTARY FLOW
                ---------     ---------     -----------------------
                     2              0               1



                    INPUT DATA FOR EACH STREAM SEGMENT
 ---------------------------------------------------------------------------------------------

 SEGMENT    SEG.     INFLOW   OVERLAND   STREAM    STREAM   ICALC  OUTFLOW  DIVERSION PRIORITY
    NO.    LENGTH     RATE     RUNOFF      ET       PPT.    METH.  TO SEG.  FROM SEG.    NO.

      1  4.400E+03 1.000E+05 0.000E+00 0.000E+00 0.000E+00    1        3        0        0
      2  1.800E+03 5.000E+04 0.000E+00 0.000E+00 0.000E+00    1        3        0        0
      3  1.800E+03 0.000E+00 0.000E+00 0.000E+00 0.000E+00    1        0        0        0


         STREAMBED PROPERTIES AND STREAM DIMENSIONS

 SEGMENT     BED HYD. COND.      BED THICKNESS     ELEV.-TOP OF BED     WIDTH OF STREAM     DEPTH OF STREAM    STREAM ROUGHNESS
    No.     UPPER     LOWER     UPPER     LOWER     UPPER     LOWER     UPPER     LOWER     UPPER     LOWER   CHANNEL      BANK

     1  5.000E+00 5.000E+00 1.000E+00 1.000E+00 4.850E+01 3.800E+01 2.000E+01 2.000E+01                     5.000E-02
     2  5.000E+00 5.000E+00 1.000E+00 1.000E+00 4.025E+01 3.800E+01 2.000E+01 2.000E+01                     5.000E-02
     3  5.000E+00 5.000E+00 1.000E+00 1.000E+00 3.800E+01 3.000E+01 2.000E+01 2.000E+01                     5.000E-02



 
 SOLVING FOR HEAD 


     8 CALLS TO PCG ROUTINE FOR TIME STEP   1 IN STRESS PERIOD    1
    34 TOTAL ITERATIONS

 OUTPUT CONTROL FOR STRESS PERIOD    1   TIME STEP    1
    SAVE BUDGET
    SAVE HEAD FOR ALL LAYERS
    PRINT HEAD FOR ALL LAYERS
 UBDSV2 SAVING "STREAMFLOW OUT  " ON UNIT  50 AT TIME STEP  1, STRESS PERIOD   1



 STREAM LISTING     PERIOD      1   STEP        1

 LAYER ROW COL. STREAM  RCH.  FLOW INTO     FLOW TO   FLOW OUT OF   OVRLND.     DIRECT     STREAM       STREAM     STREAM     STREAM   STREAMBED  STREAMBED
                SEG.NO.  NO.  STRM. RCH.    AQUIFER    STRM. RCH.    RUNOFF     PRECIP       ET          HEAD       DEPTH      WIDTH   CONDCTNC.   GRADIENT

   1   13    1     1     1    1.0000E+05 -5.7001E+03   1.0570E+05  0.000E+00  0.000E+00  0.000E+00  4.84085E+01  1.471E-01  2.000E+01  2.000E+04 -2.850E-01
   1   13    2     1     2    1.0570E+05 -8.5599E+03   1.1426E+05  0.000E+00  0.000E+00  0.000E+00  4.79372E+01  1.531E-01  2.000E+01  2.000E+04 -4.280E-01
   1   14    3     1     3    1.1426E+05 -7.7625E+03   1.2202E+05  0.000E+00  0.000E+00  0.000E+00  4.74667E+01  1.599E-01  2.000E+01  2.000E+04 -3.881E-01
   1   15    4     1     4    1.2202E+05 -7.4935E+03   1.2952E+05  0.000E+00  0.000E+00  0.000E+00  4.69955E+01  1.660E-01  2.000E+01  2.000E+04 -3.747E-01
   1   16    5     1     5    1.2952E+05 -6.9974E+03   1.3651E+05  0.000E+00  0.000E+00  0.000E+00  4.65239E+01  1.717E-01  2.000E+01  2.000E+04 -3.499E-01
   1   16    6     1     6    1.3651E+05 -5.5844E+03   1.4210E+05  0.000E+00  0.000E+00  0.000E+00  4.60515E+01  1.765E-01  2.000E+01  2.000E+04 -2.792E-01
   1   16    7     1     7    1.4210E+05 -5.6850E+03   1.4778E+05  0.000E+00  0.000E+00  0.000E+00  4.55785E+01  1.807E-01  2.000E+01  2.000E+04 -2.843E-01
   1   16    8     1     8    1.4778E+05 -5.7544E+03   1.5354E+05  0.000E+00  0.000E+00  0.000E+00  4.51054E+01  1.850E-01  2.000E+01  2.000E+04 -2.877E-01
   1   16    9     1     9    1.5354E+05 -5.7887E+03   1.5933E+05  0.000E+00  0.000E+00  0.000E+00  4.46324E+01  1.892E-01  2.000E+01  2.000E+04 -2.894E-01
   1   16   10     1    10    1.5933E+05 -5.7845E+03   1.6511E+05  0.000E+00  0.000E+00  0.000E+00  4.41593E+01  1.934E-01  2.000E+01  2.000E+04 -2.892E-01
   1   16   11     1    11    1.6511E+05 -5.7539E+03   1.7086E+05  0.000E+00  0.000E+00  0.000E+00  4.36861E+01  1.975E-01  2.000E+01  2.000E+04 -2.877E-01
   1   16   12     1    12    1.7086E+05 -7.4697E+03   1.7833E+05  0.000E+00  0.000E+00  0.000E+00  4.32135E+01  2.021E-01  2.000E+01  2.000E+04 -3.735E-01
   1   15   13     1    13    1.7833E+05 -7.9898E+03   1.8632E+05  0.000E+00  0.000E+00  0.000E+00  4.27415E+01  2.074E-01  2.000E+01  2.000E+04 -3.995E-01
   1   14   14     1    14    1.8632E+05 -8.2958E+03   1.9462E+05  0.000E+00  0.000E+00  0.000E+00  4.22697E+01  2.129E-01  2.000E+01  2.000E+04 -4.148E-01
   1   13   15     1    15    1.9462E+05 -8.5684E+03   2.0319E+05  0.000E+00  0.000E+00  0.000E+00  4.17981E+01  2.185E-01  2.000E+01  2.000E+04 -4.284E-01
   1   12   16     1    16    2.0319E+05 -9.4131E+03   2.1260E+05  0.000E+00  0.000E+00  0.000E+00  4.13267E+01  2.244E-01  2.000E+01  2.000E+04 -4.707E-01
   1   12   17     1    17    2.1260E+05 -6.6054E+03   2.1921E+05  0.000E+00  0.000E+00  0.000E+00  4.08546E+01  2.296E-01  2.000E+01  2.000E+04 -3.303E-01
   1   12   18     1    18    2.1921E+05 -6.4247E+03   2.2563E+05  0.000E+00  0.000E+00  0.000E+00  4.03814E+01  2.337E-01  2.000E+01  2.000E+04 -3.212E-01
   1   12   19     1    19    2.2563E+05 -8.1156E+03   2.3375E+05  0.000E+00  0.000E+00  0.000E+00  3.99087E+01  2.382E-01  2.000E+01  2.000E+04 -4.058E-01
   1   13   20     1    20    2.3375E+05 -6.5790E+03   2.4033E+05  0.000E+00  0.000E+00  0.000E+00  3.94360E+01  2.428E-01  2.000E+01  2.000E+04 -3.290E-01
   1   14   21     1    21    2.4033E+05 -5.2651E+03   2.4559E+05  0.000E+00  0.000E+00  0.000E+00  3.89623E+01  2.464E-01  2.000E+01  2.000E+04 -2.633E-01
   1   14   22     1    22    2.4559E+05  4.4037E+03   2.4119E+05  0.000E+00  0.000E+00  0.000E+00  3.84853E+01  2.467E-01  2.000E+01  2.000E+04  2.202E-01
   1    9   30     2     1    5.0000E+04 -5.5699E+03   5.5570E+04  0.000E+00  0.000E+00  0.000E+00  4.02447E+01  1.197E-01  2.000E+01  2.000E+04 -2.785E-01
   1    9   29     2     2    5.5570E+04 -5.8690E+03   6.1439E+04  0.000E+00  0.000E+00  0.000E+00  4.00023E+01  1.273E-01  2.000E+01  2.000E+04 -2.935E-01
   1    9   28     2     3    6.1439E+04 -6.1934E+03   6.7632E+04  0.000E+00  0.000E+00  0.000E+00  3.97600E+01  1.350E-01  2.000E+01  2.000E+04 -3.097E-01
   1    9   27     2     4    6.7632E+04 -9.5870E+03   7.7219E+04  0.000E+00  0.000E+00  0.000E+00  3.95197E+01  1.447E-01  2.000E+01  2.000E+04 -4.794E-01
   1   10   26     2     5    7.7219E+04 -7.7169E+03   8.4936E+04  0.000E+00  0.000E+00  0.000E+00  3.92799E+01  1.549E-01  2.000E+01  2.000E+04 -3.858E-01
   1   11   25     2     6    8.4936E+04 -6.5909E+03   9.1527E+04  0.000E+00  0.000E+00  0.000E+00  3.90379E+01  1.629E-01  2.000E+01  2.000E+04 -3.295E-01
   1   12   24     2     7    9.1527E+04 -5.3317E+03   9.6859E+04  0.000E+00  0.000E+00  0.000E+00  3.87944E+01  1.694E-01  2.000E+01  2.000E+04 -2.666E-01
   1   13   23     2     8    9.6859E+04 -3.7854E+03   1.0064E+05  0.000E+00  0.000E+00  0.000E+00  3.85493E+01  1.743E-01  2.000E+01  2.000E+04 -1.893E-01
   1   14   22     2     9    1.0064E+05  7.1616E+02   9.9928E+04  0.000E+00  0.000E+00  0.000E+00  3.83009E+01  1.759E-01  2.000E+01  2.000E+04  3.581E-02
   1   14   22     3     1    3.4112E+05 -9.1383E+03   3.5025E+05  0.000E+00  0.000E+00  0.000E+00  3.78082E+01  2.526E-01  2.000E+01  2.000E+04 -4.569E-01
   1   15   23     3     2    3.5025E+05 -5.3291E+03   3.5558E+05  0.000E+00  0.000E+00  0.000E+00  3.69225E+01  2.558E-01  2.000E+01  2.000E+04 -2.665E-01
   1   15   24     3     3    3.5558E+05 -3.9068E+03   3.5949E+05  0.000E+00  0.000E+00  0.000E+00  3.60356E+01  2.578E-01  2.000E+01  2.000E+04 -1.953E-01
   1   15   25     3     4    3.5949E+05 -3.9684E+03   3.6346E+05  0.000E+00  0.000E+00  0.000E+00  3.51484E+01  2.595E-01  2.000E+01  2.000E+04 -1.984E-01
   1   15   26     3     5    3.6346E+05 -5.3924E+03   3.6885E+05  0.000E+00  0.000E+00  0.000E+00  3.42615E+01  2.615E-01  2.000E+01  2.000E+04 -2.696E-01
   1   16   27     3     6    3.6885E+05 -6.5886E+03   3.7544E+05  0.000E+00  0.000E+00  0.000E+00  3.33752E+01  2.641E-01  2.000E+01  2.000E+04 -3.294E-01
   1   17   28     3     7    3.7544E+05 -6.9278E+03   3.8237E+05  0.000E+00  0.000E+00  0.000E+00  3.24892E+01  2.669E-01  2.000E+01  2.000E+04 -3.464E-01
   1   18   29     3     8    3.8237E+05 -6.8124E+03   3.8918E+05  0.000E+00  0.000E+00  0.000E+00  3.16032E+01  2.698E-01  2.000E+01  2.000E+04 -3.406E-01
   1   18   30     3     9    3.8918E+05 -5.8779E+03   3.9506E+05  0.000E+00  0.000E+00  0.000E+00  3.07169E+01  2.725E-01  2.000E+01  2.000E+04 -2.939E-01



1
              HEAD IN LAYER   1 AT END OF TIME STEP   1 IN STRESS PERIOD    1
  ---------------------------------------------------------------------------

          1      2      3      4      5      6      7      8      9     10
         11     12     13     14     15     16     17     18     19     20
         21     22     23     24     25     26     27     28     29     30
 .........................................................................
   1  ****** ****** ****** ****** ****** ****** ****** ****** ****** ******
      ****** ****** ****** ****** ****** ****** ****** ****** ****** ******
      ****** ****** ****** ****** ****** ****** ****** ****** ****** ******
   2  ****** ****** ****** ****** ****** ****** ****** ****** ****** ******
      ****** ****** ****** ****** ****** ****** ****** ****** ****** ******
      ****** ****** ****** ****** ****** ****** ****** ****** ****** ******
   3  ****** ****** ****** ****** ****** ****** ****** ****** ****** ******
      ****** ****** ****** ****** ****** ****** ****** ****** ****** ******
      ****** ****** ****** ****** ****** ****** ****** ****** ****** ******
   4  ****** ****** ****** ****** ****** ****** ****** ****** ****** ******
      ****** ****** ****** ****** ****** ****** ****** ****** ****** ******
      ****** ****** ****** ****** ****** ****** ****** ****** ****** ******
   5  ****** ****** ****** ****** ****** ****** ****** ****** ****** ******
      ****** ****** ****** ****** ****** ****** ****** ****** ****** ******
      ****** ****** ****** ****** ****** ****** ****** ****** ****** ******
   6  ****** ****** ****** ****** ****** ****** ****** ****** ****** ******
      ****** ****** ****** ****** ****** ****** ****** ****** ****** ******
      ****** ****** ****** ****** ****** ****** ****** ****** ****** ******
   7  ****** ****** ****** ****** ****** ****** ****** ****** ****** ******
      ****** ****** ****** ****** ****** ****** ****** ****** ****** ******
      ****** ****** ****** ****** ****** ****** ****** ****** ****** ******
   8  ****** ****** ****** ****** ****** ****** ****** ****** ****** ******
      ****** ****** ****** ****** ****** ****** ****** ****** ****** ******
      ****** ****** ****** ****** ****** ****** ****** ****** ****** ******
   9  ****** ****** ****** ****** ****** ****** ****** ****** ****** ******
      ****** ****** ****** ****** ****** ****** ****** ****** ****** ******
      ****** ****** ****** ****** ****** ****** ****** ****** ****** ******
  10  ****** ****** ****** ****** ****** ****** ****** ****** ****** ******
      ****** ****** ****** ****** ****** ****** ****** ****** ****** ******
      ****** ****** ****** ****** ****** ****** ****** ****** ****** ******
  11  ****** ****** ****** ****** ****** ****** ****** ****** ****** ******
      ****** ****** ****** ****** ****** ****** ****** ****** ****** ******
      ****** ****** ****** ****** ****** ****** ****** ****** ****** ******
  12  ****** ****** ****** ****** ****** ****** ****** ****** ****** ******
      ****** ****** ****** ****** ****** ****** ****** ****** ****** ******
      ****** ****** ****** ****** ****** ****** ****** ****** ****** ******
  13  ****** ****** ****** ****** ****** ****** ****** ****** ****** ******
      ****** ****** ****** ****** ****** ****** ****** ****** ****** ******
      ****** ****** ****** ****** ****** ****** ****** ****** ****** ******
  14  ****** ****** ****** ****** ****** ****** ****** ****** ****** ******
      ****** ****** ****** ****** ****** ****** ****** ****** ****** ******
      ****** ****** ****** ****** ****** ****** ****** ****** ****** ******
  15  ****** ****** ****** ****** ****** ****** ****** ****** ****** ******
      ****** ****** ****** ****** ****** ****** ****** ****** ****** ******
      ****** ****** ****** ****** ****** ****** ****** ****** ****** ******
  16  ****** ****** ****** ****** ****** ****** ****** ****** ****** ******
      ****** ****** ****** ****** ****** ****** ****** ****** ****** ******
      ****** ****** ****** ****** ****** ****** ****** ****** ****** ******
  17  ****** ****** ****** ****** ****** ****** ****** ****** ****** ******
      ****** ****** ****** ****** ****** ****** ****** ****** ****** ******
      ****** ****** ****** ****** ****** ****** ****** ****** ****** ******
  18  ****** ****** ****** ****** ****** ****** ****** ****** ****** ******
      ****** ****** ****** ****** ****** ****** ****** ****** ****** ******
      ****** ****** ****** ****** ****** ****** ****** ****** ****** ******
  19  ****** ****** ****** ****** ****** ****** ****** ****** ****** ******
      ****** ****** ****** ****** ****** ****** ****** ****** ****** ******
      ****** ****** ****** ****** ****** ****** ****** ****** ****** ******
  20  ****** ****** ****** ****** ****** ****** ****** ****** ****** ******
      ****** ****** ****** ****** ****** ****** ****** ****** ****** ******
      ****** ****** ****** ****** ****** ****** ****** ****** ****** ******
  21  ****** ****** ****** ****** ****** ****** ****** ****** ****** ******
      ****** ****** ****** ****** ****** ****** ****** ****** ****** ******
      ****** ****** ****** ****** ****** ****** ****** ****** ****** ******
  22  ****** ****** ****** ****** ****** ****** ****** ****** ****** ******
      ****** ****** ****** ****** ****** ****** ****** ****** ****** ******
      ****** ****** ****** ****** ****** ****** ****** ****** ****** ******
  23  ****** ****** ****** ****** ****** ****** ****** ****** ****** ******
      ****** ****** ****** ****** ****** ****** ****** ****** ****** ******
      ****** ****** ****** ****** ****** ****** ****** ****** ****** ******
  24  ****** ****** ****** ****** ****** ****** ****** ****** ****** ******
      ****** ****** ****** ****** ****** ****** ****** ****** ****** ******
      ****** ****** ****** ****** ****** ****** ****** ****** ****** ******
  25  ****** ****** ****** ****** ****** ****** ****** ****** ****** ******
      ****** ****** ****** ****** ****** ****** ****** ****** ****** ******
      ****** ****** ****** ****** ****** ****** ****** ****** ****** ******

 HEAD WILL BE SAVED ON UNIT   51 AT END OF TIME STEP    1, STRESS PERIOD    1
1
  VOLUMETRIC BUDGET FOR ENTIRE MODEL AT END OF TIME STEP    1, STRESS PERIOD   1
  ------------------------------------------------------------------------------

     CUMULATIVE VOLUMES      L**3       RATES FOR THIS TIME STEP      L**3/T
     ------------------                 ------------------------

           IN:                                      IN:
           ---                                      ---
             STORAGE =    17461878.2331               STORAGE =      189803.0243
       CONSTANT HEAD =    13337279.4594         CONSTANT HEAD =      144970.4289
               WELLS =           0.0000                 WELLS =           0.0000
            RECHARGE =     1269600.0000              RECHARGE =       13800.0000
      STREAM LEAKAGE =      471030.2131        STREAM LEAKAGE =        5119.8936

            TOTAL IN =    32539787.9056              TOTAL IN =      353693.3468

          OUT:                                     OUT:
          ----                                     ----
             STORAGE =           0.0000               STORAGE =           0.0000
       CONSTANT HEAD =           0.0000         CONSTANT HEAD =           0.0000
               WELLS =     9523498.5559                 WELLS =      103516.2887
            RECHARGE =           0.0000              RECHARGE =           0.0000
      STREAM LEAKAGE =    23016289.4873        STREAM LEAKAGE =      250177.0596

           TOTAL OUT =    32539788.0432             TOTAL OUT =      353693.3483

            IN - OUT =          -0.1376              IN - OUT =      -1.4953E-03

 PERCENT DISCREPANCY =          -0.00     PERCENT DISCREPANCY =          -0.00






         TIME SUMMARY AT END OF TIME STEP    1 IN STRESS PERIOD    1
                    SECONDS     MINUTES      HOURS       DAYS        YEARS
                    -----------------------------------------------------------
   TIME STEP LENGTH 7.94880E+06 1.32480E+05  2208.0      92.000     0.25188    
 STRESS PERIOD TIME 7.94880E+06 1.32480E+05  2208.0      92.000     0.25188    
         TOTAL TIME 7.94880E+06 1.32480E+05  2208.0      92.000     0.25188    
1
1
                            STRESS PERIOD NO.    2, LENGTH =   91.00000    
                            -----------------------------------------------

                              NUMBER OF TIME STEPS =     1

                               MULTIPLIER FOR DELT =     1.500

                            INITIAL TIME STEP SIZE =   91.00000    

 WELL NO.  LAYER   ROW   COL   STRESS RATE         
 --------------------------------------------------
      1      1     23     29     -0.3033E+05
      2      1     23      8     -0.3444E+05
      3      1     23     22     -0.3874E+05

      3 WELLS

                 RECHARGE =  2.000000E-03

 REUSING STREAM SEGMENT DATA FROM LAST STRESS PERIOD
 
 SOLVING FOR HEAD 


     7 CALLS TO PCG ROUTINE FOR TIME STEP   1 IN STRESS PERIOD    2
    27 TOTAL ITERATIONS

 OUTPUT CONTROL FOR STRESS PERIOD    2   TIME STEP    1
    SAVE BUDGET
    SAVE HEAD FOR ALL LAYERS
    PRINT HEAD FOR ALL LAYERS
 UBDSV2 SAVING "STREAMFLOW OUT  " ON UNIT  50 AT TIME STEP  1, STRESS PERIOD   2



 STREAM LISTING     PERIOD      2   STEP        1

 LAYER ROW COL. STREAM  RCH.  FLOW INTO     FLOW TO   FLOW OUT OF   OVRLND.     DIRECT     STREAM       STREAM     STREAM     STREAM   STREAMBED  STREAMBED
                SEG.NO.  NO.  STRM. RCH.    AQUIFER    STRM. RCH.    RUNOFF     PRECIP       ET          HEAD       DEPTH      WIDTH   CONDCTNC.   GRADIENT

   1   13    1     1     1    1.0000E+05 -3.7521E+03   1.0375E+05  0.000E+00  0.000E+00  0.000E+00  4.84076E+01  1.463E-01  2.000E+01  2.000E+04 -1.876E-01
   1   13    2     1     2    1.0375E+05 -6.1238E+03   1.0988E+05  0.000E+00  0.000E+00  0.000E+00  4.79346E+01  1.505E-01  2.000E+01  2.000E+04 -3.062E-01
   1   14    3     1     3    1.0988E+05 -4.9665E+03   1.1484E+05  0.000E+00  0.000E+00  0.000E+00  4.74619E+01  1.551E-01  2.000E+01  2.000E+04 -2.483E-01
   1   15    4     1     4    1.1484E+05 -4.6650E+03   1.1951E+05  0.000E+00  0.000E+00  0.000E+00  4.69886E+01  1.591E-01  2.000E+01  2.000E+04 -2.332E-01
   1   16    5     1     5    1.1951E+05 -4.4367E+03   1.2394E+05  0.000E+00  0.000E+00  0.000E+00  4.65150E+01  1.628E-01  2.000E+01  2.000E+04 -2.218E-01
   1   16    6     1     6    1.2394E+05 -3.5143E+03   1.2746E+05  0.000E+00  0.000E+00  0.000E+00  4.60409E+01  1.659E-01  2.000E+01  2.000E+04 -1.757E-01
   1   16    7     1     7    1.2746E+05 -3.5714E+03   1.3103E+05  0.000E+00  0.000E+00  0.000E+00  4.55664E+01  1.687E-01  2.000E+01  2.000E+04 -1.786E-01
   1   16    8     1     8    1.3103E+05 -3.6128E+03   1.3464E+05  0.000E+00  0.000E+00  0.000E+00  4.50920E+01  1.715E-01  2.000E+01  2.000E+04 -1.806E-01
   1   16    9     1     9    1.3464E+05 -3.6407E+03   1.3828E+05  0.000E+00  0.000E+00  0.000E+00  4.46175E+01  1.743E-01  2.000E+01  2.000E+04 -1.820E-01
   1   16   10     1    10    1.3828E+05 -3.6499E+03   1.4193E+05  0.000E+00  0.000E+00  0.000E+00  4.41430E+01  1.771E-01  2.000E+01  2.000E+04 -1.825E-01
   1   16   11     1    11    1.4193E+05 -3.6445E+03   1.4558E+05  0.000E+00  0.000E+00  0.000E+00  4.36685E+01  1.798E-01  2.000E+01  2.000E+04 -1.822E-01
   1   16   12     1    12    1.4558E+05 -4.8079E+03   1.5039E+05  0.000E+00  0.000E+00  0.000E+00  4.31944E+01  1.830E-01  2.000E+01  2.000E+04 -2.404E-01
   1   15   13     1    13    1.5039E+05 -4.9741E+03   1.5536E+05  0.000E+00  0.000E+00  0.000E+00  4.27207E+01  1.866E-01  2.000E+01  2.000E+04 -2.487E-01
   1   14   14     1    14    1.5536E+05 -5.1981E+03   1.6056E+05  0.000E+00  0.000E+00  0.000E+00  4.22471E+01  1.903E-01  2.000E+01  2.000E+04 -2.599E-01
   1   13   15     1    15    1.6056E+05 -5.5442E+03   1.6610E+05  0.000E+00  0.000E+00  0.000E+00  4.17737E+01  1.942E-01  2.000E+01  2.000E+04 -2.772E-01
   1   12   16     1    16    1.6610E+05 -6.7932E+03   1.7290E+05  0.000E+00  0.000E+00  0.000E+00  4.13008E+01  1.985E-01  2.000E+01  2.000E+04 -3.397E-01
   1   12   17     1    17    1.7290E+05 -4.4746E+03   1.7737E+05  0.000E+00  0.000E+00  0.000E+00  4.08275E+01  2.025E-01  2.000E+01  2.000E+04 -2.237E-01
   1   12   18     1    18    1.7737E+05 -4.2966E+03   1.8167E+05  0.000E+00  0.000E+00  0.000E+00  4.03532E+01  2.055E-01  2.000E+01  2.000E+04 -2.148E-01
   1   12   19     1    19    1.8167E+05 -5.5653E+03   1.8723E+05  0.000E+00  0.000E+00  0.000E+00  3.98793E+01  2.089E-01  2.000E+01  2.000E+04 -2.783E-01
   1   13   20     1    20    1.8723E+05 -3.8000E+03   1.9103E+05  0.000E+00  0.000E+00  0.000E+00  3.94052E+01  2.120E-01  2.000E+01  2.000E+04 -1.900E-01
   1   14   21     1    21    1.9103E+05 -2.7172E+03   1.9375E+05  0.000E+00  0.000E+00  0.000E+00  3.89301E+01  2.142E-01  2.000E+01  2.000E+04 -1.359E-01
   1   14   22     1    22    1.9375E+05  4.9762E+03   1.8877E+05  0.000E+00  0.000E+00  0.000E+00  3.84521E+01  2.135E-01  2.000E+01  2.000E+04  2.488E-01
   1    9   30     2     1    5.0000E+04 -3.4555E+03   5.3456E+04  0.000E+00  0.000E+00  0.000E+00  4.02433E+01  1.183E-01  2.000E+01  2.000E+04 -1.728E-01
   1    9   29     2     2    5.3456E+04 -3.7798E+03   5.7235E+04  0.000E+00  0.000E+00  0.000E+00  3.99981E+01  1.231E-01  2.000E+01  2.000E+04 -1.890E-01
   1    9   28     2     3    5.7235E+04 -4.1560E+03   6.1391E+04  0.000E+00  0.000E+00  0.000E+00  3.97534E+01  1.284E-01  2.000E+01  2.000E+04 -2.078E-01
   1    9   27     2     4    6.1391E+04 -7.1633E+03   6.8555E+04  0.000E+00  0.000E+00  0.000E+00  3.95106E+01  1.356E-01  2.000E+01  2.000E+04 -3.582E-01
   1   10   26     2     5    6.8555E+04 -4.8321E+03   7.3387E+04  0.000E+00  0.000E+00  0.000E+00  3.92680E+01  1.430E-01  2.000E+01  2.000E+04 -2.416E-01
   1   11   25     2     6    7.3387E+04 -3.7353E+03   7.7122E+04  0.000E+00  0.000E+00  0.000E+00  3.90231E+01  1.481E-01  2.000E+01  2.000E+04 -1.868E-01
   1   12   24     2     7    7.7122E+04 -2.7434E+03   7.9865E+04  0.000E+00  0.000E+00  0.000E+00  3.87769E+01  1.519E-01  2.000E+01  2.000E+04 -1.372E-01
   1   13   23     2     8    7.9865E+04 -1.6976E+03   8.1563E+04  0.000E+00  0.000E+00  0.000E+00  3.85294E+01  1.544E-01  2.000E+01  2.000E+04 -8.488E-02
   1   14   22     2     9    8.1563E+04  1.5251E+03   8.0038E+04  0.000E+00  0.000E+00  0.000E+00  3.82795E+01  1.545E-01  2.000E+01  2.000E+04  7.626E-02
   1   14   22     3     1    2.6881E+05 -8.5679E+03   2.7738E+05  0.000E+00  0.000E+00  0.000E+00  3.77749E+01  2.193E-01  2.000E+01  2.000E+04 -4.284E-01
   1   15   23     3     2    2.7738E+05 -2.8807E+03   2.8026E+05  0.000E+00  0.000E+00  0.000E+00  3.68887E+01  2.221E-01  2.000E+01  2.000E+04 -1.440E-01
   1   15   24     3     3    2.8026E+05 -1.9831E+03   2.8224E+05  0.000E+00  0.000E+00  0.000E+00  3.60010E+01  2.232E-01  2.000E+01  2.000E+04 -9.915E-02
   1   15   25     3     4    2.8224E+05 -1.9469E+03   2.8419E+05  0.000E+00  0.000E+00  0.000E+00  3.51131E+01  2.242E-01  2.000E+01  2.000E+04 -9.735E-02
   1   15   26     3     5    2.8419E+05 -2.6514E+03   2.8684E+05  0.000E+00  0.000E+00  0.000E+00  3.42253E+01  2.253E-01  2.000E+01  2.000E+04 -1.326E-01
   1   16   27     3     6    2.8684E+05 -3.2398E+03   2.9008E+05  0.000E+00  0.000E+00  0.000E+00  3.33378E+01  2.266E-01  2.000E+01  2.000E+04 -1.620E-01
   1   17   28     3     7    2.9008E+05 -3.4955E+03   2.9358E+05  0.000E+00  0.000E+00  0.000E+00  3.24505E+01  2.282E-01  2.000E+01  2.000E+04 -1.748E-01
   1   18   29     3     8    2.9358E+05 -3.6242E+03   2.9720E+05  0.000E+00  0.000E+00  0.000E+00  3.15632E+01  2.299E-01  2.000E+01  2.000E+04 -1.812E-01
   1   18   30     3     9    2.9720E+05 -3.3199E+03   3.0052E+05  0.000E+00  0.000E+00  0.000E+00  3.06760E+01  2.315E-01  2.000E+01  2.000E+04 -1.660E-01



1
              HEAD IN LAYER   1 AT END OF TIME STEP   1 IN STRESS PERIOD    2
  ---------------------------------------------------------------------------

          1      2      3      4      5      6      7      8      9     10
         11     12     13     14     15     16     17     18     19     20
         21     22     23     24     25     26     27     28     29     30
 .........................................................................
   1  ****** ****** ****** ****** ****** ****** ****** ****** ****** ******
      ****** ****** ****** ****** ****** ****** ****** ****** ****** ******
      ****** ****** ****** ****** ****** ****** ****** ****** ****** ******
   2  ****** ****** ****** ****** ****** ****** ****** ****** ****** ******
      ****** ****** ****** ****** ****** ****** ****** ****** ****** ******
      ****** ****** ****** ****** ****** ****** ****** ****** ****** ******
   3  ****** ****** ****** ****** ****** ****** ****** ****** ****** ******
      ****** ****** ****** ****** ****** ****** ****** ****** ****** ******
      ****** ****** ****** ****** ****** ****** ****** ****** ****** ******
   4  ****** ****** ****** ****** ****** ****** ****** ****** ****** ******
      ****** ****** ****** ****** ****** ****** ****** ****** ****** ******
      ****** ****** ****** ****** ****** ****** ****** ****** ****** ******
   5  ****** ****** ****** ****** ****** ****** ****** ****** ****** ******
      ****** ****** ****** ****** ****** ****** ****** ****** ****** ******
      ****** ****** ****** ****** ****** ****** ****** ****** ****** ******
   6  ****** ****** ****** ****** ****** ****** ****** ****** ****** ******
      ****** ****** ****** ****** ****** ****** ****** ****** ****** ******
      ****** ****** ****** ****** ****** ****** ****** ****** ****** ******
   7  ****** ****** ****** ****** ****** ****** ****** ****** ****** ******
      ****** ****** ****** ****** ****** ****** ****** ****** ****** ******
      ****** ****** ****** ****** ****** ****** ****** ****** ****** ******
   8  ****** ****** ****** ****** ****** ****** ****** ****** ****** ******
      ****** ****** ****** ****** ****** ****** ****** ****** ****** ******
      ****** ****** ****** ****** ****** ****** ****** ****** ****** ******
   9  ****** ****** ****** ****** ****** ****** ****** ****** ****** ******
      ****** ****** ****** ****** ****** ****** ****** ****** ****** ******
      ****** ****** ****** ****** ****** ****** ****** ****** ****** ******
  10  ****** ****** ****** ****** ****** ****** ****** ****** ****** ******
      ****** ****** ****** ****** ****** ****** ****** ****** ****** ******
      ****** ****** ****** ****** ****** ****** ****** ****** ****** ******
  11  ****** ****** ****** ****** ****** ****** ****** ****** ****** ******
      ****** ****** ****** ****** ****** ****** ****** ****** ****** ******
      ****** ****** ****** ****** ****** ****** ****** ****** ****** ******
  12  ****** ****** ****** ****** ****** ****** ****** ****** ****** ******
      ****** ****** ****** ****** ****** ****** ****** ****** ****** ******
      ****** ****** ****** ****** ****** ****** ****** ****** ****** ******
  13  ****** ****** ****** ****** ****** ****** ****** ****** ****** ******
      ****** ****** ****** ****** ****** ****** ****** ****** ****** ******
      ****** ****** ****** ****** ****** ****** ****** ****** ****** ******
  14  ****** ****** ****** ****** ****** ****** ****** ****** ****** ******
      ****** ****** ****** ****** ****** ****** ****** ****** ****** ******
      ****** ****** ****** ****** ****** ****** ****** ****** ****** ******
  15  ****** ****** ****** ****** ****** ****** ****** ****** ****** ******
      ****** ****** ****** ****** ****** ****** ****** ****** ****** ******
      ****** ****** ****** ****** ****** ****** ****** ****** ****** ******
  16  ****** ****** ****** ****** ****** ****** ****** ****** ****** ******
      ****** ****** ****** ****** ****** ****** ****** ****** ****** ******
      ****** ****** ****** ****** ****** ****** ****** ****** ****** ******
  17  ****** ****** ****** ****** ****** ****** ****** ****** ****** ******
      ****** ****** ****** ****** ****** ****** ****** ****** ****** ******
      ****** ****** ****** ****** ****** ****** ****** ****** ****** ******
  18  ****** ****** ****** ****** ****** ****** ****** ****** ****** ******
      ****** ****** ****** ****** ****** ****** ****** ****** ****** ******
      ****** ****** ****** ****** ****** ****** ****** ****** ****** ******
  19  ****** ****** ****** ****** ****** ****** ****** ****** ****** ******
      ****** ****** ****** ****** ****** ****** ****** ****** ****** ******
      ****** ****** ****** ****** ****** ****** ****** ****** ****** ******
  20  ****** ****** ****** ****** ****** ****** ****** ****** ****** ******
      ****** ****** ****** ****** ****** ****** ****** ****** ****** ******
      ****** ****** ****** ****** ****** ****** ****** ****** ****** ******
  21  ****** ****** ****** ****** ****** ****** ****** ****** ****** ******
      ****** ****** ****** ****** ****** ****** ****** ****** ****** ******
      ****** ****** ****** ****** ****** ****** ****** ****** ****** ******
  22  ****** ****** ****** ****** ****** ****** ****** ****** ****** ******
      ****** ****** ****** ****** ****** ****** ****** ****** ****** ******
      ****** ****** ****** ****** ****** ****** ****** ****** ****** ******
  23  ****** ****** ****** ****** ****** ****** ****** ****** ****** ******
      ****** ****** ****** ****** ****** ****** ****** ****** ****** ******
      ****** ****** ****** ****** ****** ****** ****** ****** ****** ******
  24  ****** ****** ****** ****** ****** ****** ****** ****** ****** ******
      ****** ****** ****** ****** ****** ****** ****** ****** ****** ******
      ****** ****** ****** ****** ****** ****** ****** ****** ****** ******
  25  ****** ****** ****** ****** ****** ****** ****** ****** ****** ******
      ****** ****** ****** ****** ****** ****** ****** ****** ****** ******
      ****** ****** ****** ****** ****** ****** ****** ****** ****** ******

 HEAD WILL BE SAVED ON UNIT   51 AT END OF TIME STEP    1, STRESS PERIOD    2
1
  VOLUMETRIC BUDGET FOR ENTIRE MODEL AT END OF TIME STEP    1, STRESS PERIOD   2
  ------------------------------------------------------------------------------

     CUMULATIVE VOLUMES      L**3       RATES FOR THIS TIME STEP      L**3/T
     ------------------                 ------------------------

           IN:                                      IN:
           ---                                      ---
             STORAGE =    20463022.9217               STORAGE =       32979.6120
       CONSTANT HEAD =    28430212.1828         CONSTANT HEAD =      165856.4036
               WELLS =           0.0000                 WELLS =           0.0000
            RECHARGE =     6292800.0000              RECHARGE =       55200.0000
      STREAM LEAKAGE =     1062653.4000        STREAM LEAKAGE =        6501.3537

            TOTAL IN =    56248688.5045              TOTAL IN =      260537.3692

          OUT:                                     OUT:
          ----                                     ----
             STORAGE =           0.0000               STORAGE =           0.0000
       CONSTANT HEAD =           0.0000         CONSTANT HEAD =           0.0000
               WELLS =    18943480.8232                 WELLS =      103516.2887
            RECHARGE =           0.0000              RECHARGE =           0.0000
      STREAM LEAKAGE =    37305208.2721        STREAM LEAKAGE =      157021.0855

           TOTAL OUT =    56248689.0953             TOTAL OUT =      260537.3742

            IN - OUT =          -0.5908              IN - OUT =      -4.9801E-03

 PERCENT DISCREPANCY =          -0.00     PERCENT DISCREPANCY =          -0.00






         TIME SUMMARY AT END OF TIME STEP    1 IN STRESS PERIOD    2
                    SECONDS     MINUTES      HOURS       DAYS        YEARS
                    -----------------------------------------------------------
   TIME STEP LENGTH 7.86240E+06 1.31040E+05  2184.0      91.000     0.24914    
 STRESS PERIOD TIME 7.86240E+06 1.31040E+05  2184.0      91.000     0.24914    
         TOTAL TIME 1.58112E+07 2.63520E+05  4392.0      183.00     0.50103    
1
1
                            STRESS PERIOD NO.    3, LENGTH =   91.00000    
                            -----------------------------------------------

                              NUMBER OF TIME STEPS =     1

                               MULTIPLIER FOR DELT =     1.500

                            INITIAL TIME STEP SIZE =   91.00000    

 WELL NO.  LAYER   ROW   COL   STRESS RATE         
 --------------------------------------------------
      1      1     23     29     -0.3033E+05
      2      1     23      8     -0.3444E+05
      3      1     23     22     -0.3874E+05

      3 WELLS

                 RECHARGE =   0.00000    

 REUSING STREAM SEGMENT DATA FROM LAST STRESS PERIOD
 
 SOLVING FOR HEAD 


     7 CALLS TO PCG ROUTINE FOR TIME STEP   1 IN STRESS PERIOD    3
    27 TOTAL ITERATIONS

 OUTPUT CONTROL FOR STRESS PERIOD    3   TIME STEP    1
    SAVE BUDGET
    SAVE HEAD FOR ALL LAYERS
    PRINT HEAD FOR ALL LAYERS
 UBDSV2 SAVING "STREAMFLOW OUT  " ON UNIT  50 AT TIME STEP  1, STRESS PERIOD   3



 STREAM LISTING     PERIOD      3   STEP        1

 LAYER ROW COL. STREAM  RCH.  FLOW INTO     FLOW TO   FLOW OUT OF   OVRLND.     DIRECT     STREAM       STREAM     STREAM     STREAM   STREAMBED  STREAMBED
                SEG.NO.  NO.  STRM. RCH.    AQUIFER    STRM. RCH.    RUNOFF     PRECIP       ET          HEAD       DEPTH      WIDTH   CONDCTNC.   GRADIENT

   1   13    1     1     1    1.0000E+05 -2.8253E+03   1.0283E+05  0.000E+00  0.000E+00  0.000E+00  4.84072E+01  1.459E-01  2.000E+01  2.000E+04 -1.413E-01
   1   13    2     1     2    1.0283E+05 -4.8652E+03   1.0769E+05  0.000E+00  0.000E+00  0.000E+00  4.79333E+01  1.492E-01  2.000E+01  2.000E+04 -2.433E-01
   1   14    3     1     3    1.0769E+05 -3.6955E+03   1.1139E+05  0.000E+00  0.000E+00  0.000E+00  4.74596E+01  1.528E-01  2.000E+01  2.000E+04 -1.848E-01
   1   15    4     1     4    1.1139E+05 -3.3994E+03   1.1479E+05  0.000E+00  0.000E+00  0.000E+00  4.69853E+01  1.557E-01  2.000E+01  2.000E+04 -1.700E-01
   1   16    5     1     5    1.1479E+05 -3.2519E+03   1.1804E+05  0.000E+00  0.000E+00  0.000E+00  4.65107E+01  1.585E-01  2.000E+01  2.000E+04 -1.626E-01
   1   16    6     1     6    1.1804E+05 -2.5904E+03   1.2063E+05  0.000E+00  0.000E+00  0.000E+00  4.60358E+01  1.608E-01  2.000E+01  2.000E+04 -1.295E-01
   1   16    7     1     7    1.2063E+05 -2.6273E+03   1.2326E+05  0.000E+00  0.000E+00  0.000E+00  4.55607E+01  1.629E-01  2.000E+01  2.000E+04 -1.314E-01
   1   16    8     1     8    1.2326E+05 -2.6556E+03   1.2591E+05  0.000E+00  0.000E+00  0.000E+00  4.50855E+01  1.650E-01  2.000E+01  2.000E+04 -1.328E-01
   1   16    9     1     9    1.2591E+05 -2.6816E+03   1.2859E+05  0.000E+00  0.000E+00  0.000E+00  4.46103E+01  1.672E-01  2.000E+01  2.000E+04 -1.341E-01
   1   16   10     1    10    1.2859E+05 -2.6993E+03   1.3129E+05  0.000E+00  0.000E+00  0.000E+00  4.41352E+01  1.693E-01  2.000E+01  2.000E+04 -1.350E-01
   1   16   11     1    11    1.3129E+05 -2.7056E+03   1.3400E+05  0.000E+00  0.000E+00  0.000E+00  4.36600E+01  1.714E-01  2.000E+01  2.000E+04 -1.353E-01
   1   16   12     1    12    1.3400E+05 -3.5593E+03   1.3756E+05  0.000E+00  0.000E+00  0.000E+00  4.31852E+01  1.738E-01  2.000E+01  2.000E+04 -1.780E-01
   1   15   13     1    13    1.3756E+05 -3.6258E+03   1.4118E+05  0.000E+00  0.000E+00  0.000E+00  4.27106E+01  1.765E-01  2.000E+01  2.000E+04 -1.813E-01
   1   14   14     1    14    1.4118E+05 -3.8246E+03   1.4501E+05  0.000E+00  0.000E+00  0.000E+00  4.22362E+01  1.793E-01  2.000E+01  2.000E+04 -1.912E-01
   1   13   15     1    15    1.4501E+05 -4.2092E+03   1.4922E+05  0.000E+00  0.000E+00  0.000E+00  4.17619E+01  1.824E-01  2.000E+01  2.000E+04 -2.105E-01
   1   12   16     1    16    1.4922E+05 -5.5313E+03   1.5475E+05  0.000E+00  0.000E+00  0.000E+00  4.12882E+01  1.860E-01  2.000E+01  2.000E+04 -2.766E-01
   1   12   17     1    17    1.5475E+05 -3.5538E+03   1.5830E+05  0.000E+00  0.000E+00  0.000E+00  4.08143E+01  1.893E-01  2.000E+01  2.000E+04 -1.777E-01
   1   12   18     1    18    1.5830E+05 -3.3955E+03   1.6170E+05  0.000E+00  0.000E+00  0.000E+00  4.03395E+01  1.918E-01  2.000E+01  2.000E+04 -1.698E-01
   1   12   19     1    19    1.6170E+05 -4.4766E+03   1.6617E+05  0.000E+00  0.000E+00  0.000E+00  3.98650E+01  1.946E-01  2.000E+01  2.000E+04 -2.238E-01
   1   13   20     1    20    1.6617E+05 -2.7275E+03   1.6890E+05  0.000E+00  0.000E+00  0.000E+00  3.93903E+01  1.971E-01  2.000E+01  2.000E+04 -1.364E-01
   1   14   21     1    21    1.6890E+05 -1.6679E+03   1.7057E+05  0.000E+00  0.000E+00  0.000E+00  3.89146E+01  1.987E-01  2.000E+01  2.000E+04 -8.340E-02
   1   14   22     1    22    1.7057E+05  5.1445E+03   1.6542E+05  0.000E+00  0.000E+00  0.000E+00  3.84361E+01  1.975E-01  2.000E+01  2.000E+04  2.572E-01
   1    9   30     2     1    5.0000E+04 -2.6882E+03   5.2688E+04  0.000E+00  0.000E+00  0.000E+00  4.02427E+01  1.177E-01  2.000E+01  2.000E+04 -1.344E-01
   1    9   29     2     2    5.2688E+04 -3.0226E+03   5.5711E+04  0.000E+00  0.000E+00  0.000E+00  3.99966E+01  1.216E-01  2.000E+01  2.000E+04 -1.511E-01
   1    9   28     2     3    5.5711E+04 -3.4100E+03   5.9121E+04  0.000E+00  0.000E+00  0.000E+00  3.97509E+01  1.259E-01  2.000E+01  2.000E+04 -1.705E-01
   1    9   27     2     4    5.9121E+04 -6.1559E+03   6.5277E+04  0.000E+00  0.000E+00  0.000E+00  3.95071E+01  1.321E-01  2.000E+01  2.000E+04 -3.078E-01
   1   10   26     2     5    6.5277E+04 -3.7662E+03   6.9043E+04  0.000E+00  0.000E+00  0.000E+00  3.92633E+01  1.383E-01  2.000E+01  2.000E+04 -1.883E-01
   1   11   25     2     6    6.9043E+04 -2.7190E+03   7.1762E+04  0.000E+00  0.000E+00  0.000E+00  3.90173E+01  1.423E-01  2.000E+01  2.000E+04 -1.359E-01
   1   12   24     2     7    7.1762E+04 -1.8710E+03   7.3633E+04  0.000E+00  0.000E+00  0.000E+00  3.87700E+01  1.450E-01  2.000E+01  2.000E+04 -9.355E-02
   1   13   23     2     8    7.3633E+04 -1.0518E+03   7.4685E+04  0.000E+00  0.000E+00  0.000E+00  3.85218E+01  1.468E-01  2.000E+01  2.000E+04 -5.259E-02
   1   14   22     2     9    7.4685E+04  1.8485E+03   7.2836E+04  0.000E+00  0.000E+00  0.000E+00  3.82713E+01  1.463E-01  2.000E+01  2.000E+04  9.242E-02
   1   14   22     3     1    2.3826E+05 -8.3824E+03   2.4664E+05  0.000E+00  0.000E+00  0.000E+00  3.77598E+01  2.042E-01  2.000E+01  2.000E+04 -4.191E-01
   1   15   23     3     2    2.4664E+05 -1.8764E+03   2.4852E+05  0.000E+00  0.000E+00  0.000E+00  3.68735E+01  2.068E-01  2.000E+01  2.000E+04 -9.382E-02
   1   15   24     3     3    2.4852E+05 -1.3084E+03   2.4983E+05  0.000E+00  0.000E+00  0.000E+00  3.59854E+01  2.076E-01  2.000E+01  2.000E+04 -6.542E-02
   1   15   25     3     4    2.4983E+05 -1.2858E+03   2.5111E+05  0.000E+00  0.000E+00  0.000E+00  3.50971E+01  2.082E-01  2.000E+01  2.000E+04 -6.429E-02
   1   15   26     3     5    2.5111E+05 -1.7896E+03   2.5290E+05  0.000E+00  0.000E+00  0.000E+00  3.42090E+01  2.090E-01  2.000E+01  2.000E+04 -8.948E-02
   1   16   27     3     6    2.5290E+05 -2.1028E+03   2.5501E+05  0.000E+00  0.000E+00  0.000E+00  3.33211E+01  2.100E-01  2.000E+01  2.000E+04 -1.051E-01
   1   17   28     3     7    2.5501E+05 -2.3191E+03   2.5732E+05  0.000E+00  0.000E+00  0.000E+00  3.24333E+01  2.111E-01  2.000E+01  2.000E+04 -1.160E-01
   1   18   29     3     8    2.5732E+05 -2.4878E+03   2.5981E+05  0.000E+00  0.000E+00  0.000E+00  3.15456E+01  2.122E-01  2.000E+01  2.000E+04 -1.244E-01
   1   18   30     3     9    2.5981E+05 -2.4971E+03   2.6231E+05  0.000E+00  0.000E+00  0.000E+00  3.06579E+01  2.135E-01  2.000E+01  2.000E+04 -1.249E-01



1
              HEAD IN LAYER   1 AT END OF TIME STEP   1 IN STRESS PERIOD    3
  ---------------------------------------------------------------------------

          1      2      3      4      5      6      7      8      9     10
         11     12     13     14     15     16     17     18     19     20
         21     22     23     24     25     26     27     28     29     30
 .........................................................................
   1  ****** ****** ****** ****** ****** ****** ****** ****** ****** ******
      ****** ****** ****** ****** ****** ****** ****** ****** ****** ******
      ****** ****** ****** ****** ****** ****** ****** ****** ****** ******
   2  ****** ****** ****** ****** ****** ****** ****** ****** ****** ******
      ****** ****** ****** ****** ****** ****** ****** ****** ****** ******
      ****** ****** ****** ****** ****** ****** ****** ****** ****** ******
   3  ****** ****** ****** ****** ****** ****** ****** ****** ****** ******
      ****** ****** ****** ****** ****** ****** ****** ****** ****** ******
      ****** ****** ****** ****** ****** ****** ****** ****** ****** ******
   4  ****** ****** ****** ****** ****** ****** ****** ****** ****** ******
      ****** ****** ****** ****** ****** ****** ****** ****** ****** ******
      ****** ****** ****** ****** ****** ****** ****** ****** ****** ******
   5  ****** ****** ****** ****** ****** ****** ****** ****** ****** ******
      ****** ****** ****** ****** ****** ****** ****** ****** ****** ******
      ****** ****** ****** ****** ****** ****** ****** ****** ****** ******
   6  ****** ****** ****** ****** ****** ****** ****** ****** ****** ******
      ****** ****** ****** ****** ****** ****** ****** ****** ****** ******
      ****** ****** ****** ****** ****** ****** ****** ****** ****** ******
   7  ****** ****** ****** ****** ****** ****** ****** ****** ****** ******
      ****** ****** ****** ****** ****** ****** ****** ****** ****** ******
      ****** ****** ****** ****** ****** ****** ****** ****** ****** ******
   8  ****** ****** ****** ****** ****** ****** ****** ****** ****** ******
      ****** ****** ****** ****** ****** ****** ****** ****** ****** ******
      ****** ****** ****** ****** ****** ****** ****** ****** ****** ******
   9  ****** ****** ****** ****** ****** ****** ****** ****** ****** ******
      ****** ****** ****** ****** ****** ****** ****** ****** ****** ******
      ****** ****** ****** ****** ****** ****** ****** ****** ****** ******
  10  ****** ****** ****** ****** ****** ****** ****** ****** ****** ******
      ****** ****** ****** ****** ****** ****** ****** ****** ****** ******
      ****** ****** ****** ****** ****** ****** ****** ****** ****** ******
  11  ****** ****** ****** ****** ****** ****** ****** ****** ****** ******
      ****** ****** ****** ****** ****** ****** ****** ****** ****** ******
      ****** ****** ****** ****** ****** ****** ****** ****** ****** ******
  12  ****** ****** ****** ****** ****** ****** ****** ****** ****** ******
      ****** ****** ****** ****** ****** ****** ****** ****** ****** ******
      ****** ****** ****** ****** ****** ****** ****** ****** ****** ******
  13  ****** ****** ****** ****** ****** ****** ****** ****** ****** ******
      ****** ****** ****** ****** ****** ****** ****** ****** ****** ******
      ****** ****** ****** ****** ****** ****** ****** ****** ****** ******
  14  ****** ****** ****** ****** ****** ****** ****** ****** ****** ******
      ****** ****** ****** ****** ****** ****** ****** ****** ****** ******
      ****** ****** ****** ****** ****** ****** ****** ****** ****** ******
  15  ****** ****** ****** ****** ****** ****** ****** ****** ****** ******
      ****** ****** ****** ****** ****** ****** ****** ****** ****** ******
      ****** ****** ****** ****** ****** ****** ****** ****** ****** ******
  16  ****** ****** ****** ****** ****** ****** ****** ****** ****** ******
      ****** ****** ****** ****** ****** ****** ****** ****** ****** ******
      ****** ****** ****** ****** ****** ****** ****** ****** ****** ******
  17  ****** ****** ****** ****** ****** ****** ****** ****** ****** ******
      ****** ****** ****** ****** ****** ****** ****** ****** ****** ******
      ****** ****** ****** ****** ****** ****** ****** ****** ****** ******
  18  ****** ****** ****** ****** ****** ****** ****** ****** ****** ******
      ****** ****** ****** ****** ****** ****** ****** ****** ****** ******
      ****** ****** ****** ****** ****** ****** ****** ****** ****** ******
  19  ****** ****** ****** ****** ****** ****** ****** ****** ****** ******
      ****** ****** ****** ****** ****** ****** ****** ****** ****** ******
      ****** ****** ****** ****** ****** ****** ****** ****** ****** ******
  20  ****** ****** ****** ****** ****** ****** ****** ****** ****** ******
      ****** ****** ****** ****** ****** ****** ****** ****** ****** ******
      ****** ****** ****** ****** ****** ****** ****** ****** ****** ******
  21  ****** ****** ****** ****** ****** ****** ****** ****** ****** ******
      ****** ****** ****** ****** ****** ****** ****** ****** ****** ******
      ****** ****** ****** ****** ****** ****** ****** ****** ****** ******
  22  ****** ****** ****** ****** ****** ****** ****** ****** ****** ******
      ****** ****** ****** ****** ****** ****** ****** ****** ****** ******
      ****** ****** ****** ****** ****** ****** ****** ****** ****** ******
  23  ****** ****** ****** ****** ****** ****** ****** ****** ****** ******
      ****** ****** ****** ****** ****** ****** ****** ****** ****** ******
      ****** ****** ****** ****** ****** ****** ****** ****** ****** ******
  24  ****** ****** ****** ****** ****** ****** ****** ****** ****** ******
      ****** ****** ****** ****** ****** ****** ****** ****** ****** ******
      ****** ****** ****** ****** ****** ****** ****** ****** ****** ******
  25  ****** ****** ****** ****** ****** ****** ****** ****** ****** ******
      ****** ****** ****** ****** ****** ****** ****** ****** ****** ******
      ****** ****** ****** ****** ****** ****** ****** ****** ****** ******

 HEAD WILL BE SAVED ON UNIT   51 AT END OF TIME STEP    1, STRESS PERIOD    3
1
  VOLUMETRIC BUDGET FOR ENTIRE MODEL AT END OF TIME STEP    1, STRESS PERIOD   3
  ------------------------------------------------------------------------------

     CUMULATIVE VOLUMES      L**3       RATES FOR THIS TIME STEP      L**3/T
     ------------------                 ------------------------

           IN:                                      IN:
           ---                                      ---
             STORAGE =    22828323.8687               STORAGE =       25992.3181
       CONSTANT HEAD =    45705086.6406         CONSTANT HEAD =      189833.7853
               WELLS =           0.0000                 WELLS =           0.0000
            RECHARGE =     6292800.0000              RECHARGE =           0.0000
      STREAM LEAKAGE =     1699016.2833        STREAM LEAKAGE =        6992.9987

            TOTAL IN =    76525226.7926              TOTAL IN =      222819.1021

          OUT:                                     OUT:
          ----                                     ----
             STORAGE =           0.0000               STORAGE =           0.0000
       CONSTANT HEAD =           0.0000         CONSTANT HEAD =           0.0000
               WELLS =    28363463.0904                 WELLS =      103516.2887
            RECHARGE =           0.0000              RECHARGE =           0.0000
      STREAM LEAKAGE =    48161764.5284        STREAM LEAKAGE =      119302.8160

           TOTAL OUT =    76525227.6188             TOTAL OUT =      222819.1047

            IN - OUT =          -0.8263              IN - OUT =      -2.5880E-03

 PERCENT DISCREPANCY =          -0.00     PERCENT DISCREPANCY =          -0.00






         TIME SUMMARY AT END OF TIME STEP    1 IN STRESS PERIOD    3
                    SECONDS     MINUTES      HOURS       DAYS        YEARS
                    -----------------------------------------------------------
   TIME STEP LENGTH 7.86240E+06 1.31040E+05  2184.0      91.000     0.24914    
 STRESS PERIOD TIME 7.86240E+06 1.31040E+05  2184.0      91.000     0.24914    
         TOTAL TIME 2.36736E+07 3.94560E+05  6576.0      274.00     0.75017    
1
1
                            STRESS PERIOD NO.    4, LENGTH =   91.00000    
                            -----------------------------------------------

                              NUMBER OF TIME STEPS =     1

                               MULTIPLIER FOR DELT =     1.500

                            INITIAL TIME STEP SIZE =   91.00000    

 WELL NO.  LAYER   ROW   COL   STRESS RATE         
 --------------------------------------------------
      1      1     23     29     -0.3033E+05
      2      1     23      8     -0.3444E+05
      3      1     23     22     -0.3874E+05

      3 WELLS

                 RECHARGE =  1.000000E-03

 REUSING STREAM SEGMENT DATA FROM LAST STRESS PERIOD
 
 SOLVING FOR HEAD 


     6 CALLS TO PCG ROUTINE FOR TIME STEP   1 IN STRESS PERIOD    4
    21 TOTAL ITERATIONS

 OUTPUT CONTROL FOR STRESS PERIOD    4   TIME STEP    1
    SAVE BUDGET
    SAVE HEAD FOR ALL LAYERS
    PRINT HEAD FOR ALL LAYERS
 UBDSV2 SAVING "STREAMFLOW OUT  " ON UNIT  50 AT TIME STEP  1, STRESS PERIOD   4



 STREAM LISTING     PERIOD      4   STEP        1

 LAYER ROW COL. STREAM  RCH.  FLOW INTO     FLOW TO   FLOW OUT OF   OVRLND.     DIRECT     STREAM       STREAM     STREAM     STREAM   STREAMBED  STREAMBED
                SEG.NO.  NO.  STRM. RCH.    AQUIFER    STRM. RCH.    RUNOFF     PRECIP       ET          HEAD       DEPTH      WIDTH   CONDCTNC.   GRADIENT

   1   13    1     1     1    1.0000E+05 -2.8439E+03   1.0284E+05  0.000E+00  0.000E+00  0.000E+00  4.84072E+01  1.459E-01  2.000E+01  2.000E+04 -1.422E-01
   1   13    2     1     2    1.0284E+05 -4.8558E+03   1.0770E+05  0.000E+00  0.000E+00  0.000E+00  4.79333E+01  1.492E-01  2.000E+01  2.000E+04 -2.428E-01
   1   14    3     1     3    1.0770E+05 -3.7346E+03   1.1143E+05  0.000E+00  0.000E+00  0.000E+00  4.74596E+01  1.528E-01  2.000E+01  2.000E+04 -1.867E-01
   1   15    4     1     4    1.1143E+05 -3.4506E+03   1.1488E+05  0.000E+00  0.000E+00  0.000E+00  4.69853E+01  1.558E-01  2.000E+01  2.000E+04 -1.725E-01
   1   16    5     1     5    1.1488E+05 -3.3020E+03   1.1819E+05  0.000E+00  0.000E+00  0.000E+00  4.65108E+01  1.586E-01  2.000E+01  2.000E+04 -1.651E-01
   1   16    6     1     6    1.1819E+05 -2.6304E+03   1.2082E+05  0.000E+00  0.000E+00  0.000E+00  4.60360E+01  1.610E-01  2.000E+01  2.000E+04 -1.315E-01
   1   16    7     1     7    1.2082E+05 -2.6641E+03   1.2348E+05  0.000E+00  0.000E+00  0.000E+00  4.55608E+01  1.631E-01  2.000E+01  2.000E+04 -1.332E-01
   1   16    8     1     8    1.2348E+05 -2.6903E+03   1.2617E+05  0.000E+00  0.000E+00  0.000E+00  4.50857E+01  1.652E-01  2.000E+01  2.000E+04 -1.345E-01
   1   16    9     1     9    1.2617E+05 -2.7153E+03   1.2889E+05  0.000E+00  0.000E+00  0.000E+00  4.46106E+01  1.674E-01  2.000E+01  2.000E+04 -1.358E-01
   1   16   10     1    10    1.2889E+05 -2.7330E+03   1.3162E+05  0.000E+00  0.000E+00  0.000E+00  4.41354E+01  1.695E-01  2.000E+01  2.000E+04 -1.367E-01
   1   16   11     1    11    1.3162E+05 -2.7391E+03   1.3436E+05  0.000E+00  0.000E+00  0.000E+00  4.36603E+01  1.716E-01  2.000E+01  2.000E+04 -1.370E-01
   1   16   12     1    12    1.3436E+05 -3.5849E+03   1.3794E+05  0.000E+00  0.000E+00  0.000E+00  4.31854E+01  1.741E-01  2.000E+01  2.000E+04 -1.792E-01
   1   15   13     1    13    1.3794E+05 -3.6547E+03   1.4160E+05  0.000E+00  0.000E+00  0.000E+00  4.27109E+01  1.768E-01  2.000E+01  2.000E+04 -1.827E-01
   1   14   14     1    14    1.4160E+05 -3.8497E+03   1.4545E+05  0.000E+00  0.000E+00  0.000E+00  4.22365E+01  1.797E-01  2.000E+01  2.000E+04 -1.925E-01
   1   13   15     1    15    1.4545E+05 -4.2336E+03   1.4968E+05  0.000E+00  0.000E+00  0.000E+00  4.17622E+01  1.827E-01  2.000E+01  2.000E+04 -2.117E-01
   1   12   16     1    16    1.4968E+05 -5.5353E+03   1.5522E+05  0.000E+00  0.000E+00  0.000E+00  4.12886E+01  1.863E-01  2.000E+01  2.000E+04 -2.768E-01
   1   12   17     1    17    1.5522E+05 -3.5853E+03   1.5880E+05  0.000E+00  0.000E+00  0.000E+00  4.08146E+01  1.896E-01  2.000E+01  2.000E+04 -1.793E-01
   1   12   18     1    18    1.5880E+05 -3.4348E+03   1.6224E+05  0.000E+00  0.000E+00  0.000E+00  4.03399E+01  1.922E-01  2.000E+01  2.000E+04 -1.717E-01
   1   12   19     1    19    1.6224E+05 -4.5329E+03   1.6677E+05  0.000E+00  0.000E+00  0.000E+00  3.98655E+01  1.950E-01  2.000E+01  2.000E+04 -2.266E-01
   1   13   20     1    20    1.6677E+05 -2.8042E+03   1.6957E+05  0.000E+00  0.000E+00  0.000E+00  3.93908E+01  1.976E-01  2.000E+01  2.000E+04 -1.402E-01
   1   14   21     1    21    1.6957E+05 -1.7116E+03   1.7129E+05  0.000E+00  0.000E+00  0.000E+00  3.89151E+01  1.992E-01  2.000E+01  2.000E+04 -8.558E-02
   1   14   22     1    22    1.7129E+05  5.1142E+03   1.6617E+05  0.000E+00  0.000E+00  0.000E+00  3.84366E+01  1.980E-01  2.000E+01  2.000E+04  2.557E-01
   1    9   30     2     1    5.0000E+04 -2.8004E+03   5.2800E+04  0.000E+00  0.000E+00  0.000E+00  4.02428E+01  1.178E-01  2.000E+01  2.000E+04 -1.400E-01
   1    9   29     2     2    5.2800E+04 -3.1332E+03   5.5934E+04  0.000E+00  0.000E+00  0.000E+00  3.99968E+01  1.218E-01  2.000E+01  2.000E+04 -1.567E-01
   1    9   28     2     3    5.5934E+04 -3.5165E+03   5.9450E+04  0.000E+00  0.000E+00  0.000E+00  3.97513E+01  1.263E-01  2.000E+01  2.000E+04 -1.758E-01
   1    9   27     2     4    5.9450E+04 -6.2665E+03   6.5717E+04  0.000E+00  0.000E+00  0.000E+00  3.95076E+01  1.326E-01  2.000E+01  2.000E+04 -3.133E-01
   1   10   26     2     5    6.5717E+04 -3.8950E+03   6.9612E+04  0.000E+00  0.000E+00  0.000E+00  3.92639E+01  1.389E-01  2.000E+01  2.000E+04 -1.948E-01
   1   11   25     2     6    6.9612E+04 -2.8488E+03   7.2460E+04  0.000E+00  0.000E+00  0.000E+00  3.90180E+01  1.430E-01  2.000E+01  2.000E+04 -1.424E-01
   1   12   24     2     7    7.2460E+04 -1.9978E+03   7.4458E+04  0.000E+00  0.000E+00  0.000E+00  3.87709E+01  1.459E-01  2.000E+01  2.000E+04 -9.989E-02
   1   13   23     2     8    7.4458E+04 -1.1656E+03   7.5624E+04  0.000E+00  0.000E+00  0.000E+00  3.85228E+01  1.478E-01  2.000E+01  2.000E+04 -5.828E-02
   1   14   22     2     9    7.5624E+04  1.8303E+03   7.3793E+04  0.000E+00  0.000E+00  0.000E+00  3.82724E+01  1.474E-01  2.000E+01  2.000E+04  9.152E-02
   1   14   22     3     1    2.3997E+05 -8.4057E+03   2.4837E+05  0.000E+00  0.000E+00  0.000E+00  3.77606E+01  2.051E-01  2.000E+01  2.000E+04 -4.203E-01
   1   15   23     3     2    2.4837E+05 -1.9117E+03   2.5028E+05  0.000E+00  0.000E+00  0.000E+00  3.68743E+01  2.077E-01  2.000E+01  2.000E+04 -9.558E-02
   1   15   24     3     3    2.5028E+05 -1.3689E+03   2.5165E+05  0.000E+00  0.000E+00  0.000E+00  3.59863E+01  2.085E-01  2.000E+01  2.000E+04 -6.845E-02
   1   15   25     3     4    2.5165E+05 -1.3631E+03   2.5301E+05  0.000E+00  0.000E+00  0.000E+00  3.50981E+01  2.092E-01  2.000E+01  2.000E+04 -6.816E-02
   1   15   26     3     5    2.5301E+05 -1.9061E+03   2.5492E+05  0.000E+00  0.000E+00  0.000E+00  3.42100E+01  2.100E-01  2.000E+01  2.000E+04 -9.531E-02
   1   16   27     3     6    2.5492E+05 -2.2141E+03   2.5713E+05  0.000E+00  0.000E+00  0.000E+00  3.33221E+01  2.110E-01  2.000E+01  2.000E+04 -1.107E-01
   1   17   28     3     7    2.5713E+05 -2.4240E+03   2.5956E+05  0.000E+00  0.000E+00  0.000E+00  3.24344E+01  2.121E-01  2.000E+01  2.000E+04 -1.212E-01
   1   18   29     3     8    2.5956E+05 -2.5659E+03   2.6212E+05  0.000E+00  0.000E+00  0.000E+00  3.15467E+01  2.134E-01  2.000E+01  2.000E+04 -1.283E-01
   1   18   30     3     9    2.6212E+05 -2.5807E+03   2.6471E+05  0.000E+00  0.000E+00  0.000E+00  3.06591E+01  2.146E-01  2.000E+01  2.000E+04 -1.290E-01



1
              HEAD IN LAYER   1 AT END OF TIME STEP   1 IN STRESS PERIOD    4
  ---------------------------------------------------------------------------

          1      2      3      4      5      6      7      8      9     10
         11     12     13     14     15     16     17     18     19     20
         21     22     23     24     25     26     27     28     29     30
 .........................................................................
   1  ****** ****** ****** ****** ****** ****** ****** ****** ****** ******
      ****** ****** ****** ****** ****** ****** ****** ****** ****** ******
      ****** ****** ****** ****** ****** ****** ****** ****** ****** ******
   2  ****** ****** ****** ****** ****** ****** ****** ****** ****** ******
      ****** ****** ****** ****** ****** ****** ****** ****** ****** ******
      ****** ****** ****** ****** ****** ****** ****** ****** ****** ******
   3  ****** ****** ****** ****** ****** ****** ****** ****** ****** ******
      ****** ****** ****** ****** ****** ****** ****** ****** ****** ******
      ****** ****** ****** ****** ****** ****** ****** ****** ****** ******
   4  ****** ****** ****** ****** ****** ****** ****** ****** ****** ******
      ****** ****** ****** ****** ****** ****** ****** ****** ****** ******
      ****** ****** ****** ****** ****** ****** ****** ****** ****** ******
   5  ****** ****** ****** ****** ****** ****** ****** ****** ****** ******
      ****** ****** ****** ****** ****** ****** ****** ****** ****** ******
      ****** ****** ****** ****** ****** ****** ****** ****** ****** ******
   6  ****** ****** ****** ****** ****** ****** ****** ****** ****** ******
      ****** ****** ****** ****** ****** ****** ****** ****** ****** ******
      ****** ****** ****** ****** ****** ****** ****** ****** ****** ******
   7  ****** ****** ****** ****** ****** ****** ****** ****** ****** ******
      ****** ****** ****** ****** ****** ****** ****** ****** ****** ******
      ****** ****** ****** ****** ****** ****** ****** ****** ****** ******
   8  ****** ****** ****** ****** ****** ****** ****** ****** ****** ******
      ****** ****** ****** ****** ****** ****** ****** ****** ****** ******
      ****** ****** ****** ****** ****** ****** ****** ****** ****** ******
   9  ****** ****** ****** ****** ****** ****** ****** ****** ****** ******
      ****** ****** ****** ****** ****** ****** ****** ****** ****** ******
      ****** ****** ****** ****** ****** ****** ****** ****** ****** ******
  10  ****** ****** ****** ****** ****** ****** ****** ****** ****** ******
      ****** ****** ****** ****** ****** ****** ****** ****** ****** ******
      ****** ****** ****** ****** ****** ****** ****** ****** ****** ******
  11  ****** ****** ****** ****** ****** ****** ****** ****** ****** ******
      ****** ****** ****** ****** ****** ****** ****** ****** ****** ******
      ****** ****** ****** ****** ****** ****** ****** ****** ****** ******
  12  ****** ****** ****** ****** ****** ****** ****** ****** ****** ******
      ****** ****** ****** ****** ****** ****** ****** ****** ****** ******
      ****** ****** ****** ****** ****** ****** ****** ****** ****** ******
  13  ****** ****** ****** ****** ****** ****** ****** ****** ****** ******
      ****** ****** ****** ****** ****** ****** ****** ****** ****** ******
      ****** ****** ****** ****** ****** ****** ****** ****** ****** ******
  14  ****** ****** ****** ****** ****** ****** ****** ****** ****** ******
      ****** ****** ****** ****** ****** ****** ****** ****** ****** ******
      ****** ****** ****** ****** ****** ****** ****** ****** ****** ******
  15  ****** ****** ****** ****** ****** ****** ****** ****** ****** ******
      ****** ****** ****** ****** ****** ****** ****** ****** ****** ******
      ****** ****** ****** ****** ****** ****** ****** ****** ****** ******
  16  ****** ****** ****** ****** ****** ****** ****** ****** ****** ******
      ****** ****** ****** ****** ****** ****** ****** ****** ****** ******
      ****** ****** ****** ****** ****** ****** ****** ****** ****** ******
  17  ****** ****** ****** ****** ****** ****** ****** ****** ****** ******
      ****** ****** ****** ****** ****** ****** ****** ****** ****** ******
      ****** ****** ****** ****** ****** ****** ****** ****** ****** ******
  18  ****** ****** ****** ****** ****** ****** ****** ****** ****** ******
      ****** ****** ****** ****** ****** ****** ****** ****** ****** ******
      ****** ****** ****** ****** ****** ****** ****** ****** ****** ******
  19  ****** ****** ****** ****** ****** ****** ****** ****** ****** ******
      ****** ****** ****** ****** ****** ****** ****** ****** ****** ******
      ****** ****** ****** ****** ****** ****** ****** ****** ****** ******
  20  ****** ****** ****** ****** ****** ****** ****** ****** ****** ******
      ****** ****** ****** ****** ****** ****** ****** ****** ****** ******
      ****** ****** ****** ****** ****** ****** ****** ****** ****** ******
  21  ****** ****** ****** ****** ****** ****** ****** ****** ****** ******
      ****** ****** ****** ****** ****** ****** ****** ****** ****** ******
      ****** ****** ****** ****** ****** ****** ****** ****** ****** ******
  22  ****** ****** ****** ****** ****** ****** ****** ****** ****** ******
      ****** ****** ****** ****** ****** ****** ****** ****** ****** ******
      ****** ****** ****** ****** ****** ****** ****** ****** ****** ******
  23  ****** ****** ****** ****** ****** ****** ****** ****** ****** ******
      ****** ****** ****** ****** ****** ****** ****** ****** ****** ******
      ****** ****** ****** ****** ****** ****** ****** ****** ****** ******
  24  ****** ****** ****** ****** ****** ****** ****** ****** ****** ******
      ****** ****** ****** ****** ****** ****** ****** ****** ****** ******
      ****** ****** ****** ****** ****** ****** ****** ****** ****** ******
  25  ****** ****** ****** ****** ****** ****** ****** ****** ****** ******
      ****** ****** ****** ****** ****** ****** ****** ****** ****** ******
      ****** ****** ****** ****** ****** ****** ****** ****** ****** ******

 HEAD WILL BE SAVED ON UNIT   51 AT END OF TIME STEP    1, STRESS PERIOD    4
1
  VOLUMETRIC BUDGET FOR ENTIRE MODEL AT END OF TIME STEP    1, STRESS PERIOD   4
  ------------------------------------------------------------------------------

     CUMULATIVE VOLUMES      L**3       RATES FOR THIS TIME STEP      L**3/T
     ------------------                 ------------------------

           IN:                                      IN:
           ---                                      ---
             STORAGE =    22957647.1553               STORAGE =        1421.1350
       CONSTANT HEAD =    62942076.1056         CONSTANT HEAD =      189417.4666
               WELLS =           0.0000                 WELLS =           0.0000
            RECHARGE =     8804400.0000              RECHARGE =       27600.0000
      STREAM LEAKAGE =     2330964.1595        STREAM LEAKAGE =        6944.4822

            TOTAL IN =    97035087.4204              TOTAL IN =      225383.0838

          OUT:                                     OUT:
          ----                                     ----
             STORAGE =       19729.0144               STORAGE =         216.8024
       CONSTANT HEAD =           0.0000         CONSTANT HEAD =           0.0000
               WELLS =    37783445.3577                 WELLS =      103516.2887
            RECHARGE =           0.0000              RECHARGE =           0.0000
      STREAM LEAKAGE =    59231913.7167        STREAM LEAKAGE =      121649.9911

           TOTAL OUT =    97035088.0887             TOTAL OUT =      225383.0821

            IN - OUT =          -0.6683              IN - OUT =       1.7354E-03

 PERCENT DISCREPANCY =          -0.00     PERCENT DISCREPANCY =           0.00






         TIME SUMMARY AT END OF TIME STEP    1 IN STRESS PERIOD    4
                    SECONDS     MINUTES      HOURS       DAYS        YEARS
                    -----------------------------------------------------------
   TIME STEP LENGTH 7.86240E+06 1.31040E+05  2184.0      91.000     0.24914    
 STRESS PERIOD TIME 7.86240E+06 1.31040E+05  2184.0      91.000     0.24914    
         TOTAL TIME 3.15360E+07 5.25600E+05  8760.0      365.00     0.99932    
1
1
                            STRESS PERIOD NO.    5, LENGTH =   92.00000    
                            -----------------------------------------------

                              NUMBER OF TIME STEPS =     1

                               MULTIPLIER FOR DELT =     1.500

                            INITIAL TIME STEP SIZE =   92.00000    

 WELL NO.  LAYER   ROW   COL   STRESS RATE         
 --------------------------------------------------
      1      1     23     29     -0.3033E+05
      2      1     23      8     -0.3444E+05
      3      1     23     22     -0.3874E+05

      3 WELLS

                 RECHARGE =  5.000000E-04

 REUSING STREAM SEGMENT DATA FROM LAST STRESS PERIOD
 
 SOLVING FOR HEAD 


     6 CALLS TO PCG ROUTINE FOR TIME STEP   1 IN STRESS PERIOD    5
    23 TOTAL ITERATIONS

 OUTPUT CONTROL FOR STRESS PERIOD    5   TIME STEP    1
    SAVE BUDGET
    SAVE HEAD FOR ALL LAYERS
    PRINT HEAD FOR ALL LAYERS
 UBDSV2 SAVING "STREAMFLOW OUT  " ON UNIT  50 AT TIME STEP  1, STRESS PERIOD   5



 STREAM LISTING     PERIOD      5   STEP        1

 LAYER ROW COL. STREAM  RCH.  FLOW INTO     FLOW TO   FLOW OUT OF   OVRLND.     DIRECT     STREAM       STREAM     STREAM     STREAM   STREAMBED  STREAMBED
                SEG.NO.  NO.  STRM. RCH.    AQUIFER    STRM. RCH.    RUNOFF     PRECIP       ET          HEAD       DEPTH      WIDTH   CONDCTNC.   GRADIENT

   1   13    1     1     1    1.0000E+05 -2.6689E+03   1.0267E+05  0.000E+00  0.000E+00  0.000E+00  4.84072E+01  1.458E-01  2.000E+01  2.000E+04 -1.334E-01
   1   13    2     1     2    1.0267E+05 -4.6142E+03   1.0728E+05  0.000E+00  0.000E+00  0.000E+00  4.79330E+01  1.489E-01  2.000E+01  2.000E+04 -2.307E-01
   1   14    3     1     3    1.0728E+05 -3.5075E+03   1.1079E+05  0.000E+00  0.000E+00  0.000E+00  4.74592E+01  1.524E-01  2.000E+01  2.000E+04 -1.754E-01
   1   15    4     1     4    1.1079E+05 -3.2332E+03   1.1402E+05  0.000E+00  0.000E+00  0.000E+00  4.69847E+01  1.552E-01  2.000E+01  2.000E+04 -1.617E-01
   1   16    5     1     5    1.1402E+05 -3.1093E+03   1.1713E+05  0.000E+00  0.000E+00  0.000E+00  4.65101E+01  1.578E-01  2.000E+01  2.000E+04 -1.555E-01
   1   16    6     1     6    1.1713E+05 -2.4737E+03   1.1961E+05  0.000E+00  0.000E+00  0.000E+00  4.60351E+01  1.601E-01  2.000E+01  2.000E+04 -1.237E-01
   1   16    7     1     7    1.1961E+05 -2.5032E+03   1.2211E+05  0.000E+00  0.000E+00  0.000E+00  4.55598E+01  1.621E-01  2.000E+01  2.000E+04 -1.252E-01
   1   16    8     1     8    1.2211E+05 -2.5272E+03   1.2464E+05  0.000E+00  0.000E+00  0.000E+00  4.50845E+01  1.641E-01  2.000E+01  2.000E+04 -1.264E-01
   1   16    9     1     9    1.2464E+05 -2.5520E+03   1.2719E+05  0.000E+00  0.000E+00  0.000E+00  4.46093E+01  1.661E-01  2.000E+01  2.000E+04 -1.276E-01
   1   16   10     1    10    1.2719E+05 -2.5714E+03   1.2976E+05  0.000E+00  0.000E+00  0.000E+00  4.41340E+01  1.681E-01  2.000E+01  2.000E+04 -1.286E-01
   1   16   11     1    11    1.2976E+05 -2.5801E+03   1.3234E+05  0.000E+00  0.000E+00  0.000E+00  4.36588E+01  1.701E-01  2.000E+01  2.000E+04 -1.290E-01
   1   16   12     1    12    1.3234E+05 -3.3809E+03   1.3572E+05  0.000E+00  0.000E+00  0.000E+00  4.31838E+01  1.724E-01  2.000E+01  2.000E+04 -1.690E-01
   1   15   13     1    13    1.3572E+05 -3.4274E+03   1.3915E+05  0.000E+00  0.000E+00  0.000E+00  4.27091E+01  1.751E-01  2.000E+01  2.000E+04 -1.714E-01
   1   14   14     1    14    1.3915E+05 -3.6155E+03   1.4276E+05  0.000E+00  0.000E+00  0.000E+00  4.22346E+01  1.777E-01  2.000E+01  2.000E+04 -1.808E-01
   1   13   15     1    15    1.4276E+05 -4.0018E+03   1.4677E+05  0.000E+00  0.000E+00  0.000E+00  4.17601E+01  1.806E-01  2.000E+01  2.000E+04 -2.001E-01
   1   12   16     1    16    1.4677E+05 -5.3084E+03   1.5207E+05  0.000E+00  0.000E+00  0.000E+00  4.12863E+01  1.841E-01  2.000E+01  2.000E+04 -2.654E-01
   1   12   17     1    17    1.5207E+05 -3.4252E+03   1.5550E+05  0.000E+00  0.000E+00  0.000E+00  4.08123E+01  1.873E-01  2.000E+01  2.000E+04 -1.713E-01
   1   12   18     1    18    1.5550E+05 -3.2809E+03   1.5878E+05  0.000E+00  0.000E+00  0.000E+00  4.03374E+01  1.897E-01  2.000E+01  2.000E+04 -1.640E-01
   1   12   19     1    19    1.5878E+05 -4.3495E+03   1.6313E+05  0.000E+00  0.000E+00  0.000E+00  3.98629E+01  1.925E-01  2.000E+01  2.000E+04 -2.175E-01
   1   13   20     1    20    1.6313E+05 -2.6299E+03   1.6576E+05  0.000E+00  0.000E+00  0.000E+00  3.93881E+01  1.950E-01  2.000E+01  2.000E+04 -1.315E-01
   1   14   21     1    21    1.6576E+05 -1.5467E+03   1.6731E+05  0.000E+00  0.000E+00  0.000E+00  3.89123E+01  1.964E-01  2.000E+01  2.000E+04 -7.733E-02
   1   14   22     1    22    1.6731E+05  5.1404E+03   1.6217E+05  0.000E+00  0.000E+00  0.000E+00  3.84338E+01  1.952E-01  2.000E+01  2.000E+04  2.570E-01
   1    9   30     2     1    5.0000E+04 -2.6850E+03   5.2685E+04  0.000E+00  0.000E+00  0.000E+00  4.02427E+01  1.177E-01  2.000E+01  2.000E+04 -1.342E-01
   1    9   29     2     2    5.2685E+04 -3.0181E+03   5.5703E+04  0.000E+00  0.000E+00  0.000E+00  3.99966E+01  1.216E-01  2.000E+01  2.000E+04 -1.509E-01
   1    9   28     2     3    5.5703E+04 -3.4006E+03   5.9104E+04  0.000E+00  0.000E+00  0.000E+00  3.97509E+01  1.259E-01  2.000E+01  2.000E+04 -1.700E-01
   1    9   27     2     4    5.9104E+04 -6.1054E+03   6.5209E+04  0.000E+00  0.000E+00  0.000E+00  3.95070E+01  1.320E-01  2.000E+01  2.000E+04 -3.053E-01
   1   10   26     2     5    6.5209E+04 -3.7291E+03   6.8938E+04  0.000E+00  0.000E+00  0.000E+00  3.92632E+01  1.382E-01  2.000E+01  2.000E+04 -1.865E-01
   1   11   25     2     6    6.8938E+04 -2.6891E+03   7.1627E+04  0.000E+00  0.000E+00  0.000E+00  3.90171E+01  1.421E-01  2.000E+01  2.000E+04 -1.345E-01
   1   12   24     2     7    7.1627E+04 -1.8559E+03   7.3483E+04  0.000E+00  0.000E+00  0.000E+00  3.87699E+01  1.449E-01  2.000E+01  2.000E+04 -9.279E-02
   1   13   23     2     8    7.3483E+04 -1.0544E+03   7.4538E+04  0.000E+00  0.000E+00  0.000E+00  3.85216E+01  1.466E-01  2.000E+01  2.000E+04 -5.272E-02
   1   14   22     2     9    7.4538E+04  1.8866E+03   7.2651E+04  0.000E+00  0.000E+00  0.000E+00  3.82711E+01  1.461E-01  2.000E+01  2.000E+04  9.433E-02
   1   14   22     3     1    2.3482E+05 -8.3752E+03   2.4319E+05  0.000E+00  0.000E+00  0.000E+00  3.77580E+01  2.025E-01  2.000E+01  2.000E+04 -4.188E-01
   1   15   23     3     2    2.4319E+05 -1.7569E+03   2.4495E+05  0.000E+00  0.000E+00  0.000E+00  3.68717E+01  2.050E-01  2.000E+01  2.000E+04 -8.785E-02
   1   15   24     3     3    2.4495E+05 -1.2630E+03   2.4621E+05  0.000E+00  0.000E+00  0.000E+00  3.59836E+01  2.058E-01  2.000E+01  2.000E+04 -6.315E-02
   1   15   25     3     4    2.4621E+05 -1.2611E+03   2.4747E+05  0.000E+00  0.000E+00  0.000E+00  3.50953E+01  2.064E-01  2.000E+01  2.000E+04 -6.306E-02
   1   15   26     3     5    2.4747E+05 -1.7827E+03   2.4926E+05  0.000E+00  0.000E+00  0.000E+00  3.42072E+01  2.072E-01  2.000E+01  2.000E+04 -8.914E-02
   1   16   27     3     6    2.4926E+05 -2.0534E+03   2.5131E+05  0.000E+00  0.000E+00  0.000E+00  3.33193E+01  2.081E-01  2.000E+01  2.000E+04 -1.027E-01
   1   17   28     3     7    2.5131E+05 -2.2586E+03   2.5357E+05  0.000E+00  0.000E+00  0.000E+00  3.24314E+01  2.092E-01  2.000E+01  2.000E+04 -1.129E-01
   1   18   29     3     8    2.5357E+05 -2.4071E+03   2.5598E+05  0.000E+00  0.000E+00  0.000E+00  3.15437E+01  2.104E-01  2.000E+01  2.000E+04 -1.204E-01
   1   18   30     3     9    2.5598E+05 -2.4655E+03   2.5844E+05  0.000E+00  0.000E+00  0.000E+00  3.06560E+01  2.116E-01  2.000E+01  2.000E+04 -1.233E-01



1
              HEAD IN LAYER   1 AT END OF TIME STEP   1 IN STRESS PERIOD    5
  ---------------------------------------------------------------------------

          1      2      3      4      5      6      7      8      9     10
         11     12     13     14     15     16     17     18     19     20
         21     22     23     24     25     26     27     28     29     30
 .........................................................................
   1  ****** ****** ****** ****** ****** ****** ****** ****** ****** ******
      ****** ****** ****** ****** ****** ****** ****** ****** ****** ******
      ****** ****** ****** ****** ****** ****** ****** ****** ****** ******
   2  ****** ****** ****** ****** ****** ****** ****** ****** ****** ******
      ****** ****** ****** ****** ****** ****** ****** ****** ****** ******
      ****** ****** ****** ****** ****** ****** ****** ****** ****** ******
   3  ****** ****** ****** ****** ****** ****** ****** ****** ****** ******
      ****** ****** ****** ****** ****** ****** ****** ****** ****** ******
      ****** ****** ****** ****** ****** ****** ****** ****** ****** ******
   4  ****** ****** ****** ****** ****** ****** ****** ****** ****** ******
      ****** ****** ****** ****** ****** ****** ****** ****** ****** ******
      ****** ****** ****** ****** ****** ****** ****** ****** ****** ******
   5  ****** ****** ****** ****** ****** ****** ****** ****** ****** ******
      ****** ****** ****** ****** ****** ****** ****** ****** ****** ******
      ****** ****** ****** ****** ****** ****** ****** ****** ****** ******
   6  ****** ****** ****** ****** ****** ****** ****** ****** ****** ******
      ****** ****** ****** ****** ****** ****** ****** ****** ****** ******
      ****** ****** ****** ****** ****** ****** ****** ****** ****** ******
   7  ****** ****** ****** ****** ****** ****** ****** ****** ****** ******
      ****** ****** ****** ****** ****** ****** ****** ****** ****** ******
      ****** ****** ****** ****** ****** ****** ****** ****** ****** ******
   8  ****** ****** ****** ****** ****** ****** ****** ****** ****** ******
      ****** ****** ****** ****** ****** ****** ****** ****** ****** ******
      ****** ****** ****** ****** ****** ****** ****** ****** ****** ******
   9  ****** ****** ****** ****** ****** ****** ****** ****** ****** ******
      ****** ****** ****** ****** ****** ****** ****** ****** ****** ******
      ****** ****** ****** ****** ****** ****** ****** ****** ****** ******
  10  ****** ****** ****** ****** ****** ****** ****** ****** ****** ******
      ****** ****** ****** ****** ****** ****** ****** ****** ****** ******
      ****** ****** ****** ****** ****** ****** ****** ****** ****** ******
  11  ****** ****** ****** ****** ****** ****** ****** ****** ****** ******
      ****** ****** ****** ****** ****** ****** ****** ****** ****** ******
      ****** ****** ****** ****** ****** ****** ****** ****** ****** ******
  12  ****** ****** ****** ****** ****** ****** ****** ****** ****** ******
      ****** ****** ****** ****** ****** ****** ****** ****** ****** ******
      ****** ****** ****** ****** ****** ****** ****** ****** ****** ******
  13  ****** ****** ****** ****** ****** ****** ****** ****** ****** ******
      ****** ****** ****** ****** ****** ****** ****** ****** ****** ******
      ****** ****** ****** ****** ****** ****** ****** ****** ****** ******
  14  ****** ****** ****** ****** ****** ****** ****** ****** ****** ******
      ****** ****** ****** ****** ****** ****** ****** ****** ****** ******
      ****** ****** ****** ****** ****** ****** ****** ****** ****** ******
  15  ****** ****** ****** ****** ****** ****** ****** ****** ****** ******
      ****** ****** ****** ****** ****** ****** ****** ****** ****** ******
      ****** ****** ****** ****** ****** ****** ****** ****** ****** ******
  16  ****** ****** ****** ****** ****** ****** ****** ****** ****** ******
      ****** ****** ****** ****** ****** ****** ****** ****** ****** ******
      ****** ****** ****** ****** ****** ****** ****** ****** ****** ******
  17  ****** ****** ****** ****** ****** ****** ****** ****** ****** ******
      ****** ****** ****** ****** ****** ****** ****** ****** ****** ******
      ****** ****** ****** ****** ****** ****** ****** ****** ****** ******
  18  ****** ****** ****** ****** ****** ****** ****** ****** ****** ******
      ****** ****** ****** ****** ****** ****** ****** ****** ****** ******
      ****** ****** ****** ****** ****** ****** ****** ****** ****** ******
  19  ****** ****** ****** ****** ****** ****** ****** ****** ****** ******
      ****** ****** ****** ****** ****** ****** ****** ****** ****** ******
      ****** ****** ****** ****** ****** ****** ****** ****** ****** ******
  20  ****** ****** ****** ****** ****** ****** ****** ****** ****** ******
      ****** ****** ****** ****** ****** ****** ****** ****** ****** ******
      ****** ****** ****** ****** ****** ****** ****** ****** ****** ******
  21  ****** ****** ****** ****** ****** ****** ****** ****** ****** ******
      ****** ****** ****** ****** ****** ****** ****** ****** ****** ******
      ****** ****** ****** ****** ****** ****** ****** ****** ****** ******
  22  ****** ****** ****** ****** ****** ****** ****** ****** ****** ******
      ****** ****** ****** ****** ****** ****** ****** ****** ****** ******
      ****** ****** ****** ****** ****** ****** ****** ****** ****** ******
  23  ****** ****** ****** ****** ****** ****** ****** ****** ****** ******
      ****** ****** ****** ****** ****** ****** ****** ****** ****** ******
      ****** ****** ****** ****** ****** ****** ****** ****** ****** ******
  24  ****** ****** ****** ****** ****** ****** ****** ****** ****** ******
      ****** ****** ****** ****** ****** ****** ****** ****** ****** ******
      ****** ****** ****** ****** ****** ****** ****** ****** ****** ******
  25  ****** ****** ****** ****** ****** ****** ****** ****** ****** ******
      ****** ****** ****** ****** ****** ****** ****** ****** ****** ******
      ****** ****** ****** ****** ****** ****** ****** ****** ****** ******

 HEAD WILL BE SAVED ON UNIT   51 AT END OF TIME STEP    1, STRESS PERIOD    5
1
  VOLUMETRIC BUDGET FOR ENTIRE MODEL AT END OF TIME STEP    1, STRESS PERIOD   5
  ------------------------------------------------------------------------------

     CUMULATIVE VOLUMES      L**3       RATES FOR THIS TIME STEP      L**3/T
     ------------------                 ------------------------

           IN:                                      IN:
           ---                                      ---
             STORAGE =    23365094.5502               STORAGE =        4428.7760
       CONSTANT HEAD =    80765113.6100         CONSTANT HEAD =      193728.6685
               WELLS =           0.0000                 WELLS =           0.0000
            RECHARGE =    10074000.0000              RECHARGE =       13800.0000
      STREAM LEAKAGE =     2977446.4376        STREAM LEAKAGE =        7026.9813

            TOTAL IN =   117181654.5979              TOTAL IN =      218984.4258

          OUT:                                     OUT:
          ----                                     ----
             STORAGE =       19729.0144               STORAGE =           0.0000
       CONSTANT HEAD =           0.0000         CONSTANT HEAD =           0.0000
               WELLS =    47306943.9136                 WELLS =      103516.2887
            RECHARGE =           0.0000              RECHARGE =           0.0000
      STREAM LEAKAGE =    69854982.4077        STREAM LEAKAGE =      115468.1379

           TOTAL OUT =   117181655.3356             TOTAL OUT =      218984.4266

            IN - OUT =          -0.7377              IN - OUT =      -7.5402E-04

 PERCENT DISCREPANCY =          -0.00     PERCENT DISCREPANCY =          -0.00






         TIME SUMMARY AT END OF TIME STEP    1 IN STRESS PERIOD    5
                    SECONDS     MINUTES      HOURS       DAYS        YEARS
                    -----------------------------------------------------------
   TIME STEP LENGTH 7.94880E+06 1.32480E+05  2208.0      92.000     0.25188    
 STRESS PERIOD TIME 7.94880E+06 1.32480E+05  2208.0      92.000     0.25188    
         TOTAL TIME 3.94848E+07 6.58080E+05  10968.      457.00      1.2512    
1
1
                            STRESS PERIOD NO.    6, LENGTH =   91.00000    
                            -----------------------------------------------

                              NUMBER OF TIME STEPS =     1

                               MULTIPLIER FOR DELT =     1.500

                            INITIAL TIME STEP SIZE =   91.00000    

 WELL NO.  LAYER   ROW   COL   STRESS RATE         
 --------------------------------------------------
      1      1     23     29     -0.3033E+05
      2      1     23      8     -0.3444E+05
      3      1     23     22     -0.3874E+05

      3 WELLS

                 RECHARGE =  2.000000E-03

 REUSING STREAM SEGMENT DATA FROM LAST STRESS PERIOD
 
 SOLVING FOR HEAD 


     7 CALLS TO PCG ROUTINE FOR TIME STEP   1 IN STRESS PERIOD    6
    26 TOTAL ITERATIONS

 OUTPUT CONTROL FOR STRESS PERIOD    6   TIME STEP    1
    SAVE BUDGET
    SAVE HEAD FOR ALL LAYERS
    PRINT HEAD FOR ALL LAYERS
 UBDSV2 SAVING "STREAMFLOW OUT  " ON UNIT  50 AT TIME STEP  1, STRESS PERIOD   6



 STREAM LISTING     PERIOD      6   STEP        1

 LAYER ROW COL. STREAM  RCH.  FLOW INTO     FLOW TO   FLOW OUT OF   OVRLND.     DIRECT     STREAM       STREAM     STREAM     STREAM   STREAMBED  STREAMBED
                SEG.NO.  NO.  STRM. RCH.    AQUIFER    STRM. RCH.    RUNOFF     PRECIP       ET          HEAD       DEPTH      WIDTH   CONDCTNC.   GRADIENT

   1   13    1     1     1    1.0000E+05 -3.0680E+03   1.0307E+05  0.000E+00  0.000E+00  0.000E+00  4.84073E+01  1.460E-01  2.000E+01  2.000E+04 -1.534E-01
   1   13    2     1     2    1.0307E+05 -5.1395E+03   1.0821E+05  0.000E+00  0.000E+00  0.000E+00  4.79336E+01  1.495E-01  2.000E+01  2.000E+04 -2.570E-01
   1   14    3     1     3    1.0821E+05 -4.0461E+03   1.1225E+05  0.000E+00  0.000E+00  0.000E+00  4.74602E+01  1.534E-01  2.000E+01  2.000E+04 -2.023E-01
   1   15    4     1     4    1.1225E+05 -3.7688E+03   1.1602E+05  0.000E+00  0.000E+00  0.000E+00  4.69861E+01  1.566E-01  2.000E+01  2.000E+04 -1.884E-01
   1   16    5     1     5    1.1602E+05 -3.6059E+03   1.1963E+05  0.000E+00  0.000E+00  0.000E+00  4.65119E+01  1.596E-01  2.000E+01  2.000E+04 -1.803E-01
   1   16    6     1     6    1.1963E+05 -2.8646E+03   1.2249E+05  0.000E+00  0.000E+00  0.000E+00  4.60372E+01  1.622E-01  2.000E+01  2.000E+04 -1.432E-01
   1   16    7     1     7    1.2249E+05 -2.8997E+03   1.2539E+05  0.000E+00  0.000E+00  0.000E+00  4.55623E+01  1.645E-01  2.000E+01  2.000E+04 -1.450E-01
   1   16    8     1     8    1.2539E+05 -2.9270E+03   1.2832E+05  0.000E+00  0.000E+00  0.000E+00  4.50873E+01  1.668E-01  2.000E+01  2.000E+04 -1.464E-01
   1   16    9     1     9    1.2832E+05 -2.9517E+03   1.3127E+05  0.000E+00  0.000E+00  0.000E+00  4.46123E+01  1.692E-01  2.000E+01  2.000E+04 -1.476E-01
   1   16   10     1    10    1.3127E+05 -2.9675E+03   1.3424E+05  0.000E+00  0.000E+00  0.000E+00  4.41374E+01  1.715E-01  2.000E+01  2.000E+04 -1.484E-01
   1   16   11     1    11    1.3424E+05 -2.9711E+03   1.3721E+05  0.000E+00  0.000E+00  0.000E+00  4.36624E+01  1.737E-01  2.000E+01  2.000E+04 -1.486E-01
   1   16   12     1    12    1.3721E+05 -3.8840E+03   1.4109E+05  0.000E+00  0.000E+00  0.000E+00  4.31877E+01  1.764E-01  2.000E+01  2.000E+04 -1.942E-01
   1   15   13     1    13    1.4109E+05 -3.9732E+03   1.4507E+05  0.000E+00  0.000E+00  0.000E+00  4.27134E+01  1.793E-01  2.000E+01  2.000E+04 -1.987E-01
   1   14   14     1    14    1.4507E+05 -4.1709E+03   1.4924E+05  0.000E+00  0.000E+00  0.000E+00  4.22392E+01  1.824E-01  2.000E+01  2.000E+04 -2.085E-01
   1   13   15     1    15    1.4924E+05 -4.5479E+03   1.5379E+05  0.000E+00  0.000E+00  0.000E+00  4.17652E+01  1.856E-01  2.000E+01  2.000E+04 -2.274E-01
   1   12   16     1    16    1.5379E+05 -5.8303E+03   1.5962E+05  0.000E+00  0.000E+00  0.000E+00  4.12917E+01  1.894E-01  2.000E+01  2.000E+04 -2.915E-01
   1   12   17     1    17    1.5962E+05 -3.8155E+03   1.6343E+05  0.000E+00  0.000E+00  0.000E+00  4.08179E+01  1.929E-01  2.000E+01  2.000E+04 -1.908E-01
   1   12   18     1    18    1.6343E+05 -3.6651E+03   1.6710E+05  0.000E+00  0.000E+00  0.000E+00  4.03433E+01  1.955E-01  2.000E+01  2.000E+04 -1.833E-01
   1   12   19     1    19    1.6710E+05 -4.8188E+03   1.7192E+05  0.000E+00  0.000E+00  0.000E+00  3.98690E+01  1.985E-01  2.000E+01  2.000E+04 -2.409E-01
   1   13   20     1    20    1.7192E+05 -3.0880E+03   1.7500E+05  0.000E+00  0.000E+00  0.000E+00  3.93945E+01  2.013E-01  2.000E+01  2.000E+04 -1.544E-01
   1   14   21     1    21    1.7500E+05 -1.9673E+03   1.7697E+05  0.000E+00  0.000E+00  0.000E+00  3.89190E+01  2.031E-01  2.000E+01  2.000E+04 -9.837E-02
   1   14   22     1    22    1.7697E+05  5.0605E+03   1.7191E+05  0.000E+00  0.000E+00  0.000E+00  3.84406E+01  2.020E-01  2.000E+01  2.000E+04  2.530E-01
   1    9   30     2     1    5.0000E+04 -3.0421E+03   5.3042E+04  0.000E+00  0.000E+00  0.000E+00  4.02430E+01  1.180E-01  2.000E+01  2.000E+04 -1.521E-01
   1    9   29     2     2    5.3042E+04 -3.3723E+03   5.6414E+04  0.000E+00  0.000E+00  0.000E+00  3.99973E+01  1.223E-01  2.000E+01  2.000E+04 -1.686E-01
   1    9   28     2     3    5.6414E+04 -3.7526E+03   6.0167E+04  0.000E+00  0.000E+00  0.000E+00  3.97520E+01  1.270E-01  2.000E+01  2.000E+04 -1.876E-01
   1    9   27     2     4    6.0167E+04 -6.5750E+03   6.6742E+04  0.000E+00  0.000E+00  0.000E+00  3.95087E+01  1.337E-01  2.000E+01  2.000E+04 -3.287E-01
   1   10   26     2     5    6.6742E+04 -4.2151E+03   7.0957E+04  0.000E+00  0.000E+00  0.000E+00  3.92654E+01  1.404E-01  2.000E+01  2.000E+04 -2.108E-01
   1   11   25     2     6    7.0957E+04 -3.1541E+03   7.4111E+04  0.000E+00  0.000E+00  0.000E+00  3.90198E+01  1.448E-01  2.000E+01  2.000E+04 -1.577E-01
   1   12   24     2     7    7.4111E+04 -2.2669E+03   7.6378E+04  0.000E+00  0.000E+00  0.000E+00  3.87731E+01  1.481E-01  2.000E+01  2.000E+04 -1.133E-01
   1   13   23     2     8    7.6378E+04 -1.3750E+03   7.7753E+04  0.000E+00  0.000E+00  0.000E+00  3.85252E+01  1.502E-01  2.000E+01  2.000E+04 -6.875E-02
   1   14   22     2     9    7.7753E+04  1.7479E+03   7.6005E+04  0.000E+00  0.000E+00  0.000E+00  3.82750E+01  1.500E-01  2.000E+01  2.000E+04  8.739E-02
   1   14   22     3     1    2.4792E+05 -8.4594E+03   2.5637E+05  0.000E+00  0.000E+00  0.000E+00  3.77646E+01  2.091E-01  2.000E+01  2.000E+04 -4.230E-01
   1   15   23     3     2    2.5637E+05 -2.1495E+03   2.5852E+05  0.000E+00  0.000E+00  0.000E+00  3.68784E+01  2.117E-01  2.000E+01  2.000E+04 -1.075E-01
   1   15   24     3     3    2.5852E+05 -1.5480E+03   2.6007E+05  0.000E+00  0.000E+00  0.000E+00  3.59904E+01  2.126E-01  2.000E+01  2.000E+04 -7.740E-02
   1   15   25     3     4    2.6007E+05 -1.5475E+03   2.6162E+05  0.000E+00  0.000E+00  0.000E+00  3.51023E+01  2.134E-01  2.000E+01  2.000E+04 -7.737E-02
   1   15   26     3     5    2.6162E+05 -2.1529E+03   2.6377E+05  0.000E+00  0.000E+00  0.000E+00  3.42143E+01  2.143E-01  2.000E+01  2.000E+04 -1.076E-01
   1   16   27     3     6    2.6377E+05 -2.5169E+03   2.6629E+05  0.000E+00  0.000E+00  0.000E+00  3.33265E+01  2.154E-01  2.000E+01  2.000E+04 -1.258E-01
   1   17   28     3     7    2.6629E+05 -2.7316E+03   2.6902E+05  0.000E+00  0.000E+00  0.000E+00  3.24389E+01  2.167E-01  2.000E+01  2.000E+04 -1.366E-01
   1   18   29     3     8    2.6902E+05 -2.8503E+03   2.7187E+05  0.000E+00  0.000E+00  0.000E+00  3.15514E+01  2.180E-01  2.000E+01  2.000E+04 -1.425E-01
   1   18   30     3     9    2.7187E+05 -2.8005E+03   2.7467E+05  0.000E+00  0.000E+00  0.000E+00  3.06639E+01  2.194E-01  2.000E+01  2.000E+04 -1.400E-01



1
              HEAD IN LAYER   1 AT END OF TIME STEP   1 IN STRESS PERIOD    6
  ---------------------------------------------------------------------------

          1      2      3      4      5      6      7      8      9     10
         11     12     13     14     15     16     17     18     19     20
         21     22     23     24     25     26     27     28     29     30
 .........................................................................
   1  ****** ****** ****** ****** ****** ****** ****** ****** ****** ******
      ****** ****** ****** ****** ****** ****** ****** ****** ****** ******
      ****** ****** ****** ****** ****** ****** ****** ****** ****** ******
   2  ****** ****** ****** ****** ****** ****** ****** ****** ****** ******
      ****** ****** ****** ****** ****** ****** ****** ****** ****** ******
      ****** ****** ****** ****** ****** ****** ****** ****** ****** ******
   3  ****** ****** ****** ****** ****** ****** ****** ****** ****** ******
      ****** ****** ****** ****** ****** ****** ****** ****** ****** ******
      ****** ****** ****** ****** ****** ****** ****** ****** ****** ******
   4  ****** ****** ****** ****** ****** ****** ****** ****** ****** ******
      ****** ****** ****** ****** ****** ****** ****** ****** ****** ******
      ****** ****** ****** ****** ****** ****** ****** ****** ****** ******
   5  ****** ****** ****** ****** ****** ****** ****** ****** ****** ******
      ****** ****** ****** ****** ****** ****** ****** ****** ****** ******
      ****** ****** ****** ****** ****** ****** ****** ****** ****** ******
   6  ****** ****** ****** ****** ****** ****** ****** ****** ****** ******
      ****** ****** ****** ****** ****** ****** ****** ****** ****** ******
      ****** ****** ****** ****** ****** ****** ****** ****** ****** ******
   7  ****** ****** ****** ****** ****** ****** ****** ****** ****** ******
      ****** ****** ****** ****** ****** ****** ****** ****** ****** ******
      ****** ****** ****** ****** ****** ****** ****** ****** ****** ******
   8  ****** ****** ****** ****** ****** ****** ****** ****** ****** ******
      ****** ****** ****** ****** ****** ****** ****** ****** ****** ******
      ****** ****** ****** ****** ****** ****** ****** ****** ****** ******
   9  ****** ****** ****** ****** ****** ****** ****** ****** ****** ******
      ****** ****** ****** ****** ****** ****** ****** ****** ****** ******
      ****** ****** ****** ****** ****** ****** ****** ****** ****** ******
  10  ****** ****** ****** ****** ****** ****** ****** ****** ****** ******
      ****** ****** ****** ****** ****** ****** ****** ****** ****** ******
      ****** ****** ****** ****** ****** ****** ****** ****** ****** ******
  11  ****** ****** ****** ****** ****** ****** ****** ****** ****** ******
      ****** ****** ****** ****** ****** ****** ****** ****** ****** ******
      ****** ****** ****** ****** ****** ****** ****** ****** ****** ******
  12  ****** ****** ****** ****** ****** ****** ****** ****** ****** ******
      ****** ****** ****** ****** ****** ****** ****** ****** ****** ******
      ****** ****** ****** ****** ****** ****** ****** ****** ****** ******
  13  ****** ****** ****** ****** ****** ****** ****** ****** ****** ******
      ****** ****** ****** ****** ****** ****** ****** ****** ****** ******
      ****** ****** ****** ****** ****** ****** ****** ****** ****** ******
  14  ****** ****** ****** ****** ****** ****** ****** ****** ****** ******
      ****** ****** ****** ****** ****** ****** ****** ****** ****** ******
      ****** ****** ****** ****** ****** ****** ****** ****** ****** ******
  15  ****** ****** ****** ****** ****** ****** ****** ****** ****** ******
      ****** ****** ****** ****** ****** ****** ****** ****** ****** ******
      ****** ****** ****** ****** ****** ****** ****** ****** ****** ******
  16  ****** ****** ****** ****** ****** ****** ****** ****** ****** ******
      ****** ****** ****** ****** ****** ****** ****** ****** ****** ******
      ****** ****** ****** ****** ****** ****** ****** ****** ****** ******
  17  ****** ****** ****** ****** ****** ****** ****** ****** ****** ******
      ****** ****** ****** ****** ****** ****** ****** ****** ****** ******
      ****** ****** ****** ****** ****** ****** ****** ****** ****** ******
  18  ****** ****** ****** ****** ****** ****** ****** ****** ****** ******
      ****** ****** ****** ****** ****** ****** ****** ****** ****** ******
      ****** ****** ****** ****** ****** ****** ****** ****** ****** ******
  19  ****** ****** ****** ****** ****** ****** ****** ****** ****** ******
      ****** ****** ****** ****** ****** ****** ****** ****** ****** ******
      ****** ****** ****** ****** ****** ****** ****** ****** ****** ******
  20  ****** ****** ****** ****** ****** ****** ****** ****** ****** ******
      ****** ****** ****** ****** ****** ****** ****** ****** ****** ******
      ****** ****** ****** ****** ****** ****** ****** ****** ****** ******
  21  ****** ****** ****** ****** ****** ****** ****** ****** ****** ******
      ****** ****** ****** ****** ****** ****** ****** ****** ****** ******
      ****** ****** ****** ****** ****** ****** ****** ****** ****** ******
  22  ****** ****** ****** ****** ****** ****** ****** ****** ****** ******
      ****** ****** ****** ****** ****** ****** ****** ****** ****** ******
      ****** ****** ****** ****** ****** ****** ****** ****** ****** ******
  23  ****** ****** ****** ****** ****** ****** ****** ****** ****** ******
      ****** ****** ****** ****** ****** ****** ****** ****** ****** ******
      ****** ****** ****** ****** ****** ****** ****** ****** ****** ******
  24  ****** ****** ****** ****** ****** ****** ****** ****** ****** ******
      ****** ****** ****** ****** ****** ****** ****** ****** ****** ******
      ****** ****** ****** ****** ****** ****** ****** ****** ****** ******
  25  ****** ****** ****** ****** ****** ****** ****** ****** ****** ******
      ****** ****** ****** ****** ****** ****** ****** ****** ****** ******
      ****** ****** ****** ****** ****** ****** ****** ****** ****** ******

 HEAD WILL BE SAVED ON UNIT   51 AT END OF TIME STEP    1, STRESS PERIOD    6
1
  VOLUMETRIC BUDGET FOR ENTIRE MODEL AT END OF TIME STEP    1, STRESS PERIOD   6
  ------------------------------------------------------------------------------

     CUMULATIVE VOLUMES      L**3       RATES FOR THIS TIME STEP      L**3/T
     ------------------                 ------------------------

           IN:                                      IN:
           ---                                      ---
             STORAGE =    23365094.5502               STORAGE =           0.0000
       CONSTANT HEAD =    97426328.9188         CONSTANT HEAD =      183090.2781
               WELLS =           0.0000                 WELLS =           0.0000
            RECHARGE =    15097200.0000              RECHARGE =       55200.0000
      STREAM LEAKAGE =     3597008.9820        STREAM LEAKAGE =        6808.3796

            TOTAL IN =   139485632.4509              TOTAL IN =      245098.6577

          OUT:                                     OUT:
          ----                                     ----
             STORAGE =      939000.8807               STORAGE =       10101.8886
       CONSTANT HEAD =           0.0000         CONSTANT HEAD =           0.0000
               WELLS =    56726926.1808                 WELLS =      103516.2887
            RECHARGE =           0.0000              RECHARGE =           0.0000
      STREAM LEAKAGE =    81819705.9783        STREAM LEAKAGE =      131480.4788

           TOTAL OUT =   139485633.0399             TOTAL OUT =      245098.6561

            IN - OUT =          -0.5889              IN - OUT =       1.6351E-03

 PERCENT DISCREPANCY =          -0.00     PERCENT DISCREPANCY =           0.00






         TIME SUMMARY AT END OF TIME STEP    1 IN STRESS PERIOD    6
                    SECONDS     MINUTES      HOURS       DAYS        YEARS
                    -----------------------------------------------------------
   TIME STEP LENGTH 7.86240E+06 1.31040E+05  2184.0      91.000     0.24914    
 STRESS PERIOD TIME 7.86240E+06 1.31040E+05  2184.0      91.000     0.24914    
         TOTAL TIME 4.73472E+07 7.89120E+05  13152.      548.00      1.5003    
1
1
                            STRESS PERIOD NO.    7, LENGTH =   91.00000    
                            -----------------------------------------------

                              NUMBER OF TIME STEPS =     1

                               MULTIPLIER FOR DELT =     1.500

                            INITIAL TIME STEP SIZE =   91.00000    

 WELL NO.  LAYER   ROW   COL   STRESS RATE         
 --------------------------------------------------
      1      1     23     29     -0.2744E+05
      2      1     23      8     -0.3195E+05
      3      1     23     22     -0.3083E+05

      3 WELLS

                 RECHARGE =   0.00000    

 REUSING STREAM SEGMENT DATA FROM LAST STRESS PERIOD
 
 SOLVING FOR HEAD 


     7 CALLS TO PCG ROUTINE FOR TIME STEP   1 IN STRESS PERIOD    7
    26 TOTAL ITERATIONS

 OUTPUT CONTROL FOR STRESS PERIOD    7   TIME STEP    1
    SAVE BUDGET
    SAVE HEAD FOR ALL LAYERS
    PRINT HEAD FOR ALL LAYERS
 UBDSV2 SAVING "STREAMFLOW OUT  " ON UNIT  50 AT TIME STEP  1, STRESS PERIOD   7



 STREAM LISTING     PERIOD      7   STEP        1

 LAYER ROW COL. STREAM  RCH.  FLOW INTO     FLOW TO   FLOW OUT OF   OVRLND.     DIRECT     STREAM       STREAM     STREAM     STREAM   STREAMBED  STREAMBED
                SEG.NO.  NO.  STRM. RCH.    AQUIFER    STRM. RCH.    RUNOFF     PRECIP       ET          HEAD       DEPTH      WIDTH   CONDCTNC.   GRADIENT

   1   13    1     1     1    1.0000E+05 -2.5781E+03   1.0258E+05  0.000E+00  0.000E+00  0.000E+00  4.84071E+01  1.458E-01  2.000E+01  2.000E+04 -1.289E-01
   1   13    2     1     2    1.0258E+05 -4.4943E+03   1.0707E+05  0.000E+00  0.000E+00  0.000E+00  4.79329E+01  1.488E-01  2.000E+01  2.000E+04 -2.247E-01
   1   14    3     1     3    1.0707E+05 -3.3888E+03   1.1046E+05  0.000E+00  0.000E+00  0.000E+00  4.74590E+01  1.521E-01  2.000E+01  2.000E+04 -1.694E-01
   1   15    4     1     4    1.1046E+05 -3.1239E+03   1.1359E+05  0.000E+00  0.000E+00  0.000E+00  4.69844E+01  1.548E-01  2.000E+01  2.000E+04 -1.562E-01
   1   16    5     1     5    1.1359E+05 -3.0350E+03   1.1662E+05  0.000E+00  0.000E+00  0.000E+00  4.65097E+01  1.574E-01  2.000E+01  2.000E+04 -1.518E-01
   1   16    6     1     6    1.1662E+05 -2.4139E+03   1.1903E+05  0.000E+00  0.000E+00  0.000E+00  4.60346E+01  1.596E-01  2.000E+01  2.000E+04 -1.207E-01
   1   16    7     1     7    1.1903E+05 -2.4449E+03   1.2148E+05  0.000E+00  0.000E+00  0.000E+00  4.55593E+01  1.616E-01  2.000E+01  2.000E+04 -1.222E-01
   1   16    8     1     8    1.2148E+05 -2.4697E+03   1.2395E+05  0.000E+00  0.000E+00  0.000E+00  4.50840E+01  1.636E-01  2.000E+01  2.000E+04 -1.235E-01
   1   16    9     1     9    1.2395E+05 -2.4941E+03   1.2644E+05  0.000E+00  0.000E+00  0.000E+00  4.46087E+01  1.655E-01  2.000E+01  2.000E+04 -1.247E-01
   1   16   10     1    10    1.2644E+05 -2.5125E+03   1.2896E+05  0.000E+00  0.000E+00  0.000E+00  4.41334E+01  1.675E-01  2.000E+01  2.000E+04 -1.256E-01
   1   16   11     1    11    1.2896E+05 -2.5216E+03   1.3148E+05  0.000E+00  0.000E+00  0.000E+00  4.36581E+01  1.695E-01  2.000E+01  2.000E+04 -1.261E-01
   1   16   12     1    12    1.3148E+05 -3.3183E+03   1.3480E+05  0.000E+00  0.000E+00  0.000E+00  4.31831E+01  1.718E-01  2.000E+01  2.000E+04 -1.659E-01
   1   15   13     1    13    1.3480E+05 -3.3346E+03   1.3813E+05  0.000E+00  0.000E+00  0.000E+00  4.27084E+01  1.743E-01  2.000E+01  2.000E+04 -1.667E-01
   1   14   14     1    14    1.3813E+05 -3.5144E+03   1.4164E+05  0.000E+00  0.000E+00  0.000E+00  4.22337E+01  1.769E-01  2.000E+01  2.000E+04 -1.757E-01
   1   13   15     1    15    1.4164E+05 -3.8964E+03   1.4554E+05  0.000E+00  0.000E+00  0.000E+00  4.17593E+01  1.797E-01  2.000E+01  2.000E+04 -1.948E-01
   1   12   16     1    16    1.4554E+05 -5.2005E+03   1.5074E+05  0.000E+00  0.000E+00  0.000E+00  4.12854E+01  1.831E-01  2.000E+01  2.000E+04 -2.600E-01
   1   12   17     1    17    1.5074E+05 -3.3490E+03   1.5409E+05  0.000E+00  0.000E+00  0.000E+00  4.08113E+01  1.863E-01  2.000E+01  2.000E+04 -1.674E-01
   1   12   18     1    18    1.5409E+05 -3.2074E+03   1.5730E+05  0.000E+00  0.000E+00  0.000E+00  4.03364E+01  1.887E-01  2.000E+01  2.000E+04 -1.604E-01
   1   12   19     1    19    1.5730E+05 -4.2556E+03   1.6155E+05  0.000E+00  0.000E+00  0.000E+00  3.98618E+01  1.914E-01  2.000E+01  2.000E+04 -2.128E-01
   1   13   20     1    20    1.6155E+05 -2.5567E+03   1.6411E+05  0.000E+00  0.000E+00  0.000E+00  3.93870E+01  1.938E-01  2.000E+01  2.000E+04 -1.278E-01
   1   14   21     1    21    1.6411E+05 -1.5244E+03   1.6563E+05  0.000E+00  0.000E+00  0.000E+00  3.89112E+01  1.953E-01  2.000E+01  2.000E+04 -7.622E-02
   1   14   22     1    22    1.6563E+05  5.1497E+03   1.6048E+05  0.000E+00  0.000E+00  0.000E+00  3.84326E+01  1.940E-01  2.000E+01  2.000E+04  2.575E-01
   1    9   30     2     1    5.0000E+04 -2.5996E+03   5.2600E+04  0.000E+00  0.000E+00  0.000E+00  4.02427E+01  1.177E-01  2.000E+01  2.000E+04 -1.300E-01
   1    9   29     2     2    5.2600E+04 -2.9335E+03   5.5533E+04  0.000E+00  0.000E+00  0.000E+00  3.99964E+01  1.214E-01  2.000E+01  2.000E+04 -1.467E-01
   1    9   28     2     3    5.5533E+04 -3.3170E+03   5.8850E+04  0.000E+00  0.000E+00  0.000E+00  3.97506E+01  1.256E-01  2.000E+01  2.000E+04 -1.659E-01
   1    9   27     2     4    5.8850E+04 -6.0000E+03   6.4850E+04  0.000E+00  0.000E+00  0.000E+00  3.95066E+01  1.316E-01  2.000E+01  2.000E+04 -3.000E-01
   1   10   26     2     5    6.4850E+04 -3.6146E+03   6.8465E+04  0.000E+00  0.000E+00  0.000E+00  3.92627E+01  1.377E-01  2.000E+01  2.000E+04 -1.807E-01
   1   11   25     2     6    6.8465E+04 -2.5772E+03   7.1042E+04  0.000E+00  0.000E+00  0.000E+00  3.90165E+01  1.415E-01  2.000E+01  2.000E+04 -1.289E-01
   1   12   24     2     7    7.1042E+04 -1.7539E+03   7.2796E+04  0.000E+00  0.000E+00  0.000E+00  3.87691E+01  1.441E-01  2.000E+01  2.000E+04 -8.769E-02
   1   13   23     2     8    7.2796E+04 -9.7236E+02   7.3768E+04  0.000E+00  0.000E+00  0.000E+00  3.85207E+01  1.457E-01  2.000E+01  2.000E+04 -4.862E-02
   1   14   22     2     9    7.3768E+04  1.9012E+03   7.1867E+04  0.000E+00  0.000E+00  0.000E+00  3.82702E+01  1.452E-01  2.000E+01  2.000E+04  9.506E-02
   1   14   22     3     1    2.3235E+05 -8.3672E+03   2.4072E+05  0.000E+00  0.000E+00  0.000E+00  3.77568E+01  2.012E-01  2.000E+01  2.000E+04 -4.184E-01
   1   15   23     3     2    2.4072E+05 -1.7931E+03   2.4251E+05  0.000E+00  0.000E+00  0.000E+00  3.68705E+01  2.038E-01  2.000E+01  2.000E+04 -8.966E-02
   1   15   24     3     3    2.4251E+05 -1.2713E+03   2.4378E+05  0.000E+00  0.000E+00  0.000E+00  3.59823E+01  2.046E-01  2.000E+01  2.000E+04 -6.357E-02
   1   15   25     3     4    2.4378E+05 -1.2521E+03   2.4504E+05  0.000E+00  0.000E+00  0.000E+00  3.50941E+01  2.052E-01  2.000E+01  2.000E+04 -6.260E-02
   1   15   26     3     5    2.4504E+05 -1.7321E+03   2.4677E+05  0.000E+00  0.000E+00  0.000E+00  3.42059E+01  2.059E-01  2.000E+01  2.000E+04 -8.661E-02
   1   16   27     3     6    2.4677E+05 -2.0431E+03   2.4881E+05  0.000E+00  0.000E+00  0.000E+00  3.33180E+01  2.069E-01  2.000E+01  2.000E+04 -1.022E-01
   1   17   28     3     7    2.4881E+05 -2.2939E+03   2.5110E+05  0.000E+00  0.000E+00  0.000E+00  3.24302E+01  2.080E-01  2.000E+01  2.000E+04 -1.147E-01
   1   18   29     3     8    2.5110E+05 -2.5667E+03   2.5367E+05  0.000E+00  0.000E+00  0.000E+00  3.15425E+01  2.092E-01  2.000E+01  2.000E+04 -1.283E-01
   1   18   30     3     9    2.5367E+05 -2.5604E+03   2.5623E+05  0.000E+00  0.000E+00  0.000E+00  3.06549E+01  2.105E-01  2.000E+01  2.000E+04 -1.280E-01



1
              HEAD IN LAYER   1 AT END OF TIME STEP   1 IN STRESS PERIOD    7
  ---------------------------------------------------------------------------

          1      2      3      4      5      6      7      8      9     10
         11     12     13     14     15     16     17     18     19     20
         21     22     23     24     25     26     27     28     29     30
 .........................................................................
   1  ****** ****** ****** ****** ****** ****** ****** ****** ****** ******
      ****** ****** ****** ****** ****** ****** ****** ****** ****** ******
      ****** ****** ****** ****** ****** ****** ****** ****** ****** ******
   2  ****** ****** ****** ****** ****** ****** ****** ****** ****** ******
      ****** ****** ****** ****** ****** ****** ****** ****** ****** ******
      ****** ****** ****** ****** ****** ****** ****** ****** ****** ******
   3  ****** ****** ****** ****** ****** ****** ****** ****** ****** ******
      ****** ****** ****** ****** ****** ****** ****** ****** ****** ******
      ****** ****** ****** ****** ****** ****** ****** ****** ****** ******
   4  ****** ****** ****** ****** ****** ****** ****** ****** ****** ******
      ****** ****** ****** ****** ****** ****** ****** ****** ****** ******
      ****** ****** ****** ****** ****** ****** ****** ****** ****** ******
   5  ****** ****** ****** ****** ****** ****** ****** ****** ****** ******
      ****** ****** ****** ****** ****** ****** ****** ****** ****** ******
      ****** ****** ****** ****** ****** ****** ****** ****** ****** ******
   6  ****** ****** ****** ****** ****** ****** ****** ****** ****** ******
      ****** ****** ****** ****** ****** ****** ****** ****** ****** ******
      ****** ****** ****** ****** ****** ****** ****** ****** ****** ******
   7  ****** ****** ****** ****** ****** ****** ****** ****** ****** ******
      ****** ****** ****** ****** ****** ****** ****** ****** ****** ******
      ****** ****** ****** ****** ****** ****** ****** ****** ****** ******
   8  ****** ****** ****** ****** ****** ****** ****** ****** ****** ******
      ****** ****** ****** ****** ****** ****** ****** ****** ****** ******
      ****** ****** ****** ****** ****** ****** ****** ****** ****** ******
   9  ****** ****** ****** ****** ****** ****** ****** ****** ****** ******
      ****** ****** ****** ****** ****** ****** ****** ****** ****** ******
      ****** ****** ****** ****** ****** ****** ****** ****** ****** ******
  10  ****** ****** ****** ****** ****** ****** ****** ****** ****** ******
      ****** ****** ****** ****** ****** ****** ****** ****** ****** ******
      ****** ****** ****** ****** ****** ****** ****** ****** ****** ******
  11  ****** ****** ****** ****** ****** ****** ****** ****** ****** ******
      ****** ****** ****** ****** ****** ****** ****** ****** ****** ******
      ****** ****** ****** ****** ****** ****** ****** ****** ****** ******
  12  ****** ****** ****** ****** ****** ****** ****** ****** ****** ******
      ****** ****** ****** ****** ****** ****** ****** ****** ****** ******
      ****** ****** ****** ****** ****** ****** ****** ****** ****** ******
  13  ****** ****** ****** ****** ****** ****** ****** ****** ****** ******
      ****** ****** ****** ****** ****** ****** ****** ****** ****** ******
      ****** ****** ****** ****** ****** ****** ****** ****** ****** ******
  14  ****** ****** ****** ****** ****** ****** ****** ****** ****** ******
      ****** ****** ****** ****** ****** ****** ****** ****** ****** ******
      ****** ****** ****** ****** ****** ****** ****** ****** ****** ******
  15  ****** ****** ****** ****** ****** ****** ****** ****** ****** ******
      ****** ****** ****** ****** ****** ****** ****** ****** ****** ******
      ****** ****** ****** ****** ****** ****** ****** ****** ****** ******
  16  ****** ****** ****** ****** ****** ****** ****** ****** ****** ******
      ****** ****** ****** ****** ****** ****** ****** ****** ****** ******
      ****** ****** ****** ****** ****** ****** ****** ****** ****** ******
  17  ****** ****** ****** ****** ****** ****** ****** ****** ****** ******
      ****** ****** ****** ****** ****** ****** ****** ****** ****** ******
      ****** ****** ****** ****** ****** ****** ****** ****** ****** ******
  18  ****** ****** ****** ****** ****** ****** ****** ****** ****** ******
      ****** ****** ****** ****** ****** ****** ****** ****** ****** ******
      ****** ****** ****** ****** ****** ****** ****** ****** ****** ******
  19  ****** ****** ****** ****** ****** ****** ****** ****** ****** ******
      ****** ****** ****** ****** ****** ****** ****** ****** ****** ******
      ****** ****** ****** ****** ****** ****** ****** ****** ****** ******
  20  ****** ****** ****** ****** ****** ****** ****** ****** ****** ******
      ****** ****** ****** ****** ****** ****** ****** ****** ****** ******
      ****** ****** ****** ****** ****** ****** ****** ****** ****** ******
  21  ****** ****** ****** ****** ****** ****** ****** ****** ****** ******
      ****** ****** ****** ****** ****** ****** ****** ****** ****** ******
      ****** ****** ****** ****** ****** ****** ****** ****** ****** ******
  22  ****** ****** ****** ****** ****** ****** ****** ****** ****** ******
      ****** ****** ****** ****** ****** ****** ****** ****** ****** ******
      ****** ****** ****** ****** ****** ****** ****** ****** ****** ******
  23  ****** ****** ****** ****** ****** ****** ****** ****** ****** ******
      ****** ****** ****** ****** ****** ****** ****** ****** ****** ******
      ****** ****** ****** ****** ****** ****** ****** ****** ****** ******
  24  ****** ****** ****** ****** ****** ****** ****** ****** ****** ******
      ****** ****** ****** ****** ****** ****** ****** ****** ****** ******
      ****** ****** ****** ****** ****** ****** ****** ****** ****** ******
  25  ****** ****** ****** ****** ****** ****** ****** ****** ****** ******
      ****** ****** ****** ****** ****** ****** ****** ****** ****** ******
      ****** ****** ****** ****** ****** ****** ****** ****** ****** ******

 HEAD WILL BE SAVED ON UNIT   51 AT END OF TIME STEP    1, STRESS PERIOD    7
1
  VOLUMETRIC BUDGET FOR ENTIRE MODEL AT END OF TIME STEP    1, STRESS PERIOD   7
  ------------------------------------------------------------------------------

     CUMULATIVE VOLUMES      L**3       RATES FOR THIS TIME STEP      L**3/T
     ------------------                 ------------------------

           IN:                                      IN:
           ---                                      ---
             STORAGE =    24266179.3852               STORAGE =        9902.0312
       CONSTANT HEAD =   114489797.2301         CONSTANT HEAD =      187510.6408
               WELLS =           0.0000                 WELLS =           0.0000
            RECHARGE =    15097200.0000              RECHARGE =           0.0000
      STREAM LEAKAGE =     4238642.9428        STREAM LEAKAGE =        7050.9226

            TOTAL IN =   158091819.5581              TOTAL IN =      204463.5946

          OUT:                                     OUT:
          ----                                     ----
             STORAGE =     1026200.6191               STORAGE =         958.2389
       CONSTANT HEAD =           0.0000         CONSTANT HEAD =           0.0000
               WELLS =    64937212.3887                 WELLS =       90222.9254
            RECHARGE =           0.0000              RECHARGE =           0.0000
      STREAM LEAKAGE =    92128407.3316        STREAM LEAKAGE =      113282.4325

           TOTAL OUT =   158091820.3394             TOTAL OUT =      204463.5967

            IN - OUT =          -0.7813              IN - OUT =      -2.1137E-03

 PERCENT DISCREPANCY =          -0.00     PERCENT DISCREPANCY =          -0.00






         TIME SUMMARY AT END OF TIME STEP    1 IN STRESS PERIOD    7
                    SECONDS     MINUTES      HOURS       DAYS        YEARS
                    -----------------------------------------------------------
   TIME STEP LENGTH 7.86240E+06 1.31040E+05  2184.0      91.000     0.24914    
 STRESS PERIOD TIME 7.86240E+06 1.31040E+05  2184.0      91.000     0.24914    
         TOTAL TIME 5.52096E+07 9.20160E+05  15336.      639.00      1.7495    
1
1
                            STRESS PERIOD NO.    8, LENGTH =   91.00000    
                            -----------------------------------------------

                              NUMBER OF TIME STEPS =     1

                               MULTIPLIER FOR DELT =     1.500

                            INITIAL TIME STEP SIZE =   91.00000    

 WELL NO.  LAYER   ROW   COL   STRESS RATE         
 --------------------------------------------------
      1      1     23     29     -0.2744E+05
      2      1     23      8     -0.3195E+05
      3      1     23     22     -0.3083E+05

      3 WELLS

                 RECHARGE =  1.000000E-03

 REUSING STREAM SEGMENT DATA FROM LAST STRESS PERIOD
 
 SOLVING FOR HEAD 


     6 CALLS TO PCG ROUTINE FOR TIME STEP   1 IN STRESS PERIOD    8
    23 TOTAL ITERATIONS

 OUTPUT CONTROL FOR STRESS PERIOD    8   TIME STEP    1
    SAVE BUDGET
    SAVE HEAD FOR ALL LAYERS
    PRINT HEAD FOR ALL LAYERS
 UBDSV2 SAVING "STREAMFLOW OUT  " ON UNIT  50 AT TIME STEP  1, STRESS PERIOD   8



 STREAM LISTING     PERIOD      8   STEP        1

 LAYER ROW COL. STREAM  RCH.  FLOW INTO     FLOW TO   FLOW OUT OF   OVRLND.     DIRECT     STREAM       STREAM     STREAM     STREAM   STREAMBED  STREAMBED
                SEG.NO.  NO.  STRM. RCH.    AQUIFER    STRM. RCH.    RUNOFF     PRECIP       ET          HEAD       DEPTH      WIDTH   CONDCTNC.   GRADIENT

   1   13    1     1     1    1.0000E+05 -2.7505E+03   1.0275E+05  0.000E+00  0.000E+00  0.000E+00  4.84072E+01  1.458E-01  2.000E+01  2.000E+04 -1.375E-01
   1   13    2     1     2    1.0275E+05 -4.7082E+03   1.0746E+05  0.000E+00  0.000E+00  0.000E+00  4.79331E+01  1.490E-01  2.000E+01  2.000E+04 -2.354E-01
   1   14    3     1     3    1.0746E+05 -3.6293E+03   1.1109E+05  0.000E+00  0.000E+00  0.000E+00  4.74594E+01  1.526E-01  2.000E+01  2.000E+04 -1.815E-01
   1   15    4     1     4    1.1109E+05 -3.3713E+03   1.1446E+05  0.000E+00  0.000E+00  0.000E+00  4.69850E+01  1.555E-01  2.000E+01  2.000E+04 -1.686E-01
   1   16    5     1     5    1.1446E+05 -3.2746E+03   1.1773E+05  0.000E+00  0.000E+00  0.000E+00  4.65105E+01  1.582E-01  2.000E+01  2.000E+04 -1.637E-01
   1   16    6     1     6    1.1773E+05 -2.6031E+03   1.2034E+05  0.000E+00  0.000E+00  0.000E+00  4.60356E+01  1.606E-01  2.000E+01  2.000E+04 -1.302E-01
   1   16    7     1     7    1.2034E+05 -2.6364E+03   1.2297E+05  0.000E+00  0.000E+00  0.000E+00  4.55604E+01  1.627E-01  2.000E+01  2.000E+04 -1.318E-01
   1   16    8     1     8    1.2297E+05 -2.6630E+03   1.2564E+05  0.000E+00  0.000E+00  0.000E+00  4.50853E+01  1.648E-01  2.000E+01  2.000E+04 -1.331E-01
   1   16    9     1     9    1.2564E+05 -2.6878E+03   1.2832E+05  0.000E+00  0.000E+00  0.000E+00  4.46101E+01  1.669E-01  2.000E+01  2.000E+04 -1.344E-01
   1   16   10     1    10    1.2832E+05 -2.7056E+03   1.3103E+05  0.000E+00  0.000E+00  0.000E+00  4.41350E+01  1.691E-01  2.000E+01  2.000E+04 -1.353E-01
   1   16   11     1    11    1.3103E+05 -2.7144E+03   1.3374E+05  0.000E+00  0.000E+00  0.000E+00  4.36598E+01  1.712E-01  2.000E+01  2.000E+04 -1.357E-01
   1   16   12     1    12    1.3374E+05 -3.5718E+03   1.3732E+05  0.000E+00  0.000E+00  0.000E+00  4.31850E+01  1.736E-01  2.000E+01  2.000E+04 -1.786E-01
   1   15   13     1    13    1.3732E+05 -3.5993E+03   1.4092E+05  0.000E+00  0.000E+00  0.000E+00  4.27104E+01  1.763E-01  2.000E+01  2.000E+04 -1.800E-01
   1   14   14     1    14    1.4092E+05 -3.7777E+03   1.4469E+05  0.000E+00  0.000E+00  0.000E+00  4.22359E+01  1.791E-01  2.000E+01  2.000E+04 -1.889E-01
   1   13   15     1    15    1.4469E+05 -4.1494E+03   1.4884E+05  0.000E+00  0.000E+00  0.000E+00  4.17616E+01  1.821E-01  2.000E+01  2.000E+04 -2.075E-01
   1   12   16     1    16    1.4884E+05 -5.4225E+03   1.5426E+05  0.000E+00  0.000E+00  0.000E+00  4.12879E+01  1.856E-01  2.000E+01  2.000E+04 -2.711E-01
   1   12   17     1    17    1.5426E+05 -3.5302E+03   1.5780E+05  0.000E+00  0.000E+00  0.000E+00  4.08139E+01  1.889E-01  2.000E+01  2.000E+04 -1.765E-01
   1   12   18     1    18    1.5780E+05 -3.3892E+03   1.6118E+05  0.000E+00  0.000E+00  0.000E+00  4.03391E+01  1.914E-01  2.000E+01  2.000E+04 -1.695E-01
   1   12   19     1    19    1.6118E+05 -4.4733E+03   1.6566E+05  0.000E+00  0.000E+00  0.000E+00  3.98647E+01  1.942E-01  2.000E+01  2.000E+04 -2.237E-01
   1   13   20     1    20    1.6566E+05 -2.7978E+03   1.6846E+05  0.000E+00  0.000E+00  0.000E+00  3.93900E+01  1.968E-01  2.000E+01  2.000E+04 -1.399E-01
   1   14   21     1    21    1.6846E+05 -1.7652E+03   1.7022E+05  0.000E+00  0.000E+00  0.000E+00  3.89143E+01  1.984E-01  2.000E+01  2.000E+04 -8.826E-02
   1   14   22     1    22    1.7022E+05  5.0995E+03   1.6512E+05  0.000E+00  0.000E+00  0.000E+00  3.84359E+01  1.972E-01  2.000E+01  2.000E+04  2.550E-01
   1    9   30     2     1    5.0000E+04 -2.7788E+03   5.2779E+04  0.000E+00  0.000E+00  0.000E+00  4.02428E+01  1.178E-01  2.000E+01  2.000E+04 -1.389E-01
   1    9   29     2     2    5.2779E+04 -3.1109E+03   5.5890E+04  0.000E+00  0.000E+00  0.000E+00  3.99968E+01  1.218E-01  2.000E+01  2.000E+04 -1.555E-01
   1    9   28     2     3    5.5890E+04 -3.4917E+03   5.9381E+04  0.000E+00  0.000E+00  0.000E+00  3.97512E+01  1.262E-01  2.000E+01  2.000E+04 -1.746E-01
   1    9   27     2     4    5.9381E+04 -6.2196E+03   6.5601E+04  0.000E+00  0.000E+00  0.000E+00  3.95075E+01  1.325E-01  2.000E+01  2.000E+04 -3.110E-01
   1   10   26     2     5    6.5601E+04 -3.8513E+03   6.9452E+04  0.000E+00  0.000E+00  0.000E+00  3.92638E+01  1.388E-01  2.000E+01  2.000E+04 -1.926E-01
   1   11   25     2     6    6.9452E+04 -2.8075E+03   7.2260E+04  0.000E+00  0.000E+00  0.000E+00  3.90178E+01  1.428E-01  2.000E+01  2.000E+04 -1.404E-01
   1   12   24     2     7    7.2260E+04 -1.9633E+03   7.4223E+04  0.000E+00  0.000E+00  0.000E+00  3.87707E+01  1.457E-01  2.000E+01  2.000E+04 -9.816E-02
   1   13   23     2     8    7.4223E+04 -1.1433E+03   7.5366E+04  0.000E+00  0.000E+00  0.000E+00  3.85225E+01  1.475E-01  2.000E+01  2.000E+04 -5.717E-02
   1   14   22     2     9    7.5366E+04  1.8246E+03   7.3542E+04  0.000E+00  0.000E+00  0.000E+00  3.82721E+01  1.471E-01  2.000E+01  2.000E+04  9.123E-02
   1   14   22     3     1    2.3866E+05 -8.4185E+03   2.4708E+05  0.000E+00  0.000E+00  0.000E+00  3.77600E+01  2.044E-01  2.000E+01  2.000E+04 -4.209E-01
   1   15   23     3     2    2.4708E+05 -2.0433E+03   2.4912E+05  0.000E+00  0.000E+00  0.000E+00  3.68737E+01  2.071E-01  2.000E+01  2.000E+04 -1.022E-01
   1   15   24     3     3    2.4912E+05 -1.4554E+03   2.5058E+05  0.000E+00  0.000E+00  0.000E+00  3.59857E+01  2.079E-01  2.000E+01  2.000E+04 -7.277E-02
   1   15   25     3     4    2.5058E+05 -1.4332E+03   2.5201E+05  0.000E+00  0.000E+00  0.000E+00  3.50975E+01  2.086E-01  2.000E+01  2.000E+04 -7.166E-02
   1   15   26     3     5    2.5201E+05 -1.9491E+03   2.5396E+05  0.000E+00  0.000E+00  0.000E+00  3.42095E+01  2.095E-01  2.000E+01  2.000E+04 -9.745E-02
   1   16   27     3     6    2.5396E+05 -2.3271E+03   2.5629E+05  0.000E+00  0.000E+00  0.000E+00  3.33217E+01  2.105E-01  2.000E+01  2.000E+04 -1.164E-01
   1   17   28     3     7    2.5629E+05 -2.5960E+03   2.5889E+05  0.000E+00  0.000E+00  0.000E+00  3.24340E+01  2.118E-01  2.000E+01  2.000E+04 -1.298E-01
   1   18   29     3     8    2.5889E+05 -2.8797E+03   2.6177E+05  0.000E+00  0.000E+00  0.000E+00  3.15464E+01  2.131E-01  2.000E+01  2.000E+04 -1.440E-01
   1   18   30     3     9    2.6177E+05 -2.7896E+03   2.6455E+05  0.000E+00  0.000E+00  0.000E+00  3.06589E+01  2.145E-01  2.000E+01  2.000E+04 -1.395E-01



1
              HEAD IN LAYER   1 AT END OF TIME STEP   1 IN STRESS PERIOD    8
  ---------------------------------------------------------------------------

          1      2      3      4      5      6      7      8      9     10
         11     12     13     14     15     16     17     18     19     20
         21     22     23     24     25     26     27     28     29     30
 .........................................................................
   1  ****** ****** ****** ****** ****** ****** ****** ****** ****** ******
      ****** ****** ****** ****** ****** ****** ****** ****** ****** ******
      ****** ****** ****** ****** ****** ****** ****** ****** ****** ******
   2  ****** ****** ****** ****** ****** ****** ****** ****** ****** ******
      ****** ****** ****** ****** ****** ****** ****** ****** ****** ******
      ****** ****** ****** ****** ****** ****** ****** ****** ****** ******
   3  ****** ****** ****** ****** ****** ****** ****** ****** ****** ******
      ****** ****** ****** ****** ****** ****** ****** ****** ****** ******
      ****** ****** ****** ****** ****** ****** ****** ****** ****** ******
   4  ****** ****** ****** ****** ****** ****** ****** ****** ****** ******
      ****** ****** ****** ****** ****** ****** ****** ****** ****** ******
      ****** ****** ****** ****** ****** ****** ****** ****** ****** ******
   5  ****** ****** ****** ****** ****** ****** ****** ****** ****** ******
      ****** ****** ****** ****** ****** ****** ****** ****** ****** ******
      ****** ****** ****** ****** ****** ****** ****** ****** ****** ******
   6  ****** ****** ****** ****** ****** ****** ****** ****** ****** ******
      ****** ****** ****** ****** ****** ****** ****** ****** ****** ******
      ****** ****** ****** ****** ****** ****** ****** ****** ****** ******
   7  ****** ****** ****** ****** ****** ****** ****** ****** ****** ******
      ****** ****** ****** ****** ****** ****** ****** ****** ****** ******
      ****** ****** ****** ****** ****** ****** ****** ****** ****** ******
   8  ****** ****** ****** ****** ****** ****** ****** ****** ****** ******
      ****** ****** ****** ****** ****** ****** ****** ****** ****** ******
      ****** ****** ****** ****** ****** ****** ****** ****** ****** ******
   9  ****** ****** ****** ****** ****** ****** ****** ****** ****** ******
      ****** ****** ****** ****** ****** ****** ****** ****** ****** ******
      ****** ****** ****** ****** ****** ****** ****** ****** ****** ******
  10  ****** ****** ****** ****** ****** ****** ****** ****** ****** ******
      ****** ****** ****** ****** ****** ****** ****** ****** ****** ******
      ****** ****** ****** ****** ****** ****** ****** ****** ****** ******
  11  ****** ****** ****** ****** ****** ****** ****** ****** ****** ******
      ****** ****** ****** ****** ****** ****** ****** ****** ****** ******
      ****** ****** ****** ****** ****** ****** ****** ****** ****** ******
  12  ****** ****** ****** ****** ****** ****** ****** ****** ****** ******
      ****** ****** ****** ****** ****** ****** ****** ****** ****** ******
      ****** ****** ****** ****** ****** ****** ****** ****** ****** ******
  13  ****** ****** ****** ****** ****** ****** ****** ****** ****** ******
      ****** ****** ****** ****** ****** ****** ****** ****** ****** ******
      ****** ****** ****** ****** ****** ****** ****** ****** ****** ******
  14  ****** ****** ****** ****** ****** ****** ****** ****** ****** ******
      ****** ****** ****** ****** ****** ****** ****** ****** ****** ******
      ****** ****** ****** ****** ****** ****** ****** ****** ****** ******
  15  ****** ****** ****** ****** ****** ****** ****** ****** ****** ******
      ****** ****** ****** ****** ****** ****** ****** ****** ****** ******
      ****** ****** ****** ****** ****** ****** ****** ****** ****** ******
  16  ****** ****** ****** ****** ****** ****** ****** ****** ****** ******
      ****** ****** ****** ****** ****** ****** ****** ****** ****** ******
      ****** ****** ****** ****** ****** ****** ****** ****** ****** ******
  17  ****** ****** ****** ****** ****** ****** ****** ****** ****** ******
      ****** ****** ****** ****** ****** ****** ****** ****** ****** ******
      ****** ****** ****** ****** ****** ****** ****** ****** ****** ******
  18  ****** ****** ****** ****** ****** ****** ****** ****** ****** ******
      ****** ****** ****** ****** ****** ****** ****** ****** ****** ******
      ****** ****** ****** ****** ****** ****** ****** ****** ****** ******
  19  ****** ****** ****** ****** ****** ****** ****** ****** ****** ******
      ****** ****** ****** ****** ****** ****** ****** ****** ****** ******
      ****** ****** ****** ****** ****** ****** ****** ****** ****** ******
  20  ****** ****** ****** ****** ****** ****** ****** ****** ****** ******
      ****** ****** ****** ****** ****** ****** ****** ****** ****** ******
      ****** ****** ****** ****** ****** ****** ****** ****** ****** ******
  21  ****** ****** ****** ****** ****** ****** ****** ****** ****** ******
      ****** ****** ****** ****** ****** ****** ****** ****** ****** ******
      ****** ****** ****** ****** ****** ****** ****** ****** ****** ******
  22  ****** ****** ****** ****** ****** ****** ****** ****** ****** ******
      ****** ****** ****** ****** ****** ****** ****** ****** ****** ******
      ****** ****** ****** ****** ****** ****** ****** ****** ****** ******
  23  ****** ****** ****** ****** ****** ****** ****** ****** ****** ******
      ****** ****** ****** ****** ****** ****** ****** ****** ****** ******
      ****** ****** ****** ****** ****** ****** ****** ****** ****** ******
  24  ****** ****** ****** ****** ****** ****** ****** ****** ****** ******
      ****** ****** ****** ****** ****** ****** ****** ****** ****** ******
      ****** ****** ****** ****** ****** ****** ****** ****** ****** ******
  25  ****** ****** ****** ****** ****** ****** ****** ****** ****** ******
      ****** ****** ****** ****** ****** ****** ****** ****** ****** ******
      ****** ****** ****** ****** ****** ****** ****** ****** ****** ******

 HEAD WILL BE SAVED ON UNIT   51 AT END OF TIME STEP    1, STRESS PERIOD    8
1
  VOLUMETRIC BUDGET FOR ENTIRE MODEL AT END OF TIME STEP    1, STRESS PERIOD   8
  ------------------------------------------------------------------------------

     CUMULATIVE VOLUMES      L**3       RATES FOR THIS TIME STEP      L**3/T
     ------------------                 ------------------------

           IN:                                      IN:
           ---                                      ---
             STORAGE =    24266179.3852               STORAGE =           0.0000
       CONSTANT HEAD =   131024116.6924         CONSTANT HEAD =      181695.8183
               WELLS =           0.0000                 WELLS =           0.0000
            RECHARGE =    17608800.0000              RECHARGE =       27600.0000
      STREAM LEAKAGE =     4868730.5870        STREAM LEAKAGE =        6924.0400

            TOTAL IN =   177767826.6646              TOTAL IN =      216219.8583

          OUT:                                     OUT:
          ----                                     ----
             STORAGE =     1437335.9681               STORAGE =        4517.9709
       CONSTANT HEAD =           0.0000         CONSTANT HEAD =           0.0000
               WELLS =    73147498.5965                 WELLS =       90222.9254
            RECHARGE =           0.0000              RECHARGE =           0.0000
      STREAM LEAKAGE =   103182992.8031        STREAM LEAKAGE =      121478.9612

           TOTAL OUT =   177767827.3677             TOTAL OUT =      216219.8575

            IN - OUT =          -0.7030              IN - OUT =       8.5957E-04

 PERCENT DISCREPANCY =          -0.00     PERCENT DISCREPANCY =           0.00






         TIME SUMMARY AT END OF TIME STEP    1 IN STRESS PERIOD    8
                    SECONDS     MINUTES      HOURS       DAYS        YEARS
                    -----------------------------------------------------------
   TIME STEP LENGTH 7.86240E+06 1.31040E+05  2184.0      91.000     0.24914    
 STRESS PERIOD TIME 7.86240E+06 1.31040E+05  2184.0      91.000     0.24914    
         TOTAL TIME 6.30720E+07 1.05120E+06  17520.      730.00      1.9986    
1
1
                            STRESS PERIOD NO.    9, LENGTH =   92.00000    
                            -----------------------------------------------

                              NUMBER OF TIME STEPS =     1

                               MULTIPLIER FOR DELT =     1.500

                            INITIAL TIME STEP SIZE =   92.00000    

 WELL NO.  LAYER   ROW   COL   STRESS RATE         
 --------------------------------------------------
      1      1     23     29     -0.2744E+05
      2      1     23      8     -0.3195E+05
      3      1     23     22     -0.3083E+05

      3 WELLS

                 RECHARGE =  5.000000E-04

 REUSING STREAM SEGMENT DATA FROM LAST STRESS PERIOD
 
 SOLVING FOR HEAD 


     6 CALLS TO PCG ROUTINE FOR TIME STEP   1 IN STRESS PERIOD    9
    22 TOTAL ITERATIONS

 OUTPUT CONTROL FOR STRESS PERIOD    9   TIME STEP    1
    SAVE BUDGET
    SAVE HEAD FOR ALL LAYERS
    PRINT HEAD FOR ALL LAYERS
 UBDSV2 SAVING "STREAMFLOW OUT  " ON UNIT  50 AT TIME STEP  1, STRESS PERIOD   9



 STREAM LISTING     PERIOD      9   STEP        1

 LAYER ROW COL. STREAM  RCH.  FLOW INTO     FLOW TO   FLOW OUT OF   OVRLND.     DIRECT     STREAM       STREAM     STREAM     STREAM   STREAMBED  STREAMBED
                SEG.NO.  NO.  STRM. RCH.    AQUIFER    STRM. RCH.    RUNOFF     PRECIP       ET          HEAD       DEPTH      WIDTH   CONDCTNC.   GRADIENT

   1   13    1     1     1    1.0000E+05 -2.6364E+03   1.0264E+05  0.000E+00  0.000E+00  0.000E+00  4.84072E+01  1.458E-01  2.000E+01  2.000E+04 -1.318E-01
   1   13    2     1     2    1.0264E+05 -4.5573E+03   1.0719E+05  0.000E+00  0.000E+00  0.000E+00  4.79330E+01  1.489E-01  2.000E+01  2.000E+04 -2.279E-01
   1   14    3     1     3    1.0719E+05 -3.4777E+03   1.1067E+05  0.000E+00  0.000E+00  0.000E+00  4.74591E+01  1.523E-01  2.000E+01  2.000E+04 -1.739E-01
   1   15    4     1     4    1.1067E+05 -3.2237E+03   1.1390E+05  0.000E+00  0.000E+00  0.000E+00  4.69846E+01  1.551E-01  2.000E+01  2.000E+04 -1.612E-01
   1   16    5     1     5    1.1390E+05 -3.1443E+03   1.1704E+05  0.000E+00  0.000E+00  0.000E+00  4.65100E+01  1.577E-01  2.000E+01  2.000E+04 -1.572E-01
   1   16    6     1     6    1.1704E+05 -2.4977E+03   1.1954E+05  0.000E+00  0.000E+00  0.000E+00  4.60350E+01  1.600E-01  2.000E+01  2.000E+04 -1.249E-01
   1   16    7     1     7    1.1954E+05 -2.5292E+03   1.2207E+05  0.000E+00  0.000E+00  0.000E+00  4.55597E+01  1.620E-01  2.000E+01  2.000E+04 -1.265E-01
   1   16    8     1     8    1.2207E+05 -2.5551E+03   1.2462E+05  0.000E+00  0.000E+00  0.000E+00  4.50845E+01  1.641E-01  2.000E+01  2.000E+04 -1.278E-01
   1   16    9     1     9    1.2462E+05 -2.5803E+03   1.2720E+05  0.000E+00  0.000E+00  0.000E+00  4.46093E+01  1.661E-01  2.000E+01  2.000E+04 -1.290E-01
   1   16   10     1    10    1.2720E+05 -2.5997E+03   1.2980E+05  0.000E+00  0.000E+00  0.000E+00  4.41340E+01  1.681E-01  2.000E+01  2.000E+04 -1.300E-01
   1   16   11     1    11    1.2980E+05 -2.6113E+03   1.3241E+05  0.000E+00  0.000E+00  0.000E+00  4.36588E+01  1.702E-01  2.000E+01  2.000E+04 -1.306E-01
   1   16   12     1    12    1.3241E+05 -3.4466E+03   1.3586E+05  0.000E+00  0.000E+00  0.000E+00  4.31839E+01  1.725E-01  2.000E+01  2.000E+04 -1.723E-01
   1   15   13     1    13    1.3586E+05 -3.4567E+03   1.3932E+05  0.000E+00  0.000E+00  0.000E+00  4.27093E+01  1.752E-01  2.000E+01  2.000E+04 -1.728E-01
   1   14   14     1    14    1.3932E+05 -3.6303E+03   1.4295E+05  0.000E+00  0.000E+00  0.000E+00  4.22347E+01  1.779E-01  2.000E+01  2.000E+04 -1.815E-01
   1   13   15     1    15    1.4295E+05 -4.0019E+03   1.4695E+05  0.000E+00  0.000E+00  0.000E+00  4.17603E+01  1.807E-01  2.000E+01  2.000E+04 -2.001E-01
   1   12   16     1    16    1.4695E+05 -5.2782E+03   1.5223E+05  0.000E+00  0.000E+00  0.000E+00  4.12865E+01  1.842E-01  2.000E+01  2.000E+04 -2.639E-01
   1   12   17     1    17    1.5223E+05 -3.4244E+03   1.5565E+05  0.000E+00  0.000E+00  0.000E+00  4.08124E+01  1.874E-01  2.000E+01  2.000E+04 -1.712E-01
   1   12   18     1    18    1.5565E+05 -3.2857E+03   1.5894E+05  0.000E+00  0.000E+00  0.000E+00  4.03376E+01  1.898E-01  2.000E+01  2.000E+04 -1.643E-01
   1   12   19     1    19    1.5894E+05 -4.3457E+03   1.6328E+05  0.000E+00  0.000E+00  0.000E+00  3.98630E+01  1.926E-01  2.000E+01  2.000E+04 -2.173E-01
   1   13   20     1    20    1.6328E+05 -2.6783E+03   1.6596E+05  0.000E+00  0.000E+00  0.000E+00  3.93883E+01  1.951E-01  2.000E+01  2.000E+04 -1.339E-01
   1   14   21     1    21    1.6596E+05 -1.6653E+03   1.6763E+05  0.000E+00  0.000E+00  0.000E+00  3.89125E+01  1.966E-01  2.000E+01  2.000E+04 -8.327E-02
   1   14   22     1    22    1.6763E+05  5.1204E+03   1.6251E+05  0.000E+00  0.000E+00  0.000E+00  3.84340E+01  1.954E-01  2.000E+01  2.000E+04  2.560E-01
   1    9   30     2     1    5.0000E+04 -2.6793E+03   5.2679E+04  0.000E+00  0.000E+00  0.000E+00  4.02427E+01  1.177E-01  2.000E+01  2.000E+04 -1.340E-01
   1    9   29     2     2    5.2679E+04 -3.0121E+03   5.5691E+04  0.000E+00  0.000E+00  0.000E+00  3.99966E+01  1.216E-01  2.000E+01  2.000E+04 -1.506E-01
   1    9   28     2     3    5.5691E+04 -3.3935E+03   5.9085E+04  0.000E+00  0.000E+00  0.000E+00  3.97509E+01  1.259E-01  2.000E+01  2.000E+04 -1.697E-01
   1    9   27     2     4    5.9085E+04 -6.0903E+03   6.5175E+04  0.000E+00  0.000E+00  0.000E+00  3.95070E+01  1.320E-01  2.000E+01  2.000E+04 -3.045E-01
   1   10   26     2     5    6.5175E+04 -3.7155E+03   6.8891E+04  0.000E+00  0.000E+00  0.000E+00  3.92631E+01  1.381E-01  2.000E+01  2.000E+04 -1.858E-01
   1   11   25     2     6    6.8891E+04 -2.6764E+03   7.1567E+04  0.000E+00  0.000E+00  0.000E+00  3.90171E+01  1.421E-01  2.000E+01  2.000E+04 -1.338E-01
   1   12   24     2     7    7.1567E+04 -1.8455E+03   7.3413E+04  0.000E+00  0.000E+00  0.000E+00  3.87698E+01  1.448E-01  2.000E+01  2.000E+04 -9.227E-02
   1   13   23     2     8    7.3413E+04 -1.0495E+03   7.4462E+04  0.000E+00  0.000E+00  0.000E+00  3.85215E+01  1.465E-01  2.000E+01  2.000E+04 -5.248E-02
   1   14   22     2     9    7.4462E+04  1.8605E+03   7.2602E+04  0.000E+00  0.000E+00  0.000E+00  3.82710E+01  1.460E-01  2.000E+01  2.000E+04  9.302E-02
   1   14   22     3     1    2.3511E+05 -8.3968E+03   2.4350E+05  0.000E+00  0.000E+00  0.000E+00  3.77582E+01  2.026E-01  2.000E+01  2.000E+04 -4.198E-01
   1   15   23     3     2    2.4350E+05 -1.9573E+03   2.4546E+05  0.000E+00  0.000E+00  0.000E+00  3.68719E+01  2.052E-01  2.000E+01  2.000E+04 -9.786E-02
   1   15   24     3     3    2.4546E+05 -1.3874E+03   2.4685E+05  0.000E+00  0.000E+00  0.000E+00  3.59839E+01  2.061E-01  2.000E+01  2.000E+04 -6.937E-02
   1   15   25     3     4    2.4685E+05 -1.3617E+03   2.4821E+05  0.000E+00  0.000E+00  0.000E+00  3.50957E+01  2.068E-01  2.000E+01  2.000E+04 -6.808E-02
   1   15   26     3     5    2.4821E+05 -1.8511E+03   2.5006E+05  0.000E+00  0.000E+00  0.000E+00  3.42076E+01  2.076E-01  2.000E+01  2.000E+04 -9.255E-02
   1   16   27     3     6    2.5006E+05 -2.2133E+03   2.5227E+05  0.000E+00  0.000E+00  0.000E+00  3.33197E+01  2.086E-01  2.000E+01  2.000E+04 -1.107E-01
   1   17   28     3     7    2.5227E+05 -2.4839E+03   2.5476E+05  0.000E+00  0.000E+00  0.000E+00  3.24320E+01  2.098E-01  2.000E+01  2.000E+04 -1.242E-01
   1   18   29     3     8    2.5476E+05 -2.7839E+03   2.5754E+05  0.000E+00  0.000E+00  0.000E+00  3.15444E+01  2.111E-01  2.000E+01  2.000E+04 -1.392E-01
   1   18   30     3     9    2.5754E+05 -2.7108E+03   2.6025E+05  0.000E+00  0.000E+00  0.000E+00  3.06569E+01  2.124E-01  2.000E+01  2.000E+04 -1.355E-01



1
              HEAD IN LAYER   1 AT END OF TIME STEP   1 IN STRESS PERIOD    9
  ---------------------------------------------------------------------------

          1      2      3      4      5      6      7      8      9     10
         11     12     13     14     15     16     17     18     19     20
         21     22     23     24     25     26     27     28     29     30
 .........................................................................
   1  ****** ****** ****** ****** ****** ****** ****** ****** ****** ******
      ****** ****** ****** ****** ****** ****** ****** ****** ****** ******
      ****** ****** ****** ****** ****** ****** ****** ****** ****** ******
   2  ****** ****** ****** ****** ****** ****** ****** ****** ****** ******
      ****** ****** ****** ****** ****** ****** ****** ****** ****** ******
      ****** ****** ****** ****** ****** ****** ****** ****** ****** ******
   3  ****** ****** ****** ****** ****** ****** ****** ****** ****** ******
      ****** ****** ****** ****** ****** ****** ****** ****** ****** ******
      ****** ****** ****** ****** ****** ****** ****** ****** ****** ******
   4  ****** ****** ****** ****** ****** ****** ****** ****** ****** ******
      ****** ****** ****** ****** ****** ****** ****** ****** ****** ******
      ****** ****** ****** ****** ****** ****** ****** ****** ****** ******
   5  ****** ****** ****** ****** ****** ****** ****** ****** ****** ******
      ****** ****** ****** ****** ****** ****** ****** ****** ****** ******
      ****** ****** ****** ****** ****** ****** ****** ****** ****** ******
   6  ****** ****** ****** ****** ****** ****** ****** ****** ****** ******
      ****** ****** ****** ****** ****** ****** ****** ****** ****** ******
      ****** ****** ****** ****** ****** ****** ****** ****** ****** ******
   7  ****** ****** ****** ****** ****** ****** ****** ****** ****** ******
      ****** ****** ****** ****** ****** ****** ****** ****** ****** ******
      ****** ****** ****** ****** ****** ****** ****** ****** ****** ******
   8  ****** ****** ****** ****** ****** ****** ****** ****** ****** ******
      ****** ****** ****** ****** ****** ****** ****** ****** ****** ******
      ****** ****** ****** ****** ****** ****** ****** ****** ****** ******
   9  ****** ****** ****** ****** ****** ****** ****** ****** ****** ******
      ****** ****** ****** ****** ****** ****** ****** ****** ****** ******
      ****** ****** ****** ****** ****** ****** ****** ****** ****** ******
  10  ****** ****** ****** ****** ****** ****** ****** ****** ****** ******
      ****** ****** ****** ****** ****** ****** ****** ****** ****** ******
      ****** ****** ****** ****** ****** ****** ****** ****** ****** ******
  11  ****** ****** ****** ****** ****** ****** ****** ****** ****** ******
      ****** ****** ****** ****** ****** ****** ****** ****** ****** ******
      ****** ****** ****** ****** ****** ****** ****** ****** ****** ******
  12  ****** ****** ****** ****** ****** ****** ****** ****** ****** ******
      ****** ****** ****** ****** ****** ****** ****** ****** ****** ******
      ****** ****** ****** ****** ****** ****** ****** ****** ****** ******
  13  ****** ****** ****** ****** ****** ****** ****** ****** ****** ******
      ****** ****** ****** ****** ****** ****** ****** ****** ****** ******
      ****** ****** ****** ****** ****** ****** ****** ****** ****** ******
  14  ****** ****** ****** ****** ****** ****** ****** ****** ****** ******
      ****** ****** ****** ****** ****** ****** ****** ****** ****** ******
      ****** ****** ****** ****** ****** ****** ****** ****** ****** ******
  15  ****** ****** ****** ****** ****** ****** ****** ****** ****** ******
      ****** ****** ****** ****** ****** ****** ****** ****** ****** ******
      ****** ****** ****** ****** ****** ****** ****** ****** ****** ******
  16  ****** ****** ****** ****** ****** ****** ****** ****** ****** ******
      ****** ****** ****** ****** ****** ****** ****** ****** ****** ******
      ****** ****** ****** ****** ****** ****** ****** ****** ****** ******
  17  ****** ****** ****** ****** ****** ****** ****** ****** ****** ******
      ****** ****** ****** ****** ****** ****** ****** ****** ****** ******
      ****** ****** ****** ****** ****** ****** ****** ****** ****** ******
  18  ****** ****** ****** ****** ****** ****** ****** ****** ****** ******
      ****** ****** ****** ****** ****** ****** ****** ****** ****** ******
      ****** ****** ****** ****** ****** ****** ****** ****** ****** ******
  19  ****** ****** ****** ****** ****** ****** ****** ****** ****** ******
      ****** ****** ****** ****** ****** ****** ****** ****** ****** ******
      ****** ****** ****** ****** ****** ****** ****** ****** ****** ******
  20  ****** ****** ****** ****** ****** ****** ****** ****** ****** ******
      ****** ****** ****** ****** ****** ****** ****** ****** ****** ******
      ****** ****** ****** ****** ****** ****** ****** ****** ****** ******
  21  ****** ****** ****** ****** ****** ****** ****** ****** ****** ******
      ****** ****** ****** ****** ****** ****** ****** ****** ****** ******
      ****** ****** ****** ****** ****** ****** ****** ****** ****** ******
  22  ****** ****** ****** ****** ****** ****** ****** ****** ****** ******
      ****** ****** ****** ****** ****** ****** ****** ****** ****** ******
      ****** ****** ****** ****** ****** ****** ****** ****** ****** ******
  23  ****** ****** ****** ****** ****** ****** ****** ****** ****** ******
      ****** ****** ****** ****** ****** ****** ****** ****** ****** ******
      ****** ****** ****** ****** ****** ****** ****** ****** ****** ******
  24  ****** ****** ****** ****** ****** ****** ****** ****** ****** ******
      ****** ****** ****** ****** ****** ****** ****** ****** ****** ******
      ****** ****** ****** ****** ****** ****** ****** ****** ****** ******
  25  ****** ****** ****** ****** ****** ****** ****** ****** ****** ******
      ****** ****** ****** ****** ****** ****** ****** ****** ****** ******
      ****** ****** ****** ****** ****** ****** ****** ****** ****** ******

 HEAD WILL BE SAVED ON UNIT   51 AT END OF TIME STEP    1, STRESS PERIOD    9
1
  VOLUMETRIC BUDGET FOR ENTIRE MODEL AT END OF TIME STEP    1, STRESS PERIOD   9
  ------------------------------------------------------------------------------

     CUMULATIVE VOLUMES      L**3       RATES FOR THIS TIME STEP      L**3/T
     ------------------                 ------------------------

           IN:                                      IN:
           ---                                      ---
             STORAGE =    24488694.6936               STORAGE =        2418.6447
       CONSTANT HEAD =   147975827.2344         CONSTANT HEAD =      184257.7233
               WELLS =           0.0000                 WELLS =           0.0000
            RECHARGE =    18878400.0000              RECHARGE =       13800.0000
      STREAM LEAKAGE =     5510974.7128        STREAM LEAKAGE =        6980.9144

            TOTAL IN =   196853896.6409              TOTAL IN =      207457.2824

          OUT:                                     OUT:
          ----                                     ----
             STORAGE =     1437335.9681               STORAGE =           0.0000
       CONSTANT HEAD =           0.0000         CONSTANT HEAD =           0.0000
               WELLS =    81448007.7297                 WELLS =       90222.9254
            RECHARGE =           0.0000              RECHARGE =           0.0000
      STREAM LEAKAGE =   113968553.9139        STREAM LEAKAGE =      117234.3599

           TOTAL OUT =   196853897.6117             TOTAL OUT =      207457.2853

            IN - OUT =          -0.9708              IN - OUT =      -2.9105E-03

 PERCENT DISCREPANCY =          -0.00     PERCENT DISCREPANCY =          -0.00






         TIME SUMMARY AT END OF TIME STEP    1 IN STRESS PERIOD    9
                    SECONDS     MINUTES      HOURS       DAYS        YEARS
                    -----------------------------------------------------------
   TIME STEP LENGTH 7.94880E+06 1.32480E+05  2208.0      92.000     0.25188    
 STRESS PERIOD TIME 7.94880E+06 1.32480E+05  2208.0      92.000     0.25188    
         TOTAL TIME 7.10208E+07 1.18368E+06  19728.      822.00      2.2505    
1
1
                            STRESS PERIOD NO.   10, LENGTH =   91.00000    
                            -----------------------------------------------

                              NUMBER OF TIME STEPS =     1

                               MULTIPLIER FOR DELT =     1.500

                            INITIAL TIME STEP SIZE =   91.00000    

 WELL NO.  LAYER   ROW   COL   STRESS RATE         
 --------------------------------------------------
      1      1     23     29     -0.2744E+05
      2      1     23      8     -0.3195E+05
      3      1     23     22     -0.3083E+05

      3 WELLS

                 RECHARGE =  2.000000E-03

 REUSING STREAM SEGMENT DATA FROM LAST STRESS PERIOD
 
 SOLVING FOR HEAD 


     7 CALLS TO PCG ROUTINE FOR TIME STEP   1 IN STRESS PERIOD   10
    26 TOTAL ITERATIONS

 OUTPUT CONTROL FOR STRESS PERIOD   10   TIME STEP    1
    SAVE BUDGET
    SAVE HEAD FOR ALL LAYERS
    PRINT HEAD FOR ALL LAYERS
 UBDSV2 SAVING "STREAMFLOW OUT  " ON UNIT  50 AT TIME STEP  1, STRESS PERIOD  10



 STREAM LISTING     PERIOD     10   STEP        1

 LAYER ROW COL. STREAM  RCH.  FLOW INTO     FLOW TO   FLOW OUT OF   OVRLND.     DIRECT     STREAM       STREAM     STREAM     STREAM   STREAMBED  STREAMBED
                SEG.NO.  NO.  STRM. RCH.    AQUIFER    STRM. RCH.    RUNOFF     PRECIP       ET          HEAD       DEPTH      WIDTH   CONDCTNC.   GRADIENT

   1   13    1     1     1    1.0000E+05 -3.0601E+03   1.0306E+05  0.000E+00  0.000E+00  0.000E+00  4.84073E+01  1.460E-01  2.000E+01  2.000E+04 -1.530E-01
   1   13    2     1     2    1.0306E+05 -5.1199E+03   1.0818E+05  0.000E+00  0.000E+00  0.000E+00  4.79336E+01  1.495E-01  2.000E+01  2.000E+04 -2.560E-01
   1   14    3     1     3    1.0818E+05 -4.0455E+03   1.1223E+05  0.000E+00  0.000E+00  0.000E+00  4.74602E+01  1.533E-01  2.000E+01  2.000E+04 -2.023E-01
   1   15    4     1     4    1.1223E+05 -3.7849E+03   1.1601E+05  0.000E+00  0.000E+00  0.000E+00  4.69861E+01  1.566E-01  2.000E+01  2.000E+04 -1.892E-01
   1   16    5     1     5    1.1601E+05 -3.6618E+03   1.1967E+05  0.000E+00  0.000E+00  0.000E+00  4.65119E+01  1.596E-01  2.000E+01  2.000E+04 -1.831E-01
   1   16    6     1     6    1.1967E+05 -2.9067E+03   1.2258E+05  0.000E+00  0.000E+00  0.000E+00  4.60373E+01  1.623E-01  2.000E+01  2.000E+04 -1.453E-01
   1   16    7     1     7    1.2258E+05 -2.9450E+03   1.2552E+05  0.000E+00  0.000E+00  0.000E+00  4.55623E+01  1.646E-01  2.000E+01  2.000E+04 -1.473E-01
   1   16    8     1     8    1.2552E+05 -2.9748E+03   1.2850E+05  0.000E+00  0.000E+00  0.000E+00  4.50874E+01  1.670E-01  2.000E+01  2.000E+04 -1.487E-01
   1   16    9     1     9    1.2850E+05 -3.0001E+03   1.3150E+05  0.000E+00  0.000E+00  0.000E+00  4.46125E+01  1.693E-01  2.000E+01  2.000E+04 -1.500E-01
   1   16   10     1    10    1.3150E+05 -3.0158E+03   1.3451E+05  0.000E+00  0.000E+00  0.000E+00  4.41376E+01  1.717E-01  2.000E+01  2.000E+04 -1.508E-01
   1   16   11     1    11    1.3451E+05 -3.0220E+03   1.3754E+05  0.000E+00  0.000E+00  0.000E+00  4.36626E+01  1.740E-01  2.000E+01  2.000E+04 -1.511E-01
   1   16   12     1    12    1.3754E+05 -3.9766E+03   1.4151E+05  0.000E+00  0.000E+00  0.000E+00  4.31880E+01  1.767E-01  2.000E+01  2.000E+04 -1.988E-01
   1   15   13     1    13    1.4151E+05 -4.0329E+03   1.4555E+05  0.000E+00  0.000E+00  0.000E+00  4.27138E+01  1.797E-01  2.000E+01  2.000E+04 -2.016E-01
   1   14   14     1    14    1.4555E+05 -4.2175E+03   1.4976E+05  0.000E+00  0.000E+00  0.000E+00  4.22396E+01  1.828E-01  2.000E+01  2.000E+04 -2.109E-01
   1   13   15     1    15    1.4976E+05 -4.5795E+03   1.5434E+05  0.000E+00  0.000E+00  0.000E+00  4.17655E+01  1.860E-01  2.000E+01  2.000E+04 -2.290E-01
   1   12   16     1    16    1.5434E+05 -5.8318E+03   1.6018E+05  0.000E+00  0.000E+00  0.000E+00  4.12921E+01  1.898E-01  2.000E+01  2.000E+04 -2.916E-01
   1   12   17     1    17    1.6018E+05 -3.8345E+03   1.6401E+05  0.000E+00  0.000E+00  0.000E+00  4.08183E+01  1.933E-01  2.000E+01  2.000E+04 -1.917E-01
   1   12   18     1    18    1.6401E+05 -3.6880E+03   1.6770E+05  0.000E+00  0.000E+00  0.000E+00  4.03437E+01  1.960E-01  2.000E+01  2.000E+04 -1.844E-01
   1   12   19     1    19    1.6770E+05 -4.8348E+03   1.7253E+05  0.000E+00  0.000E+00  0.000E+00  3.98694E+01  1.990E-01  2.000E+01  2.000E+04 -2.417E-01
   1   13   20     1    20    1.7253E+05 -3.1547E+03   1.7569E+05  0.000E+00  0.000E+00  0.000E+00  3.93949E+01  2.018E-01  2.000E+01  2.000E+04 -1.577E-01
   1   14   21     1    21    1.7569E+05 -2.1068E+03   1.7779E+05  0.000E+00  0.000E+00  0.000E+00  3.89195E+01  2.036E-01  2.000E+01  2.000E+04 -1.053E-01
   1   14   22     1    22    1.7779E+05  5.0392E+03   1.7275E+05  0.000E+00  0.000E+00  0.000E+00  3.84412E+01  2.026E-01  2.000E+01  2.000E+04  2.520E-01
   1    9   30     2     1    5.0000E+04 -3.0407E+03   5.3041E+04  0.000E+00  0.000E+00  0.000E+00  4.02430E+01  1.180E-01  2.000E+01  2.000E+04 -1.520E-01
   1    9   29     2     2    5.3041E+04 -3.3708E+03   5.6411E+04  0.000E+00  0.000E+00  0.000E+00  3.99973E+01  1.223E-01  2.000E+01  2.000E+04 -1.685E-01
   1    9   28     2     3    5.6411E+04 -3.7506E+03   6.0162E+04  0.000E+00  0.000E+00  0.000E+00  3.97520E+01  1.270E-01  2.000E+01  2.000E+04 -1.875E-01
   1    9   27     2     4    6.0162E+04 -6.5700E+03   6.6732E+04  0.000E+00  0.000E+00  0.000E+00  3.95087E+01  1.337E-01  2.000E+01  2.000E+04 -3.285E-01
   1   10   26     2     5    6.6732E+04 -4.2109E+03   7.0943E+04  0.000E+00  0.000E+00  0.000E+00  3.92654E+01  1.404E-01  2.000E+01  2.000E+04 -2.105E-01
   1   11   25     2     6    7.0943E+04 -3.1504E+03   7.4093E+04  0.000E+00  0.000E+00  0.000E+00  3.90198E+01  1.448E-01  2.000E+01  2.000E+04 -1.575E-01
   1   12   24     2     7    7.4093E+04 -2.2644E+03   7.6358E+04  0.000E+00  0.000E+00  0.000E+00  3.87730E+01  1.480E-01  2.000E+01  2.000E+04 -1.132E-01
   1   13   23     2     8    7.6358E+04 -1.3760E+03   7.7734E+04  0.000E+00  0.000E+00  0.000E+00  3.85252E+01  1.502E-01  2.000E+01  2.000E+04 -6.880E-02
   1   14   22     2     9    7.7734E+04  1.7149E+03   7.6019E+04  0.000E+00  0.000E+00  0.000E+00  3.82750E+01  1.500E-01  2.000E+01  2.000E+04  8.575E-02
   1   14   22     3     1    2.4877E+05 -8.4836E+03   2.5726E+05  0.000E+00  0.000E+00  0.000E+00  3.77651E+01  2.095E-01  2.000E+01  2.000E+04 -4.242E-01
   1   15   23     3     2    2.5726E+05 -2.3710E+03   2.5963E+05  0.000E+00  0.000E+00  0.000E+00  3.68789E+01  2.122E-01  2.000E+01  2.000E+04 -1.185E-01
   1   15   24     3     3    2.5963E+05 -1.6838E+03   2.6131E+05  0.000E+00  0.000E+00  0.000E+00  3.59910E+01  2.132E-01  2.000E+01  2.000E+04 -8.419E-02
   1   15   25     3     4    2.6131E+05 -1.6569E+03   2.6297E+05  0.000E+00  0.000E+00  0.000E+00  3.51029E+01  2.140E-01  2.000E+01  2.000E+04 -8.284E-02
   1   15   26     3     5    2.6297E+05 -2.2280E+03   2.6520E+05  0.000E+00  0.000E+00  0.000E+00  3.42150E+01  2.150E-01  2.000E+01  2.000E+04 -1.114E-01
   1   16   27     3     6    2.6520E+05 -2.6896E+03   2.6789E+05  0.000E+00  0.000E+00  0.000E+00  3.33273E+01  2.162E-01  2.000E+01  2.000E+04 -1.345E-01
   1   17   28     3     7    2.6789E+05 -2.9714E+03   2.7086E+05  0.000E+00  0.000E+00  0.000E+00  3.24397E+01  2.175E-01  2.000E+01  2.000E+04 -1.486E-01
   1   18   29     3     8    2.7086E+05 -3.2440E+03   2.7410E+05  0.000E+00  0.000E+00  0.000E+00  3.15524E+01  2.190E-01  2.000E+01  2.000E+04 -1.622E-01
   1   18   30     3     9    2.7410E+05 -3.0550E+03   2.7716E+05  0.000E+00  0.000E+00  0.000E+00  3.06650E+01  2.205E-01  2.000E+01  2.000E+04 -1.528E-01



1
              HEAD IN LAYER   1 AT END OF TIME STEP   1 IN STRESS PERIOD   10
  ---------------------------------------------------------------------------

          1      2      3      4      5      6      7      8      9     10
         11     12     13     14     15     16     17     18     19     20
         21     22     23     24     25     26     27     28     29     30
 .........................................................................
   1  ****** ****** ****** ****** ****** ****** ****** ****** ****** ******
      ****** ****** ****** ****** ****** ****** ****** ****** ****** ******
      ****** ****** ****** ****** ****** ****** ****** ****** ****** ******
   2  ****** ****** ****** ****** ****** ****** ****** ****** ****** ******
      ****** ****** ****** ****** ****** ****** ****** ****** ****** ******
      ****** ****** ****** ****** ****** ****** ****** ****** ****** ******
   3  ****** ****** ****** ****** ****** ****** ****** ****** ****** ******
      ****** ****** ****** ****** ****** ****** ****** ****** ****** ******
      ****** ****** ****** ****** ****** ****** ****** ****** ****** ******
   4  ****** ****** ****** ****** ****** ****** ****** ****** ****** ******
      ****** ****** ****** ****** ****** ****** ****** ****** ****** ******
      ****** ****** ****** ****** ****** ****** ****** ****** ****** ******
   5  ****** ****** ****** ****** ****** ****** ****** ****** ****** ******
      ****** ****** ****** ****** ****** ****** ****** ****** ****** ******
      ****** ****** ****** ****** ****** ****** ****** ****** ****** ******
   6  ****** ****** ****** ****** ****** ****** ****** ****** ****** ******
      ****** ****** ****** ****** ****** ****** ****** ****** ****** ******
      ****** ****** ****** ****** ****** ****** ****** ****** ****** ******
   7  ****** ****** ****** ****** ****** ****** ****** ****** ****** ******
      ****** ****** ****** ****** ****** ****** ****** ****** ****** ******
      ****** ****** ****** ****** ****** ****** ****** ****** ****** ******
   8  ****** ****** ****** ****** ****** ****** ****** ****** ****** ******
      ****** ****** ****** ****** ****** ****** ****** ****** ****** ******
      ****** ****** ****** ****** ****** ****** ****** ****** ****** ******
   9  ****** ****** ****** ****** ****** ****** ****** ****** ****** ******
      ****** ****** ****** ****** ****** ****** ****** ****** ****** ******
      ****** ****** ****** ****** ****** ****** ****** ****** ****** ******
  10  ****** ****** ****** ****** ****** ****** ****** ****** ****** ******
      ****** ****** ****** ****** ****** ****** ****** ****** ****** ******
      ****** ****** ****** ****** ****** ****** ****** ****** ****** ******
  11  ****** ****** ****** ****** ****** ****** ****** ****** ****** ******
      ****** ****** ****** ****** ****** ****** ****** ****** ****** ******
      ****** ****** ****** ****** ****** ****** ****** ****** ****** ******
  12  ****** ****** ****** ****** ****** ****** ****** ****** ****** ******
      ****** ****** ****** ****** ****** ****** ****** ****** ****** ******
      ****** ****** ****** ****** ****** ****** ****** ****** ****** ******
  13  ****** ****** ****** ****** ****** ****** ****** ****** ****** ******
      ****** ****** ****** ****** ****** ****** ****** ****** ****** ******
      ****** ****** ****** ****** ****** ****** ****** ****** ****** ******
  14  ****** ****** ****** ****** ****** ****** ****** ****** ****** ******
      ****** ****** ****** ****** ****** ****** ****** ****** ****** ******
      ****** ****** ****** ****** ****** ****** ****** ****** ****** ******
  15  ****** ****** ****** ****** ****** ****** ****** ****** ****** ******
      ****** ****** ****** ****** ****** ****** ****** ****** ****** ******
      ****** ****** ****** ****** ****** ****** ****** ****** ****** ******
  16  ****** ****** ****** ****** ****** ****** ****** ****** ****** ******
      ****** ****** ****** ****** ****** ****** ****** ****** ****** ******
      ****** ****** ****** ****** ****** ****** ****** ****** ****** ******
  17  ****** ****** ****** ****** ****** ****** ****** ****** ****** ******
      ****** ****** ****** ****** ****** ****** ****** ****** ****** ******
      ****** ****** ****** ****** ****** ****** ****** ****** ****** ******
  18  ****** ****** ****** ****** ****** ****** ****** ****** ****** ******
      ****** ****** ****** ****** ****** ****** ****** ****** ****** ******
      ****** ****** ****** ****** ****** ****** ****** ****** ****** ******
  19  ****** ****** ****** ****** ****** ****** ****** ****** ****** ******
      ****** ****** ****** ****** ****** ****** ****** ****** ****** ******
      ****** ****** ****** ****** ****** ****** ****** ****** ****** ******
  20  ****** ****** ****** ****** ****** ****** ****** ****** ****** ******
      ****** ****** ****** ****** ****** ****** ****** ****** ****** ******
      ****** ****** ****** ****** ****** ****** ****** ****** ****** ******
  21  ****** ****** ****** ****** ****** ****** ****** ****** ****** ******
      ****** ****** ****** ****** ****** ****** ****** ****** ****** ******
      ****** ****** ****** ****** ****** ****** ****** ****** ****** ******
  22  ****** ****** ****** ****** ****** ****** ****** ****** ****** ******
      ****** ****** ****** ****** ****** ****** ****** ****** ****** ******
      ****** ****** ****** ****** ****** ****** ****** ****** ****** ******
  23  ****** ****** ****** ****** ****** ****** ****** ****** ****** ******
      ****** ****** ****** ****** ****** ****** ****** ****** ****** ******
      ****** ****** ****** ****** ****** ****** ****** ****** ****** ******
  24  ****** ****** ****** ****** ****** ****** ****** ****** ****** ******
      ****** ****** ****** ****** ****** ****** ****** ****** ****** ******
      ****** ****** ****** ****** ****** ****** ****** ****** ****** ******
  25  ****** ****** ****** ****** ****** ****** ****** ****** ****** ******
      ****** ****** ****** ****** ****** ****** ****** ****** ****** ******
      ****** ****** ****** ****** ****** ****** ****** ****** ****** ******

 HEAD WILL BE SAVED ON UNIT   51 AT END OF TIME STEP    1, STRESS PERIOD   10
1
  VOLUMETRIC BUDGET FOR ENTIRE MODEL AT END OF TIME STEP    1, STRESS PERIOD  10
  ------------------------------------------------------------------------------

     CUMULATIVE VOLUMES      L**3       RATES FOR THIS TIME STEP      L**3/T
     ------------------                 ------------------------

           IN:                                      IN:
           ---                                      ---
             STORAGE =    24488694.6936               STORAGE =           0.0000
       CONSTANT HEAD =   163720488.5734         CONSTANT HEAD =      173018.2565
               WELLS =           0.0000                 WELLS =           0.0000
            RECHARGE =    23901600.0000              RECHARGE =       55200.0000
      STREAM LEAKAGE =     6125595.3359        STREAM LEAKAGE =        6754.0728

            TOTAL IN =   218236378.6029              TOTAL IN =      234972.3293

          OUT:                                     OUT:
          ----                                     ----
             STORAGE =     2423627.6077               STORAGE =       10838.3697
       CONSTANT HEAD =           0.0000         CONSTANT HEAD =           0.0000
               WELLS =    89658293.9375                 WELLS =       90222.9254
            RECHARGE =           0.0000              RECHARGE =           0.0000
      STREAM LEAKAGE =   126154457.8731        STREAM LEAKAGE =      133911.0325

           TOTAL OUT =   218236379.4183             TOTAL OUT =      234972.3275

            IN - OUT =          -0.8154              IN - OUT =       1.7082E-03

 PERCENT DISCREPANCY =          -0.00     PERCENT DISCREPANCY =           0.00






         TIME SUMMARY AT END OF TIME STEP    1 IN STRESS PERIOD   10
                    SECONDS     MINUTES      HOURS       DAYS        YEARS
                    -----------------------------------------------------------
   TIME STEP LENGTH 7.86240E+06 1.31040E+05  2184.0      91.000     0.24914    
 STRESS PERIOD TIME 7.86240E+06 1.31040E+05  2184.0      91.000     0.24914    
         TOTAL TIME 7.88832E+07 1.31472E+06  21912.      913.00      2.4997    
1
1
                            STRESS PERIOD NO.   11, LENGTH =   91.00000    
                            -----------------------------------------------

                              NUMBER OF TIME STEPS =     1

                               MULTIPLIER FOR DELT =     1.500

                            INITIAL TIME STEP SIZE =   91.00000    

 WELL NO.  LAYER   ROW   COL   STRESS RATE         
 --------------------------------------------------
      1      1     23     29     -0.2744E+05
      2      1     23      8     -0.3195E+05
      3      1     23     22     -0.3083E+05

      3 WELLS

                 RECHARGE =   0.00000    

 REUSING STREAM SEGMENT DATA FROM LAST STRESS PERIOD
 
 SOLVING FOR HEAD 


     7 CALLS TO PCG ROUTINE FOR TIME STEP   1 IN STRESS PERIOD   11
    26 TOTAL ITERATIONS

 OUTPUT CONTROL FOR STRESS PERIOD   11   TIME STEP    1
    SAVE BUDGET
    SAVE HEAD FOR ALL LAYERS
    PRINT HEAD FOR ALL LAYERS
 UBDSV2 SAVING "STREAMFLOW OUT  " ON UNIT  50 AT TIME STEP  1, STRESS PERIOD  11



 STREAM LISTING     PERIOD     11   STEP        1

 LAYER ROW COL. STREAM  RCH.  FLOW INTO     FLOW TO   FLOW OUT OF   OVRLND.     DIRECT     STREAM       STREAM     STREAM     STREAM   STREAMBED  STREAMBED
                SEG.NO.  NO.  STRM. RCH.    AQUIFER    STRM. RCH.    RUNOFF     PRECIP       ET          HEAD       DEPTH      WIDTH   CONDCTNC.   GRADIENT

   1   13    1     1     1    1.0000E+05 -2.5761E+03   1.0258E+05  0.000E+00  0.000E+00  0.000E+00  4.84071E+01  1.458E-01  2.000E+01  2.000E+04 -1.288E-01
   1   13    2     1     2    1.0258E+05 -4.4871E+03   1.0706E+05  0.000E+00  0.000E+00  0.000E+00  4.79329E+01  1.488E-01  2.000E+01  2.000E+04 -2.244E-01
   1   14    3     1     3    1.0706E+05 -3.3911E+03   1.1045E+05  0.000E+00  0.000E+00  0.000E+00  4.74589E+01  1.521E-01  2.000E+01  2.000E+04 -1.696E-01
   1   15    4     1     4    1.1045E+05 -3.1338E+03   1.1359E+05  0.000E+00  0.000E+00  0.000E+00  4.69844E+01  1.548E-01  2.000E+01  2.000E+04 -1.567E-01
   1   16    5     1     5    1.1359E+05 -3.0610E+03   1.1665E+05  0.000E+00  0.000E+00  0.000E+00  4.65097E+01  1.574E-01  2.000E+01  2.000E+04 -1.531E-01
   1   16    6     1     6    1.1665E+05 -2.4314E+03   1.1908E+05  0.000E+00  0.000E+00  0.000E+00  4.60346E+01  1.596E-01  2.000E+01  2.000E+04 -1.216E-01
   1   16    7     1     7    1.1908E+05 -2.4628E+03   1.2154E+05  0.000E+00  0.000E+00  0.000E+00  4.55594E+01  1.616E-01  2.000E+01  2.000E+04 -1.231E-01
   1   16    8     1     8    1.2154E+05 -2.4886E+03   1.2403E+05  0.000E+00  0.000E+00  0.000E+00  4.50841E+01  1.636E-01  2.000E+01  2.000E+04 -1.244E-01
   1   16    9     1     9    1.2403E+05 -2.5142E+03   1.2655E+05  0.000E+00  0.000E+00  0.000E+00  4.46088E+01  1.656E-01  2.000E+01  2.000E+04 -1.257E-01
   1   16   10     1    10    1.2655E+05 -2.5341E+03   1.2908E+05  0.000E+00  0.000E+00  0.000E+00  4.41335E+01  1.676E-01  2.000E+01  2.000E+04 -1.267E-01
   1   16   11     1    11    1.2908E+05 -2.5466E+03   1.3163E+05  0.000E+00  0.000E+00  0.000E+00  4.36582E+01  1.696E-01  2.000E+01  2.000E+04 -1.273E-01
   1   16   12     1    12    1.3163E+05 -3.3688E+03   1.3500E+05  0.000E+00  0.000E+00  0.000E+00  4.31833E+01  1.719E-01  2.000E+01  2.000E+04 -1.684E-01
   1   15   13     1    13    1.3500E+05 -3.3707E+03   1.3837E+05  0.000E+00  0.000E+00  0.000E+00  4.27086E+01  1.745E-01  2.000E+01  2.000E+04 -1.685E-01
   1   14   14     1    14    1.3837E+05 -3.5440E+03   1.4191E+05  0.000E+00  0.000E+00  0.000E+00  4.22339E+01  1.771E-01  2.000E+01  2.000E+04 -1.772E-01
   1   13   15     1    15    1.4191E+05 -3.9176E+03   1.4583E+05  0.000E+00  0.000E+00  0.000E+00  4.17595E+01  1.799E-01  2.000E+01  2.000E+04 -1.959E-01
   1   12   16     1    16    1.4583E+05 -5.2048E+03   1.5103E+05  0.000E+00  0.000E+00  0.000E+00  4.12856E+01  1.833E-01  2.000E+01  2.000E+04 -2.602E-01
   1   12   17     1    17    1.5103E+05 -3.3617E+03   1.5439E+05  0.000E+00  0.000E+00  0.000E+00  4.08115E+01  1.865E-01  2.000E+01  2.000E+04 -1.681E-01
   1   12   18     1    18    1.5439E+05 -3.2218E+03   1.5762E+05  0.000E+00  0.000E+00  0.000E+00  4.03366E+01  1.889E-01  2.000E+01  2.000E+04 -1.611E-01
   1   12   19     1    19    1.5762E+05 -4.2661E+03   1.6188E+05  0.000E+00  0.000E+00  0.000E+00  3.98621E+01  1.916E-01  2.000E+01  2.000E+04 -2.133E-01
   1   13   20     1    20    1.6188E+05 -2.5929E+03   1.6448E+05  0.000E+00  0.000E+00  0.000E+00  3.93872E+01  1.941E-01  2.000E+01  2.000E+04 -1.296E-01
   1   14   21     1    21    1.6448E+05 -1.5934E+03   1.6607E+05  0.000E+00  0.000E+00  0.000E+00  3.89115E+01  1.955E-01  2.000E+01  2.000E+04 -7.967E-02
   1   14   22     1    22    1.6607E+05  5.1401E+03   1.6093E+05  0.000E+00  0.000E+00  0.000E+00  3.84329E+01  1.943E-01  2.000E+01  2.000E+04  2.570E-01
   1    9   30     2     1    5.0000E+04 -2.5993E+03   5.2599E+04  0.000E+00  0.000E+00  0.000E+00  4.02427E+01  1.177E-01  2.000E+01  2.000E+04 -1.300E-01
   1    9   29     2     2    5.2599E+04 -2.9331E+03   5.5532E+04  0.000E+00  0.000E+00  0.000E+00  3.99964E+01  1.214E-01  2.000E+01  2.000E+04 -1.467E-01
   1    9   28     2     3    5.5532E+04 -3.3164E+03   5.8849E+04  0.000E+00  0.000E+00  0.000E+00  3.97506E+01  1.256E-01  2.000E+01  2.000E+04 -1.658E-01
   1    9   27     2     4    5.8849E+04 -5.9983E+03   6.4847E+04  0.000E+00  0.000E+00  0.000E+00  3.95066E+01  1.316E-01  2.000E+01  2.000E+04 -2.999E-01
   1   10   26     2     5    6.4847E+04 -3.6133E+03   6.8460E+04  0.000E+00  0.000E+00  0.000E+00  3.92627E+01  1.377E-01  2.000E+01  2.000E+04 -1.807E-01
   1   11   25     2     6    6.8460E+04 -2.5760E+03   7.1036E+04  0.000E+00  0.000E+00  0.000E+00  3.90165E+01  1.415E-01  2.000E+01  2.000E+04 -1.288E-01
   1   12   24     2     7    7.1036E+04 -1.7532E+03   7.2790E+04  0.000E+00  0.000E+00  0.000E+00  3.87691E+01  1.441E-01  2.000E+01  2.000E+04 -8.766E-02
   1   13   23     2     8    7.2790E+04 -9.7315E+02   7.3763E+04  0.000E+00  0.000E+00  0.000E+00  3.85207E+01  1.457E-01  2.000E+01  2.000E+04 -4.866E-02
   1   14   22     2     9    7.3763E+04  1.8854E+03   7.1877E+04  0.000E+00  0.000E+00  0.000E+00  3.82702E+01  1.452E-01  2.000E+01  2.000E+04  9.427E-02
   1   14   22     3     1    2.3281E+05 -8.3784E+03   2.4118E+05  0.000E+00  0.000E+00  0.000E+00  3.77570E+01  2.014E-01  2.000E+01  2.000E+04 -4.189E-01
   1   15   23     3     2    2.4118E+05 -1.8915E+03   2.4308E+05  0.000E+00  0.000E+00  0.000E+00  3.68707E+01  2.040E-01  2.000E+01  2.000E+04 -9.458E-02
   1   15   24     3     3    2.4308E+05 -1.3298E+03   2.4441E+05  0.000E+00  0.000E+00  0.000E+00  3.59826E+01  2.049E-01  2.000E+01  2.000E+04 -6.649E-02
   1   15   25     3     4    2.4441E+05 -1.2990E+03   2.4570E+05  0.000E+00  0.000E+00  0.000E+00  3.50944E+01  2.055E-01  2.000E+01  2.000E+04 -6.495E-02
   1   15   26     3     5    2.4570E+05 -1.7643E+03   2.4747E+05  0.000E+00  0.000E+00  0.000E+00  3.42063E+01  2.063E-01  2.000E+01  2.000E+04 -8.821E-02
   1   16   27     3     6    2.4747E+05 -2.1147E+03   2.4958E+05  0.000E+00  0.000E+00  0.000E+00  3.33184E+01  2.073E-01  2.000E+01  2.000E+04 -1.057E-01
   1   17   28     3     7    2.4958E+05 -2.3861E+03   2.5197E+05  0.000E+00  0.000E+00  0.000E+00  3.24306E+01  2.084E-01  2.000E+01  2.000E+04 -1.193E-01
   1   18   29     3     8    2.5197E+05 -2.6989E+03   2.5467E+05  0.000E+00  0.000E+00  0.000E+00  3.15430E+01  2.097E-01  2.000E+01  2.000E+04 -1.349E-01
   1   18   30     3     9    2.5467E+05 -2.6390E+03   2.5731E+05  0.000E+00  0.000E+00  0.000E+00  3.06554E+01  2.110E-01  2.000E+01  2.000E+04 -1.320E-01



1
              HEAD IN LAYER   1 AT END OF TIME STEP   1 IN STRESS PERIOD   11
  ---------------------------------------------------------------------------

          1      2      3      4      5      6      7      8      9     10
         11     12     13     14     15     16     17     18     19     20
         21     22     23     24     25     26     27     28     29     30
 .........................................................................
   1  ****** ****** ****** ****** ****** ****** ****** ****** ****** ******
      ****** ****** ****** ****** ****** ****** ****** ****** ****** ******
      ****** ****** ****** ****** ****** ****** ****** ****** ****** ******
   2  ****** ****** ****** ****** ****** ****** ****** ****** ****** ******
      ****** ****** ****** ****** ****** ****** ****** ****** ****** ******
      ****** ****** ****** ****** ****** ****** ****** ****** ****** ******
   3  ****** ****** ****** ****** ****** ****** ****** ****** ****** ******
      ****** ****** ****** ****** ****** ****** ****** ****** ****** ******
      ****** ****** ****** ****** ****** ****** ****** ****** ****** ******
   4  ****** ****** ****** ****** ****** ****** ****** ****** ****** ******
      ****** ****** ****** ****** ****** ****** ****** ****** ****** ******
      ****** ****** ****** ****** ****** ****** ****** ****** ****** ******
   5  ****** ****** ****** ****** ****** ****** ****** ****** ****** ******
      ****** ****** ****** ****** ****** ****** ****** ****** ****** ******
      ****** ****** ****** ****** ****** ****** ****** ****** ****** ******
   6  ****** ****** ****** ****** ****** ****** ****** ****** ****** ******
      ****** ****** ****** ****** ****** ****** ****** ****** ****** ******
      ****** ****** ****** ****** ****** ****** ****** ****** ****** ******
   7  ****** ****** ****** ****** ****** ****** ****** ****** ****** ******
      ****** ****** ****** ****** ****** ****** ****** ****** ****** ******
      ****** ****** ****** ****** ****** ****** ****** ****** ****** ******
   8  ****** ****** ****** ****** ****** ****** ****** ****** ****** ******
      ****** ****** ****** ****** ****** ****** ****** ****** ****** ******
      ****** ****** ****** ****** ****** ****** ****** ****** ****** ******
   9  ****** ****** ****** ****** ****** ****** ****** ****** ****** ******
      ****** ****** ****** ****** ****** ****** ****** ****** ****** ******
      ****** ****** ****** ****** ****** ****** ****** ****** ****** ******
  10  ****** ****** ****** ****** ****** ****** ****** ****** ****** ******
      ****** ****** ****** ****** ****** ****** ****** ****** ****** ******
      ****** ****** ****** ****** ****** ****** ****** ****** ****** ******
  11  ****** ****** ****** ****** ****** ****** ****** ****** ****** ******
      ****** ****** ****** ****** ****** ****** ****** ****** ****** ******
      ****** ****** ****** ****** ****** ****** ****** ****** ****** ******
  12  ****** ****** ****** ****** ****** ****** ****** ****** ****** ******
      ****** ****** ****** ****** ****** ****** ****** ****** ****** ******
      ****** ****** ****** ****** ****** ****** ****** ****** ****** ******
  13  ****** ****** ****** ****** ****** ****** ****** ****** ****** ******
      ****** ****** ****** ****** ****** ****** ****** ****** ****** ******
      ****** ****** ****** ****** ****** ****** ****** ****** ****** ******
  14  ****** ****** ****** ****** ****** ****** ****** ****** ****** ******
      ****** ****** ****** ****** ****** ****** ****** ****** ****** ******
      ****** ****** ****** ****** ****** ****** ****** ****** ****** ******
  15  ****** ****** ****** ****** ****** ****** ****** ****** ****** ******
      ****** ****** ****** ****** ****** ****** ****** ****** ****** ******
      ****** ****** ****** ****** ****** ****** ****** ****** ****** ******
  16  ****** ****** ****** ****** ****** ****** ****** ****** ****** ******
      ****** ****** ****** ****** ****** ****** ****** ****** ****** ******
      ****** ****** ****** ****** ****** ****** ****** ****** ****** ******
  17  ****** ****** ****** ****** ****** ****** ****** ****** ****** ******
      ****** ****** ****** ****** ****** ****** ****** ****** ****** ******
      ****** ****** ****** ****** ****** ****** ****** ****** ****** ******
  18  ****** ****** ****** ****** ****** ****** ****** ****** ****** ******
      ****** ****** ****** ****** ****** ****** ****** ****** ****** ******
      ****** ****** ****** ****** ****** ****** ****** ****** ****** ******
  19  ****** ****** ****** ****** ****** ****** ****** ****** ****** ******
      ****** ****** ****** ****** ****** ****** ****** ****** ****** ******
      ****** ****** ****** ****** ****** ****** ****** ****** ****** ******
  20  ****** ****** ****** ****** ****** ****** ****** ****** ****** ******
      ****** ****** ****** ****** ****** ****** ****** ****** ****** ******
      ****** ****** ****** ****** ****** ****** ****** ****** ****** ******
  21  ****** ****** ****** ****** ****** ****** ****** ****** ****** ******
      ****** ****** ****** ****** ****** ****** ****** ****** ****** ******
      ****** ****** ****** ****** ****** ****** ****** ****** ****** ******
  22  ****** ****** ****** ****** ****** ****** ****** ****** ****** ******
      ****** ****** ****** ****** ****** ****** ****** ****** ****** ******
      ****** ****** ****** ****** ****** ****** ****** ****** ****** ******
  23  ****** ****** ****** ****** ****** ****** ****** ****** ****** ******
      ****** ****** ****** ****** ****** ****** ****** ****** ****** ******
      ****** ****** ****** ****** ****** ****** ****** ****** ****** ******
  24  ****** ****** ****** ****** ****** ****** ****** ****** ****** ******
      ****** ****** ****** ****** ****** ****** ****** ****** ****** ******
      ****** ****** ****** ****** ****** ****** ****** ****** ****** ******
  25  ****** ****** ****** ****** ****** ****** ****** ****** ****** ******
      ****** ****** ****** ****** ****** ****** ****** ****** ****** ******
      ****** ****** ****** ****** ****** ****** ****** ****** ****** ******

 HEAD WILL BE SAVED ON UNIT   51 AT END OF TIME STEP    1, STRESS PERIOD   11
1
  VOLUMETRIC BUDGET FOR ENTIRE MODEL AT END OF TIME STEP    1, STRESS PERIOD  11
  ------------------------------------------------------------------------------

     CUMULATIVE VOLUMES      L**3       RATES FOR THIS TIME STEP      L**3/T
     ------------------                 ------------------------

           IN:                                      IN:
           ---                                      ---
             STORAGE =    25564743.6894               STORAGE =       11824.7142
       CONSTANT HEAD =   180619725.9661         CONSTANT HEAD =      185705.9054
               WELLS =           0.0000                 WELLS =           0.0000
            RECHARGE =    23901600.0000              RECHARGE =           0.0000
      STREAM LEAKAGE =     6764910.5358        STREAM LEAKAGE =        7025.4418

            TOTAL IN =   236850980.1913              TOTAL IN =      204556.0614

          OUT:                                     OUT:
          ----                                     ----
             STORAGE =     2423627.6077               STORAGE =           0.0000
       CONSTANT HEAD =           0.0000         CONSTANT HEAD =           0.0000
               WELLS =    97868580.1453                 WELLS =       90222.9254
            RECHARGE =           0.0000              RECHARGE =           0.0000
      STREAM LEAKAGE =   136558773.4441        STREAM LEAKAGE =      114333.1381

           TOTAL OUT =   236850981.1971             TOTAL OUT =      204556.0635

            IN - OUT =          -1.0058              IN - OUT =      -2.0929E-03

 PERCENT DISCREPANCY =          -0.00     PERCENT DISCREPANCY =          -0.00






         TIME SUMMARY AT END OF TIME STEP    1 IN STRESS PERIOD   11
                    SECONDS     MINUTES      HOURS       DAYS        YEARS
                    -----------------------------------------------------------
   TIME STEP LENGTH 7.86240E+06 1.31040E+05  2184.0      91.000     0.24914    
 STRESS PERIOD TIME 7.86240E+06 1.31040E+05  2184.0      91.000     0.24914    
         TOTAL TIME 8.67456E+07 1.44576E+06  24096.      1004.0      2.7488    
1
1
                            STRESS PERIOD NO.   12, LENGTH =   91.00000    
                            -----------------------------------------------

                              NUMBER OF TIME STEPS =     1

                               MULTIPLIER FOR DELT =     1.500

                            INITIAL TIME STEP SIZE =   91.00000    

 WELL NO.  LAYER   ROW   COL   STRESS RATE         
 --------------------------------------------------
      1      1     23     29     -0.2744E+05
      2      1     23      8     -0.3195E+05
      3      1     23     22     -0.3083E+05

      3 WELLS

                 RECHARGE =  1.000000E-03

 REUSING STREAM SEGMENT DATA FROM LAST STRESS PERIOD
 
 SOLVING FOR HEAD 


     6 CALLS TO PCG ROUTINE FOR TIME STEP   1 IN STRESS PERIOD   12
    23 TOTAL ITERATIONS

 OUTPUT CONTROL FOR STRESS PERIOD   12   TIME STEP    1
    SAVE BUDGET
    SAVE HEAD FOR ALL LAYERS
    PRINT HEAD FOR ALL LAYERS
 UBDSV2 SAVING "STREAMFLOW OUT  " ON UNIT  50 AT TIME STEP  1, STRESS PERIOD  12



 STREAM LISTING     PERIOD     12   STEP        1

 LAYER ROW COL. STREAM  RCH.  FLOW INTO     FLOW TO   FLOW OUT OF   OVRLND.     DIRECT     STREAM       STREAM     STREAM     STREAM   STREAMBED  STREAMBED
                SEG.NO.  NO.  STRM. RCH.    AQUIFER    STRM. RCH.    RUNOFF     PRECIP       ET          HEAD       DEPTH      WIDTH   CONDCTNC.   GRADIENT

   1   13    1     1     1    1.0000E+05 -2.7497E+03   1.0275E+05  0.000E+00  0.000E+00  0.000E+00  4.84072E+01  1.458E-01  2.000E+01  2.000E+04 -1.375E-01
   1   13    2     1     2    1.0275E+05 -4.7052E+03   1.0745E+05  0.000E+00  0.000E+00  0.000E+00  4.79331E+01  1.490E-01  2.000E+01  2.000E+04 -2.353E-01
   1   14    3     1     3    1.0745E+05 -3.6302E+03   1.1109E+05  0.000E+00  0.000E+00  0.000E+00  4.74594E+01  1.526E-01  2.000E+01  2.000E+04 -1.815E-01
   1   15    4     1     4    1.1109E+05 -3.3751E+03   1.1446E+05  0.000E+00  0.000E+00  0.000E+00  4.69850E+01  1.555E-01  2.000E+01  2.000E+04 -1.688E-01
   1   16    5     1     5    1.1446E+05 -3.2838E+03   1.1774E+05  0.000E+00  0.000E+00  0.000E+00  4.65105E+01  1.582E-01  2.000E+01  2.000E+04 -1.642E-01
   1   16    6     1     6    1.1774E+05 -2.6087E+03   1.2035E+05  0.000E+00  0.000E+00  0.000E+00  4.60356E+01  1.606E-01  2.000E+01  2.000E+04 -1.304E-01
   1   16    7     1     7    1.2035E+05 -2.6420E+03   1.2299E+05  0.000E+00  0.000E+00  0.000E+00  4.55604E+01  1.627E-01  2.000E+01  2.000E+04 -1.321E-01
   1   16    8     1     8    1.2299E+05 -2.6689E+03   1.2566E+05  0.000E+00  0.000E+00  0.000E+00  4.50853E+01  1.648E-01  2.000E+01  2.000E+04 -1.334E-01
   1   16    9     1     9    1.2566E+05 -2.6944E+03   1.2836E+05  0.000E+00  0.000E+00  0.000E+00  4.46101E+01  1.670E-01  2.000E+01  2.000E+04 -1.347E-01
   1   16   10     1    10    1.2836E+05 -2.7132E+03   1.3107E+05  0.000E+00  0.000E+00  0.000E+00  4.41350E+01  1.691E-01  2.000E+01  2.000E+04 -1.357E-01
   1   16   11     1    11    1.3107E+05 -2.7238E+03   1.3380E+05  0.000E+00  0.000E+00  0.000E+00  4.36598E+01  1.712E-01  2.000E+01  2.000E+04 -1.362E-01
   1   16   12     1    12    1.3380E+05 -3.5923E+03   1.3739E+05  0.000E+00  0.000E+00  0.000E+00  4.31850E+01  1.736E-01  2.000E+01  2.000E+04 -1.796E-01
   1   15   13     1    13    1.3739E+05 -3.6146E+03   1.4100E+05  0.000E+00  0.000E+00  0.000E+00  4.27105E+01  1.764E-01  2.000E+01  2.000E+04 -1.807E-01
   1   14   14     1    14    1.4100E+05 -3.7904E+03   1.4479E+05  0.000E+00  0.000E+00  0.000E+00  4.22360E+01  1.792E-01  2.000E+01  2.000E+04 -1.895E-01
   1   13   15     1    15    1.4479E+05 -4.1585E+03   1.4895E+05  0.000E+00  0.000E+00  0.000E+00  4.17617E+01  1.822E-01  2.000E+01  2.000E+04 -2.079E-01
   1   12   16     1    16    1.4895E+05 -5.4245E+03   1.5438E+05  0.000E+00  0.000E+00  0.000E+00  4.12880E+01  1.857E-01  2.000E+01  2.000E+04 -2.712E-01
   1   12   17     1    17    1.5438E+05 -3.5356E+03   1.5791E+05  0.000E+00  0.000E+00  0.000E+00  4.08140E+01  1.890E-01  2.000E+01  2.000E+04 -1.768E-01
   1   12   18     1    18    1.5791E+05 -3.3952E+03   1.6131E+05  0.000E+00  0.000E+00  0.000E+00  4.03392E+01  1.915E-01  2.000E+01  2.000E+04 -1.698E-01
   1   12   19     1    19    1.6131E+05 -4.4776E+03   1.6578E+05  0.000E+00  0.000E+00  0.000E+00  3.98648E+01  1.943E-01  2.000E+01  2.000E+04 -2.239E-01
   1   13   20     1    20    1.6578E+05 -2.8122E+03   1.6860E+05  0.000E+00  0.000E+00  0.000E+00  3.93901E+01  1.969E-01  2.000E+01  2.000E+04 -1.406E-01
   1   14   21     1    21    1.6860E+05 -1.7909E+03   1.7039E+05  0.000E+00  0.000E+00  0.000E+00  3.89144E+01  1.985E-01  2.000E+01  2.000E+04 -8.955E-02
   1   14   22     1    22    1.7039E+05  5.0961E+03   1.6529E+05  0.000E+00  0.000E+00  0.000E+00  3.84360E+01  1.974E-01  2.000E+01  2.000E+04  2.548E-01
   1    9   30     2     1    5.0000E+04 -2.7787E+03   5.2779E+04  0.000E+00  0.000E+00  0.000E+00  4.02428E+01  1.178E-01  2.000E+01  2.000E+04 -1.389E-01
   1    9   29     2     2    5.2779E+04 -3.1107E+03   5.5889E+04  0.000E+00  0.000E+00  0.000E+00  3.99968E+01  1.218E-01  2.000E+01  2.000E+04 -1.555E-01
   1    9   28     2     3    5.5889E+04 -3.4915E+03   5.9381E+04  0.000E+00  0.000E+00  0.000E+00  3.97512E+01  1.262E-01  2.000E+01  2.000E+04 -1.746E-01
   1    9   27     2     4    5.9381E+04 -6.2189E+03   6.5600E+04  0.000E+00  0.000E+00  0.000E+00  3.95075E+01  1.325E-01  2.000E+01  2.000E+04 -3.109E-01
   1   10   26     2     5    6.5600E+04 -3.8508E+03   6.9451E+04  0.000E+00  0.000E+00  0.000E+00  3.92638E+01  1.388E-01  2.000E+01  2.000E+04 -1.925E-01
   1   11   25     2     6    6.9451E+04 -2.8071E+03   7.2258E+04  0.000E+00  0.000E+00  0.000E+00  3.90178E+01  1.428E-01  2.000E+01  2.000E+04 -1.404E-01
   1   12   24     2     7    7.2258E+04 -1.9630E+03   7.4221E+04  0.000E+00  0.000E+00  0.000E+00  3.87707E+01  1.457E-01  2.000E+01  2.000E+04 -9.815E-02
   1   13   23     2     8    7.4221E+04 -1.1436E+03   7.5364E+04  0.000E+00  0.000E+00  0.000E+00  3.85225E+01  1.475E-01  2.000E+01  2.000E+04 -5.718E-02
   1   14   22     2     9    7.5364E+04  1.8189E+03   7.3546E+04  0.000E+00  0.000E+00  0.000E+00  3.82721E+01  1.471E-01  2.000E+01  2.000E+04  9.094E-02
   1   14   22     3     1    2.3884E+05 -8.4225E+03   2.4726E+05  0.000E+00  0.000E+00  0.000E+00  3.77601E+01  2.045E-01  2.000E+01  2.000E+04 -4.211E-01
   1   15   23     3     2    2.4726E+05 -2.0769E+03   2.4934E+05  0.000E+00  0.000E+00  0.000E+00  3.68738E+01  2.071E-01  2.000E+01  2.000E+04 -1.038E-01
   1   15   24     3     3    2.4934E+05 -1.4747E+03   2.5081E+05  0.000E+00  0.000E+00  0.000E+00  3.59858E+01  2.080E-01  2.000E+01  2.000E+04 -7.373E-02
   1   15   25     3     4    2.5081E+05 -1.4485E+03   2.5226E+05  0.000E+00  0.000E+00  0.000E+00  3.50977E+01  2.088E-01  2.000E+01  2.000E+04 -7.242E-02
   1   15   26     3     5    2.5226E+05 -1.9595E+03   2.5422E+05  0.000E+00  0.000E+00  0.000E+00  3.42096E+01  2.096E-01  2.000E+01  2.000E+04 -9.797E-02
   1   16   27     3     6    2.5422E+05 -2.3496E+03   2.5657E+05  0.000E+00  0.000E+00  0.000E+00  3.33218E+01  2.107E-01  2.000E+01  2.000E+04 -1.175E-01
   1   17   28     3     7    2.5657E+05 -2.6236E+03   2.5919E+05  0.000E+00  0.000E+00  0.000E+00  3.24341E+01  2.119E-01  2.000E+01  2.000E+04 -1.312E-01
   1   18   29     3     8    2.5919E+05 -2.9161E+03   2.6211E+05  0.000E+00  0.000E+00  0.000E+00  3.15466E+01  2.133E-01  2.000E+01  2.000E+04 -1.458E-01
   1   18   30     3     9    2.6211E+05 -2.8100E+03   2.6492E+05  0.000E+00  0.000E+00  0.000E+00  3.06591E+01  2.147E-01  2.000E+01  2.000E+04 -1.405E-01



1
              HEAD IN LAYER   1 AT END OF TIME STEP   1 IN STRESS PERIOD   12
  ---------------------------------------------------------------------------

          1      2      3      4      5      6      7      8      9     10
         11     12     13     14     15     16     17     18     19     20
         21     22     23     24     25     26     27     28     29     30
 .........................................................................
   1  ****** ****** ****** ****** ****** ****** ****** ****** ****** ******
      ****** ****** ****** ****** ****** ****** ****** ****** ****** ******
      ****** ****** ****** ****** ****** ****** ****** ****** ****** ******
   2  ****** ****** ****** ****** ****** ****** ****** ****** ****** ******
      ****** ****** ****** ****** ****** ****** ****** ****** ****** ******
      ****** ****** ****** ****** ****** ****** ****** ****** ****** ******
   3  ****** ****** ****** ****** ****** ****** ****** ****** ****** ******
      ****** ****** ****** ****** ****** ****** ****** ****** ****** ******
      ****** ****** ****** ****** ****** ****** ****** ****** ****** ******
   4  ****** ****** ****** ****** ****** ****** ****** ****** ****** ******
      ****** ****** ****** ****** ****** ****** ****** ****** ****** ******
      ****** ****** ****** ****** ****** ****** ****** ****** ****** ******
   5  ****** ****** ****** ****** ****** ****** ****** ****** ****** ******
      ****** ****** ****** ****** ****** ****** ****** ****** ****** ******
      ****** ****** ****** ****** ****** ****** ****** ****** ****** ******
   6  ****** ****** ****** ****** ****** ****** ****** ****** ****** ******
      ****** ****** ****** ****** ****** ****** ****** ****** ****** ******
      ****** ****** ****** ****** ****** ****** ****** ****** ****** ******
   7  ****** ****** ****** ****** ****** ****** ****** ****** ****** ******
      ****** ****** ****** ****** ****** ****** ****** ****** ****** ******
      ****** ****** ****** ****** ****** ****** ****** ****** ****** ******
   8  ****** ****** ****** ****** ****** ****** ****** ****** ****** ******
      ****** ****** ****** ****** ****** ****** ****** ****** ****** ******
      ****** ****** ****** ****** ****** ****** ****** ****** ****** ******
   9  ****** ****** ****** ****** ****** ****** ****** ****** ****** ******
      ****** ****** ****** ****** ****** ****** ****** ****** ****** ******
      ****** ****** ****** ****** ****** ****** ****** ****** ****** ******
  10  ****** ****** ****** ****** ****** ****** ****** ****** ****** ******
      ****** ****** ****** ****** ****** ****** ****** ****** ****** ******
      ****** ****** ****** ****** ****** ****** ****** ****** ****** ******
  11  ****** ****** ****** ****** ****** ****** ****** ****** ****** ******
      ****** ****** ****** ****** ****** ****** ****** ****** ****** ******
      ****** ****** ****** ****** ****** ****** ****** ****** ****** ******
  12  ****** ****** ****** ****** ****** ****** ****** ****** ****** ******
      ****** ****** ****** ****** ****** ****** ****** ****** ****** ******
      ****** ****** ****** ****** ****** ****** ****** ****** ****** ******
  13  ****** ****** ****** ****** ****** ****** ****** ****** ****** ******
      ****** ****** ****** ****** ****** ****** ****** ****** ****** ******
      ****** ****** ****** ****** ****** ****** ****** ****** ****** ******
  14  ****** ****** ****** ****** ****** ****** ****** ****** ****** ******
      ****** ****** ****** ****** ****** ****** ****** ****** ****** ******
      ****** ****** ****** ****** ****** ****** ****** ****** ****** ******
  15  ****** ****** ****** ****** ****** ****** ****** ****** ****** ******
      ****** ****** ****** ****** ****** ****** ****** ****** ****** ******
      ****** ****** ****** ****** ****** ****** ****** ****** ****** ******
  16  ****** ****** ****** ****** ****** ****** ****** ****** ****** ******
      ****** ****** ****** ****** ****** ****** ****** ****** ****** ******
      ****** ****** ****** ****** ****** ****** ****** ****** ****** ******
  17  ****** ****** ****** ****** ****** ****** ****** ****** ****** ******
      ****** ****** ****** ****** ****** ****** ****** ****** ****** ******
      ****** ****** ****** ****** ****** ****** ****** ****** ****** ******
  18  ****** ****** ****** ****** ****** ****** ****** ****** ****** ******
      ****** ****** ****** ****** ****** ****** ****** ****** ****** ******
      ****** ****** ****** ****** ****** ****** ****** ****** ****** ******
  19  ****** ****** ****** ****** ****** ****** ****** ****** ****** ******
      ****** ****** ****** ****** ****** ****** ****** ****** ****** ******
      ****** ****** ****** ****** ****** ****** ****** ****** ****** ******
  20  ****** ****** ****** ****** ****** ****** ****** ****** ****** ******
      ****** ****** ****** ****** ****** ****** ****** ****** ****** ******
      ****** ****** ****** ****** ****** ****** ****** ****** ****** ******
  21  ****** ****** ****** ****** ****** ****** ****** ****** ****** ******
      ****** ****** ****** ****** ****** ****** ****** ****** ****** ******
      ****** ****** ****** ****** ****** ****** ****** ****** ****** ******
  22  ****** ****** ****** ****** ****** ****** ****** ****** ****** ******
      ****** ****** ****** ****** ****** ****** ****** ****** ****** ******
      ****** ****** ****** ****** ****** ****** ****** ****** ****** ******
  23  ****** ****** ****** ****** ****** ****** ****** ****** ****** ******
      ****** ****** ****** ****** ****** ****** ****** ****** ****** ******
      ****** ****** ****** ****** ****** ****** ****** ****** ****** ******
  24  ****** ****** ****** ****** ****** ****** ****** ****** ****** ******
      ****** ****** ****** ****** ****** ****** ****** ****** ****** ******
      ****** ****** ****** ****** ****** ****** ****** ****** ****** ******
  25  ****** ****** ****** ****** ****** ****** ****** ****** ****** ******
      ****** ****** ****** ****** ****** ****** ****** ****** ****** ******
      ****** ****** ****** ****** ****** ****** ****** ****** ****** ******

 HEAD WILL BE SAVED ON UNIT   51 AT END OF TIME STEP    1, STRESS PERIOD   12
1
  VOLUMETRIC BUDGET FOR ENTIRE MODEL AT END OF TIME STEP    1, STRESS PERIOD  12
  ------------------------------------------------------------------------------

     CUMULATIVE VOLUMES      L**3       RATES FOR THIS TIME STEP      L**3/T
     ------------------                 ------------------------

           IN:                                      IN:
           ---                                      ---
             STORAGE =    25564743.6894               STORAGE =           0.0000
       CONSTANT HEAD =   197116365.5056         CONSTANT HEAD =      181281.7532
               WELLS =           0.0000                 WELLS =           0.0000
            RECHARGE =    26413200.0000              RECHARGE =       27600.0000
      STREAM LEAKAGE =     7394174.2146        STREAM LEAKAGE =        6914.9855

            TOTAL IN =   256488483.4096              TOTAL IN =      215796.7387

          OUT:                                     OUT:
          ----                                     ----
             STORAGE =     2764082.4772               STORAGE =        3741.2623
       CONSTANT HEAD =           0.0000         CONSTANT HEAD =           0.0000
               WELLS =   106078866.3531                 WELLS =       90222.9254
            RECHARGE =           0.0000              RECHARGE =           0.0000
      STREAM LEAKAGE =   147645535.5104        STREAM LEAKAGE =      121832.5502

           TOTAL OUT =   256488484.3407             TOTAL OUT =      215796.7378

            IN - OUT =          -0.9311              IN - OUT =       8.2157E-04

 PERCENT DISCREPANCY =          -0.00     PERCENT DISCREPANCY =           0.00






         TIME SUMMARY AT END OF TIME STEP    1 IN STRESS PERIOD   12
                    SECONDS     MINUTES      HOURS       DAYS        YEARS
                    -----------------------------------------------------------
   TIME STEP LENGTH 7.86240E+06 1.31040E+05  2184.0      91.000     0.24914    
 STRESS PERIOD TIME 7.86240E+06 1.31040E+05  2184.0      91.000     0.24914    
         TOTAL TIME 9.46080E+07 1.57680E+06  26280.      1095.0      2.9979    
1

 Run end date and time (yyyy/mm/dd hh:mm:ss): 2018/10/08 23:15:22
 Elapsed run time:  0.070 Seconds

