                                  MODFLOW-2005     
      U.S. GEOLOGICAL SURVEY MODULAR FINITE-DIFFERENCE GROUND-WATER FLOW MODEL
                            VERSION 1.11.00 8/8/2013

 LIST FILE: supply2.lst
                         UNIT   10

 OPENING ..\data\supply.dis
 FILE TYPE:DIS   UNIT   11   STATUS:OLD    
 FORMAT:FORMATTED              ACCESS:SEQUENTIAL          

 OPENING ..\data\supply.ba6
 FILE TYPE:BAS6   UNIT   12   STATUS:OLD    
 FORMAT:FORMATTED              ACCESS:SEQUENTIAL          

 OPENING ..\data\supply_het.bc6
 FILE TYPE:BCF6   UNIT   13   STATUS:OLD    
 FORMAT:FORMATTED              ACCESS:SEQUENTIAL          

 OPENING ..\data\supply.rch
 FILE TYPE:RCH   UNIT   15   STATUS:OLD    
 FORMAT:FORMATTED              ACCESS:SEQUENTIAL          

 OPENING ..\data\supply2.sfr
 FILE TYPE:SFR   UNIT   16   STATUS:OLD    
 FORMAT:FORMATTED              ACCESS:SEQUENTIAL          

 OPENING ..\data\supply.oc
 FILE TYPE:OC   UNIT   17   STATUS:OLD    
 FORMAT:FORMATTED              ACCESS:SEQUENTIAL          

 OPENING ..\data\supply.pcg
 FILE TYPE:PCG   UNIT   18   STATUS:OLD    
 FORMAT:FORMATTED              ACCESS:SEQUENTIAL          

 OPENING supply2.wel
 FILE TYPE:WEL   UNIT   19   STATUS:OLD    
 FORMAT:FORMATTED              ACCESS:SEQUENTIAL          

 OPENING supply2sf.cbc
 FILE TYPE:DATA(BINARY)   UNIT   50   STATUS:UNKNOWN
 FORMAT:BINARY                 ACCESS:SEQUENTIAL          

 OPENING supply2hd.bhd
 FILE TYPE:DATA(BINARY)   UNIT   51   STATUS:UNKNOWN
 FORMAT:BINARY                 ACCESS:SEQUENTIAL          

 BAS -- BASIC PACKAGE, VERSION 7, 5/2/2005 INPUT READ FROM UNIT   12
 
 MODFLOW was compiled using uniform precision
 Precision of REAL and DOUBLE PRECISION variables:          15

 DISCRETIZATION INPUT DATA READ FROM UNIT   11
    1 LAYERS        25 ROWS        30 COLUMNS
   12 STRESS PERIOD(S) IN SIMULATION
 MODEL TIME UNIT IS DAYS
 MODEL LENGTH UNIT IS UNDEFINED
  Confining bed flag for each layer:
   0

                     DELR =   200.000    

                     DELC =   200.000    

 TOP ELEVATION OF LAYER 1 =  100.0000    

   MODEL LAYER BOTTOM EL. =   0.00000     FOR LAYER   1


 STRESS PERIOD     LENGTH       TIME STEPS     MULTIPLIER FOR DELT    SS FLAG
 ----------------------------------------------------------------------------
        1         92.00000          1                    1.500         TR
        2         91.00000          1                    1.500         TR
        3         91.00000          1                    1.500         TR
        4         91.00000          1                    1.500         TR
        5         92.00000          1                    1.500         TR
        6         91.00000          1                    1.500         TR
        7         91.00000          1                    1.500         TR
        8         91.00000          1                    1.500         TR
        9         92.00000          1                    1.500         TR
       10         91.00000          1                    1.500         TR
       11         91.00000          1                    1.500         TR
       12         91.00000          1                    1.500         TR

 TRANSIENT SIMULATION



 
 #MODOFC transient water supply sample problem                                   
 #                                                                               
 THE FREE FORMAT OPTION HAS BEEN SELECTED



                     BOUNDARY ARRAY FOR LAYER   1
 READING ON UNIT   12 WITH FORMAT: (20I4)              

 AQUIFER HEAD WILL BE SET TO   0.0000     AT ALL NO-FLOW NODES (IBOUND=0).



                       INITIAL HEAD FOR LAYER   1
 READING ON UNIT   12 WITH FORMAT: (10F13.0)           

 OUTPUT CONTROL IS SPECIFIED ONLY AT TIME STEPS FOR WHICH OUTPUT IS DESIRED
 COMPACT CELL-BY-CELL BUDGET FILES WILL BE WRITTEN
 HEAD PRINT FORMAT CODE IS  18    DRAWDOWN PRINT FORMAT CODE IS   0
 HEADS WILL BE SAVED ON UNIT   51    DRAWDOWNS WILL BE SAVED ON UNIT    0

 BCF -- BLOCK-CENTERED FLOW PACKAGE, VERSION 7, 5/2/2005
         INPUT READ FROM UNIT 13
 TRANSIENT SIMULATION
 HEAD AT CELLS THAT CONVERT TO DRY=   0.0000    
 WETTING CAPABILITY IS NOT ACTIVE
      LAYER  LAYER-TYPE CODE     INTERBLOCK T
      --------------------------------------------
         1            0          0 -- HARMONIC    

 COLUMN TO ROW ANISOTROPY =  1.000000    

     PRIMARY STORAGE COEF =  5.000000E-02 FOR LAYER   1



               TRANSMIS. ALONG ROWS FOR LAYER   1
 READING ON UNIT   13 WITH FORMAT: (FREE)              

 WEL -- WELL PACKAGE, VERSION 7, 5/2/2005 INPUT READ FROM UNIT   19
 # Well package input file written by MMProc
 No named parameters
 MAXIMUM OF      4 ACTIVE WELLS AT ONE TIME


     0 Well parameters

 RCH -- RECHARGE PACKAGE, VERSION 7, 5/2/2005 INPUT READ FROM UNIT   15
 No named parameters
 OPTION 1 -- RECHARGE TO TOP LAYER


     0 Recharge parameters

 SFR7 -- STREAMFLOW ROUTING PACKAGE, VERSION 1.0.7, 2013-01-15
         INPUT READ FROM UNIT  16
 #  Supply2 test problem for GWM-VI
 #  The eighth entry in the first data line is ISTCB2 -
 #    Setting this to a negative number indicates that
 #    streamflows out of the reach will be saved to a
 #    binary file.  The absolute value of ISTCB2 is the
 #    unit to which unformatted flows will be written.
 #
 No named parameters
 Segment information will not be 
 read by reach
 No named parameters
 No specifed inflow files


 NUMBER OF STREAM REACHES IS   40

 NUMBER OF STREAM SEGMENTS IS    3

 NUMBER OF STREAM PARAMETERS IS    0

 NUMBER OF STREAM SEGMENTS DEFINED USING PARAMETERS IS              0

 MAXIMUM ERROR FOR STREAM LEAKAGE RATES IS  1.00E-04

 CONSTANT FOR MANNINGS EQUATION IS  1.2839E+05





   STREAM NETWORK DESCRIPTION: 

   LAYER    ROW    COL   SEGMENT   REACH     LENGTH
                          NUMBER   NUMBER    IN CELL        
   --------------------------------------------------
      1     13      1       1        1    2.0000E+02
      1     13      2       1        2    2.0000E+02
      1     14      3       1        3    2.0000E+02
      1     15      4       1        4    2.0000E+02
      1     16      5       1        5    2.0000E+02
      1     16      6       1        6    2.0000E+02
      1     16      7       1        7    2.0000E+02
      1     16      8       1        8    2.0000E+02
      1     16      9       1        9    2.0000E+02
      1     16     10       1       10    2.0000E+02
      1     16     11       1       11    2.0000E+02
      1     16     12       1       12    2.0000E+02
      1     15     13       1       13    2.0000E+02
      1     14     14       1       14    2.0000E+02
      1     13     15       1       15    2.0000E+02
      1     12     16       1       16    2.0000E+02
      1     12     17       1       17    2.0000E+02
      1     12     18       1       18    2.0000E+02
      1     12     19       1       19    2.0000E+02
      1     13     20       1       20    2.0000E+02
      1     14     21       1       21    2.0000E+02
      1     14     22       1       22    2.0000E+02
      1      9     30       2        1    2.0000E+02
      1      9     29       2        2    2.0000E+02
      1      9     28       2        3    2.0000E+02
      1      9     27       2        4    2.0000E+02
      1     10     26       2        5    2.0000E+02
      1     11     25       2        6    2.0000E+02
      1     12     24       2        7    2.0000E+02
      1     13     23       2        8    2.0000E+02
      1     14     22       2        9    2.0000E+02
      1     14     22       3        1    2.0000E+02
      1     15     23       3        2    2.0000E+02
      1     15     24       3        3    2.0000E+02
      1     15     25       3        4    2.0000E+02
      1     15     26       3        5    2.0000E+02
      1     16     27       3        6    2.0000E+02
      1     17     28       3        7    2.0000E+02
      1     18     29       3        8    2.0000E+02
      1     18     30       3        9    2.0000E+02




 PCG -- CONJUGATE-GRADIENT SOLUTION PACKAGE, VERSION 7, 5/2/2005
 MAXIMUM OF    500 CALLS OF SOLUTION ROUTINE
 MAXIMUM OF      5 INTERNAL ITERATIONS PER CALL TO SOLUTION ROUTINE
 MATRIX PRECONDITIONING TYPE :    1



                                    SOLUTION BY THE CONJUGATE-GRADIENT METHOD
                                   -------------------------------------------
                    MAXIMUM NUMBER OF CALLS TO PCG ROUTINE =      500
                        MAXIMUM ITERATIONS PER CALL TO PCG =        5
                               MATRIX PRECONDITIONING TYPE =        1
        RELAXATION FACTOR (ONLY USED WITH PRECOND. TYPE 1) =    0.10000E+01
 PARAMETER OF POLYNOMIAL PRECOND. = 2 (2) OR IS CALCULATED :        0
                         HEAD CHANGE CRITERION FOR CLOSURE =    0.10000E-05
                     RESIDUAL CHANGE CRITERION FOR CLOSURE =    0.10000E+01
            PCG HEAD AND RESIDUAL CHANGE PRINTOUT INTERVAL =        1
     PRINTING FROM SOLVER IS LIMITED(1) OR SUPPRESSED (>1) =        1
                            STEADY-STATE DAMPING PARAMETER =    0.10000E+01
                               TRANSIENT DAMPING PARAMETER =    0.10000E+01
1
                            STRESS PERIOD NO.    1, LENGTH =   92.00000    
                            -----------------------------------------------

                              NUMBER OF TIME STEPS =     1

                               MULTIPLIER FOR DELT =     1.500

                            INITIAL TIME STEP SIZE =   92.00000    

 WELL NO.  LAYER   ROW   COL   STRESS RATE         
 --------------------------------------------------
      1      1     20     29      -8734.    
      2      1     15     15     -0.1244E+05
      3      1     17     29     -0.1509E+05
      4      1      6     23     -0.1424E+05

      4 WELLS

                 RECHARGE =  5.000000E-04



 CLASSIFICATION & COUNT OF STREAM SEGMENTS BASED ON SOURCE OF INFLOW:

                HEADWATER     DIVERSION     RECEIVES TRIBUTARY FLOW
                ---------     ---------     -----------------------
                     2              0               1



                    INPUT DATA FOR EACH STREAM SEGMENT
 ---------------------------------------------------------------------------------------------

 SEGMENT    SEG.     INFLOW   OVERLAND   STREAM    STREAM   ICALC  OUTFLOW  DIVERSION PRIORITY
    NO.    LENGTH     RATE     RUNOFF      ET       PPT.    METH.  TO SEG.  FROM SEG.    NO.

      1  4.400E+03 1.000E+05 0.000E+00 0.000E+00 0.000E+00    1        3        0        0
      2  1.800E+03 5.000E+04 0.000E+00 0.000E+00 0.000E+00    1        3        0        0
      3  1.800E+03 0.000E+00 0.000E+00 0.000E+00 0.000E+00    1        0        0        0


         STREAMBED PROPERTIES AND STREAM DIMENSIONS

 SEGMENT     BED HYD. COND.      BED THICKNESS     ELEV.-TOP OF BED     WIDTH OF STREAM     DEPTH OF STREAM    STREAM ROUGHNESS
    No.     UPPER     LOWER     UPPER     LOWER     UPPER     LOWER     UPPER     LOWER     UPPER     LOWER   CHANNEL      BANK

     1  5.000E+00 5.000E+00 1.000E+00 1.000E+00 4.850E+01 3.800E+01 2.000E+01 2.000E+01                     5.000E-02
     2  5.000E+00 5.000E+00 1.000E+00 1.000E+00 4.025E+01 3.800E+01 2.000E+01 2.000E+01                     5.000E-02
     3  5.000E+00 5.000E+00 1.000E+00 1.000E+00 3.800E+01 3.000E+01 2.000E+01 2.000E+01                     5.000E-02



 
 SOLVING FOR HEAD 


     9 CALLS TO PCG ROUTINE FOR TIME STEP   1 IN STRESS PERIOD    1
    36 TOTAL ITERATIONS

 OUTPUT CONTROL FOR STRESS PERIOD    1   TIME STEP    1
    SAVE BUDGET
    SAVE HEAD FOR ALL LAYERS
    PRINT HEAD FOR ALL LAYERS
 UBDSV2 SAVING "STREAMFLOW OUT  " ON UNIT  50 AT TIME STEP  1, STRESS PERIOD   1



 STREAM LISTING     PERIOD      1   STEP        1

 LAYER ROW COL. STREAM  RCH.  FLOW INTO     FLOW TO   FLOW OUT OF   OVRLND.     DIRECT     STREAM       STREAM     STREAM     STREAM   STREAMBED  STREAMBED
                SEG.NO.  NO.  STRM. RCH.    AQUIFER    STRM. RCH.    RUNOFF     PRECIP       ET          HEAD       DEPTH      WIDTH   CONDCTNC.   GRADIENT

   1   13    1     1     1    1.0000E+05 -6.1209E+03   1.0612E+05  0.000E+00  0.000E+00  0.000E+00  4.84087E+01  1.473E-01  2.000E+01  2.000E+04 -3.060E-01
   1   13    2     1     2    1.0612E+05 -7.5905E+03   1.1371E+05  0.000E+00  0.000E+00  0.000E+00  4.79372E+01  1.531E-01  2.000E+01  2.000E+04 -3.795E-01
   1   14    3     1     3    1.1371E+05 -2.1985E+03   1.1591E+05  0.000E+00  0.000E+00  0.000E+00  4.74640E+01  1.571E-01  2.000E+01  2.000E+04 -1.099E-01
   1   15    4     1     4    1.1591E+05 -2.2694E+03   1.1818E+05  0.000E+00  0.000E+00  0.000E+00  4.69885E+01  1.590E-01  2.000E+01  2.000E+04 -1.135E-01
   1   16    5     1     5    1.1818E+05 -7.1736E+03   1.2535E+05  0.000E+00  0.000E+00  0.000E+00  4.65151E+01  1.628E-01  2.000E+01  2.000E+04 -3.587E-01
   1   16    6     1     6    1.2535E+05 -4.2931E+03   1.2965E+05  0.000E+00  0.000E+00  0.000E+00  4.60424E+01  1.674E-01  2.000E+01  2.000E+04 -2.147E-01
   1   16    7     1     7    1.2965E+05 -4.1236E+03   1.3377E+05  0.000E+00  0.000E+00  0.000E+00  4.55684E+01  1.706E-01  2.000E+01  2.000E+04 -2.062E-01
   1   16    8     1     8    1.3377E+05 -4.0750E+03   1.3784E+05  0.000E+00  0.000E+00  0.000E+00  4.50943E+01  1.738E-01  2.000E+01  2.000E+04 -2.038E-01
   1   16    9     1     9    1.3784E+05 -4.0511E+03   1.4190E+05  0.000E+00  0.000E+00  0.000E+00  4.46201E+01  1.769E-01  2.000E+01  2.000E+04 -2.026E-01
   1   16   10     1    10    1.4190E+05 -4.0236E+03   1.4592E+05  0.000E+00  0.000E+00  0.000E+00  4.41459E+01  1.800E-01  2.000E+01  2.000E+04 -2.012E-01
   1   16   11     1    11    1.4592E+05 -3.9989E+03   1.4992E+05  0.000E+00  0.000E+00  0.000E+00  4.36716E+01  1.830E-01  2.000E+01  2.000E+04 -1.999E-01
   1   16   12     1    12    1.4992E+05 -6.3464E+03   1.5626E+05  0.000E+00  0.000E+00  0.000E+00  4.31981E+01  1.868E-01  2.000E+01  2.000E+04 -3.173E-01
   1   15   13     1    13    1.5626E+05 -5.3877E+03   1.6165E+05  0.000E+00  0.000E+00  0.000E+00  4.27251E+01  1.910E-01  2.000E+01  2.000E+04 -2.694E-01
   1   14   14     1    14    1.6165E+05 -4.8605E+03   1.6651E+05  0.000E+00  0.000E+00  0.000E+00  4.22515E+01  1.947E-01  2.000E+01  2.000E+04 -2.430E-01
   1   13   15     1    15    1.6651E+05 -6.2698E+03   1.7278E+05  0.000E+00  0.000E+00  0.000E+00  4.17782E+01  1.986E-01  2.000E+01  2.000E+04 -3.135E-01
   1   12   16     1    16    1.7278E+05 -8.3070E+03   1.8109E+05  0.000E+00  0.000E+00  0.000E+00  4.13060E+01  2.037E-01  2.000E+01  2.000E+04 -4.154E-01
   1   12   17     1    17    1.8109E+05 -5.8040E+03   1.8689E+05  0.000E+00  0.000E+00  0.000E+00  4.08335E+01  2.085E-01  2.000E+01  2.000E+04 -2.902E-01
   1   12   18     1    18    1.8689E+05 -5.7111E+03   1.9260E+05  0.000E+00  0.000E+00  0.000E+00  4.03602E+01  2.124E-01  2.000E+01  2.000E+04 -2.856E-01
   1   12   19     1    19    1.9260E+05 -7.2111E+03   1.9982E+05  0.000E+00  0.000E+00  0.000E+00  3.98872E+01  2.167E-01  2.000E+01  2.000E+04 -3.606E-01
   1   13   20     1    20    1.9982E+05 -6.3493E+03   2.0616E+05  0.000E+00  0.000E+00  0.000E+00  3.94144E+01  2.212E-01  2.000E+01  2.000E+04 -3.175E-01
   1   14   21     1    21    2.0616E+05 -6.0641E+03   2.1223E+05  0.000E+00  0.000E+00  0.000E+00  3.89412E+01  2.252E-01  2.000E+01  2.000E+04 -3.032E-01
   1   14   22     1    22    2.1223E+05  3.7075E+03   2.0852E+05  0.000E+00  0.000E+00  0.000E+00  3.84646E+01  2.260E-01  2.000E+01  2.000E+04  1.854E-01
   1    9   30     2     1    5.0000E+04 -4.4772E+03   5.4477E+04  0.000E+00  0.000E+00  0.000E+00  4.02440E+01  1.190E-01  2.000E+01  2.000E+04 -2.239E-01
   1    9   29     2     2    5.4477E+04 -4.7435E+03   5.9221E+04  0.000E+00  0.000E+00  0.000E+00  4.00001E+01  1.251E-01  2.000E+01  2.000E+04 -2.372E-01
   1    9   28     2     3    5.9221E+04 -4.9472E+03   6.4168E+04  0.000E+00  0.000E+00  0.000E+00  3.97564E+01  1.314E-01  2.000E+01  2.000E+04 -2.474E-01
   1    9   27     2     4    6.4168E+04 -7.2484E+03   7.1416E+04  0.000E+00  0.000E+00  0.000E+00  3.95141E+01  1.391E-01  2.000E+01  2.000E+04 -3.624E-01
   1   10   26     2     5    7.1416E+04 -6.3954E+03   7.7812E+04  0.000E+00  0.000E+00  0.000E+00  3.92723E+01  1.473E-01  2.000E+01  2.000E+04 -3.198E-01
   1   11   25     2     6    7.7812E+04 -6.0416E+03   8.3853E+04  0.000E+00  0.000E+00  0.000E+00  3.90296E+01  1.546E-01  2.000E+01  2.000E+04 -3.021E-01
   1   12   24     2     7    8.3853E+04 -5.7643E+03   8.9618E+04  0.000E+00  0.000E+00  0.000E+00  3.87862E+01  1.612E-01  2.000E+01  2.000E+04 -2.882E-01
   1   13   23     2     8    8.9618E+04 -1.5889E+03   9.1206E+04  0.000E+00  0.000E+00  0.000E+00  3.85403E+01  1.653E-01  2.000E+01  2.000E+04 -7.944E-02
   1   14   22     2     9    9.1206E+04  2.3570E+02   9.0971E+04  0.000E+00  0.000E+00  0.000E+00  3.82911E+01  1.661E-01  2.000E+01  2.000E+04  1.178E-02
   1   14   22     3     1    2.9949E+05 -9.7928E+03   3.0929E+05  0.000E+00  0.000E+00  0.000E+00  3.77896E+01  2.341E-01  2.000E+01  2.000E+04 -4.896E-01
   1   15   23     3     2    3.0929E+05 -1.9533E+03   3.1124E+05  0.000E+00  0.000E+00  0.000E+00  3.69034E+01  2.368E-01  2.000E+01  2.000E+04 -9.767E-02
   1   15   24     3     3    3.1124E+05 -1.5190E+03   3.1276E+05  0.000E+00  0.000E+00  0.000E+00  3.60153E+01  2.376E-01  2.000E+01  2.000E+04 -7.595E-02
   1   15   25     3     4    3.1276E+05 -1.5657E+03   3.1432E+05  0.000E+00  0.000E+00  0.000E+00  3.51272E+01  2.383E-01  2.000E+01  2.000E+04 -7.828E-02
   1   15   26     3     5    3.1432E+05 -1.8109E+03   3.1613E+05  0.000E+00  0.000E+00  0.000E+00  3.42390E+01  2.390E-01  2.000E+01  2.000E+04 -9.054E-02
   1   16   27     3     6    3.1613E+05 -1.8798E+03   3.1801E+05  0.000E+00  0.000E+00  0.000E+00  3.33510E+01  2.399E-01  2.000E+01  2.000E+04 -9.399E-02
   1   17   28     3     7    3.1801E+05 -1.8974E+02   3.1820E+05  0.000E+00  0.000E+00  0.000E+00  3.24626E+01  2.404E-01  2.000E+01  2.000E+04 -9.487E-03
   1   18   29     3     8    3.1820E+05 -7.2902E+02   3.1893E+05  0.000E+00  0.000E+00  0.000E+00  3.15739E+01  2.406E-01  2.000E+01  2.000E+04 -3.645E-02
   1   18   30     3     9    3.1893E+05 -3.1390E+03   3.2207E+05  0.000E+00  0.000E+00  0.000E+00  3.06859E+01  2.414E-01  2.000E+01  2.000E+04 -1.569E-01



1
              HEAD IN LAYER   1 AT END OF TIME STEP   1 IN STRESS PERIOD    1
  ---------------------------------------------------------------------------

          1      2      3      4      5      6      7      8      9     10
         11     12     13     14     15     16     17     18     19     20
         21     22     23     24     25     26     27     28     29     30
 .........................................................................
   1  ****** ****** ****** ****** ****** ****** ****** ****** ****** ******
      ****** ****** ****** ****** ****** ****** ****** ****** ****** ******
      ****** ****** ****** ****** ****** ****** ****** ****** ****** ******
   2  ****** ****** ****** ****** ****** ****** ****** ****** ****** ******
      ****** ****** ****** ****** ****** ****** ****** ****** ****** ******
      ****** ****** ****** ****** ****** ****** ****** ****** ****** ******
   3  ****** ****** ****** ****** ****** ****** ****** ****** ****** ******
      ****** ****** ****** ****** ****** ****** ****** ****** ****** ******
      ****** ****** ****** ****** ****** ****** ****** ****** ****** ******
   4  ****** ****** ****** ****** ****** ****** ****** ****** ****** ******
      ****** ****** ****** ****** ****** ****** ****** ****** ****** ******
      ****** ****** ****** ****** ****** ****** ****** ****** ****** ******
   5  ****** ****** ****** ****** ****** ****** ****** ****** ****** ******
      ****** ****** ****** ****** ****** ****** ****** ****** ****** ******
      ****** ****** ****** ****** ****** ****** ****** ****** ****** ******
   6  ****** ****** ****** ****** ****** ****** ****** ****** ****** ******
      ****** ****** ****** ****** ****** ****** ****** ****** ****** ******
      ****** ****** ****** ****** ****** ****** ****** ****** ****** ******
   7  ****** ****** ****** ****** ****** ****** ****** ****** ****** ******
      ****** ****** ****** ****** ****** ****** ****** ****** ****** ******
      ****** ****** ****** ****** ****** ****** ****** ****** ****** ******
   8  ****** ****** ****** ****** ****** ****** ****** ****** ****** ******
      ****** ****** ****** ****** ****** ****** ****** ****** ****** ******
      ****** ****** ****** ****** ****** ****** ****** ****** ****** ******
   9  ****** ****** ****** ****** ****** ****** ****** ****** ****** ******
      ****** ****** ****** ****** ****** ****** ****** ****** ****** ******
      ****** ****** ****** ****** ****** ****** ****** ****** ****** ******
  10  ****** ****** ****** ****** ****** ****** ****** ****** ****** ******
      ****** ****** ****** ****** ****** ****** ****** ****** ****** ******
      ****** ****** ****** ****** ****** ****** ****** ****** ****** ******
  11  ****** ****** ****** ****** ****** ****** ****** ****** ****** ******
      ****** ****** ****** ****** ****** ****** ****** ****** ****** ******
      ****** ****** ****** ****** ****** ****** ****** ****** ****** ******
  12  ****** ****** ****** ****** ****** ****** ****** ****** ****** ******
      ****** ****** ****** ****** ****** ****** ****** ****** ****** ******
      ****** ****** ****** ****** ****** ****** ****** ****** ****** ******
  13  ****** ****** ****** ****** ****** ****** ****** ****** ****** ******
      ****** ****** ****** ****** ****** ****** ****** ****** ****** ******
      ****** ****** ****** ****** ****** ****** ****** ****** ****** ******
  14  ****** ****** ****** ****** ****** ****** ****** ****** ****** ******
      ****** ****** ****** ****** ****** ****** ****** ****** ****** ******
      ****** ****** ****** ****** ****** ****** ****** ****** ****** ******
  15  ****** ****** ****** ****** ****** ****** ****** ****** ****** ******
      ****** ****** ****** ****** ****** ****** ****** ****** ****** ******
      ****** ****** ****** ****** ****** ****** ****** ****** ****** ******
  16  ****** ****** ****** ****** ****** ****** ****** ****** ****** ******
      ****** ****** ****** ****** ****** ****** ****** ****** ****** ******
      ****** ****** ****** ****** ****** ****** ****** ****** ****** ******
  17  ****** ****** ****** ****** ****** ****** ****** ****** ****** ******
      ****** ****** ****** ****** ****** ****** ****** ****** ****** ******
      ****** ****** ****** ****** ****** ****** ****** ****** ****** ******
  18  ****** ****** ****** ****** ****** ****** ****** ****** ****** ******
      ****** ****** ****** ****** ****** ****** ****** ****** ****** ******
      ****** ****** ****** ****** ****** ****** ****** ****** ****** ******
  19  ****** ****** ****** ****** ****** ****** ****** ****** ****** ******
      ****** ****** ****** ****** ****** ****** ****** ****** ****** ******
      ****** ****** ****** ****** ****** ****** ****** ****** ****** ******
  20  ****** ****** ****** ****** ****** ****** ****** ****** ****** ******
      ****** ****** ****** ****** ****** ****** ****** ****** ****** ******
      ****** ****** ****** ****** ****** ****** ****** ****** ****** ******
  21  ****** ****** ****** ****** ****** ****** ****** ****** ****** ******
      ****** ****** ****** ****** ****** ****** ****** ****** ****** ******
      ****** ****** ****** ****** ****** ****** ****** ****** ****** ******
  22  ****** ****** ****** ****** ****** ****** ****** ****** ****** ******
      ****** ****** ****** ****** ****** ****** ****** ****** ****** ******
      ****** ****** ****** ****** ****** ****** ****** ****** ****** ******
  23  ****** ****** ****** ****** ****** ****** ****** ****** ****** ******
      ****** ****** ****** ****** ****** ****** ****** ****** ****** ******
      ****** ****** ****** ****** ****** ****** ****** ****** ****** ******
  24  ****** ****** ****** ****** ****** ****** ****** ****** ****** ******
      ****** ****** ****** ****** ****** ****** ****** ****** ****** ******
      ****** ****** ****** ****** ****** ****** ****** ****** ****** ******
  25  ****** ****** ****** ****** ****** ****** ****** ****** ****** ******
      ****** ****** ****** ****** ****** ****** ****** ****** ****** ******
      ****** ****** ****** ****** ****** ****** ****** ****** ****** ******

 HEAD WILL BE SAVED ON UNIT   51 AT END OF TIME STEP    1, STRESS PERIOD    1
1
  VOLUMETRIC BUDGET FOR ENTIRE MODEL AT END OF TIME STEP    1, STRESS PERIOD   1
  ------------------------------------------------------------------------------

     CUMULATIVE VOLUMES      L**3       RATES FOR THIS TIME STEP      L**3/T
     ------------------                 ------------------------

           IN:                                      IN:
           ---                                      ---
             STORAGE =    18013222.1989               STORAGE =      195795.8935
       CONSTANT HEAD =     1194331.2503         CONSTANT HEAD =       12981.8614
               WELLS =           0.0000                 WELLS =           0.0000
            RECHARGE =     1269600.0000              RECHARGE =       13800.0000
      STREAM LEAKAGE =      362771.2764        STREAM LEAKAGE =        3943.1660

            TOTAL IN =    20839924.7255              TOTAL IN =      226520.9209

          OUT:                                     OUT:
          ----                                     ----
             STORAGE =           0.0000               STORAGE =           0.0000
       CONSTANT HEAD =           0.0000         CONSTANT HEAD =           0.0000
               WELLS =     4646579.1923                 WELLS =       50506.2956
            RECHARGE =           0.0000              RECHARGE =           0.0000
      STREAM LEAKAGE =    16193345.8254        STREAM LEAKAGE =      176014.6285

           TOTAL OUT =    20839925.0177             TOTAL OUT =      226520.9241

            IN - OUT =          -0.2922              IN - OUT =      -3.1758E-03

 PERCENT DISCREPANCY =          -0.00     PERCENT DISCREPANCY =          -0.00






         TIME SUMMARY AT END OF TIME STEP    1 IN STRESS PERIOD    1
                    SECONDS     MINUTES      HOURS       DAYS        YEARS
                    -----------------------------------------------------------
   TIME STEP LENGTH 7.94880E+06 1.32480E+05  2208.0      92.000     0.25188    
 STRESS PERIOD TIME 7.94880E+06 1.32480E+05  2208.0      92.000     0.25188    
         TOTAL TIME 7.94880E+06 1.32480E+05  2208.0      92.000     0.25188    
1
1
                            STRESS PERIOD NO.    2, LENGTH =   91.00000    
                            -----------------------------------------------

                              NUMBER OF TIME STEPS =     1

                               MULTIPLIER FOR DELT =     1.500

                            INITIAL TIME STEP SIZE =   91.00000    

 WELL NO.  LAYER   ROW   COL   STRESS RATE         
 --------------------------------------------------
      1      1     20     29      -8734.    
      2      1     15     15     -0.1244E+05
      3      1     17     29     -0.1509E+05
      4      1      6     23     -0.1424E+05

      4 WELLS

                 RECHARGE =  2.000000E-03

 REUSING STREAM SEGMENT DATA FROM LAST STRESS PERIOD
 
 SOLVING FOR HEAD 


     7 CALLS TO PCG ROUTINE FOR TIME STEP   1 IN STRESS PERIOD    2
    27 TOTAL ITERATIONS

 OUTPUT CONTROL FOR STRESS PERIOD    2   TIME STEP    1
    SAVE BUDGET
    SAVE HEAD FOR ALL LAYERS
    PRINT HEAD FOR ALL LAYERS
 UBDSV2 SAVING "STREAMFLOW OUT  " ON UNIT  50 AT TIME STEP  1, STRESS PERIOD   2



 STREAM LISTING     PERIOD      2   STEP        1

 LAYER ROW COL. STREAM  RCH.  FLOW INTO     FLOW TO   FLOW OUT OF   OVRLND.     DIRECT     STREAM       STREAM     STREAM     STREAM   STREAMBED  STREAMBED
                SEG.NO.  NO.  STRM. RCH.    AQUIFER    STRM. RCH.    RUNOFF     PRECIP       ET          HEAD       DEPTH      WIDTH   CONDCTNC.   GRADIENT

   1   13    1     1     1    1.0000E+05 -4.0047E+03   1.0400E+05  0.000E+00  0.000E+00  0.000E+00  4.84077E+01  1.464E-01  2.000E+01  2.000E+04 -2.002E-01
   1   13    2     1     2    1.0400E+05 -5.2671E+03   1.0927E+05  0.000E+00  0.000E+00  0.000E+00  4.79344E+01  1.503E-01  2.000E+01  2.000E+04 -2.634E-01
   1   14    3     1     3    1.0927E+05 -1.1153E+03   1.1039E+05  0.000E+00  0.000E+00  0.000E+00  4.74598E+01  1.530E-01  2.000E+01  2.000E+04 -5.577E-02
   1   15    4     1     4    1.1039E+05 -1.1421E+03   1.1153E+05  0.000E+00  0.000E+00  0.000E+00  4.69835E+01  1.540E-01  2.000E+01  2.000E+04 -5.711E-02
   1   16    5     1     5    1.1153E+05 -4.2309E+03   1.1576E+05  0.000E+00  0.000E+00  0.000E+00  4.65085E+01  1.562E-01  2.000E+01  2.000E+04 -2.115E-01
   1   16    6     1     6    1.1576E+05 -2.4883E+03   1.1825E+05  0.000E+00  0.000E+00  0.000E+00  4.60339E+01  1.589E-01  2.000E+01  2.000E+04 -1.244E-01
   1   16    7     1     7    1.1825E+05 -2.3871E+03   1.2064E+05  0.000E+00  0.000E+00  0.000E+00  4.55587E+01  1.609E-01  2.000E+01  2.000E+04 -1.194E-01
   1   16    8     1     8    1.2064E+05 -2.3464E+03   1.2298E+05  0.000E+00  0.000E+00  0.000E+00  4.50833E+01  1.628E-01  2.000E+01  2.000E+04 -1.173E-01
   1   16    9     1     9    1.2298E+05 -2.3065E+03   1.2529E+05  0.000E+00  0.000E+00  0.000E+00  4.46079E+01  1.647E-01  2.000E+01  2.000E+04 -1.153E-01
   1   16   10     1    10    1.2529E+05 -2.2481E+03   1.2754E+05  0.000E+00  0.000E+00  0.000E+00  4.41324E+01  1.665E-01  2.000E+01  2.000E+04 -1.124E-01
   1   16   11     1    11    1.2754E+05 -2.1771E+03   1.2971E+05  0.000E+00  0.000E+00  0.000E+00  4.36569E+01  1.682E-01  2.000E+01  2.000E+04 -1.089E-01
   1   16   12     1    12    1.2971E+05 -3.3217E+03   1.3304E+05  0.000E+00  0.000E+00  0.000E+00  4.31817E+01  1.704E-01  2.000E+01  2.000E+04 -1.661E-01
   1   15   13     1    13    1.3304E+05 -1.9705E+03   1.3501E+05  0.000E+00  0.000E+00  0.000E+00  4.27065E+01  1.724E-01  2.000E+01  2.000E+04 -9.853E-02
   1   14   14     1    14    1.3501E+05 -1.2931E+03   1.3630E+05  0.000E+00  0.000E+00  0.000E+00  4.22305E+01  1.737E-01  2.000E+01  2.000E+04 -6.466E-02
   1   13   15     1    15    1.3630E+05 -2.7539E+03   1.3905E+05  0.000E+00  0.000E+00  0.000E+00  4.17548E+01  1.752E-01  2.000E+01  2.000E+04 -1.377E-01
   1   12   16     1    16    1.3905E+05 -5.0432E+03   1.4410E+05  0.000E+00  0.000E+00  0.000E+00  4.12805E+01  1.782E-01  2.000E+01  2.000E+04 -2.522E-01
   1   12   17     1    17    1.4410E+05 -3.1800E+03   1.4728E+05  0.000E+00  0.000E+00  0.000E+00  4.08063E+01  1.813E-01  2.000E+01  2.000E+04 -1.590E-01
   1   12   18     1    18    1.4728E+05 -3.0691E+03   1.5035E+05  0.000E+00  0.000E+00  0.000E+00  4.03313E+01  1.836E-01  2.000E+01  2.000E+04 -1.535E-01
   1   12   19     1    19    1.5035E+05 -3.8817E+03   1.5423E+05  0.000E+00  0.000E+00  0.000E+00  3.98566E+01  1.862E-01  2.000E+01  2.000E+04 -1.941E-01
   1   13   20     1    20    1.5423E+05 -3.0648E+03   1.5729E+05  0.000E+00  0.000E+00  0.000E+00  3.93819E+01  1.887E-01  2.000E+01  2.000E+04 -1.532E-01
   1   14   21     1    21    1.5729E+05 -3.1935E+03   1.6049E+05  0.000E+00  0.000E+00  0.000E+00  3.89069E+01  1.910E-01  2.000E+01  2.000E+04 -1.597E-01
   1   14   22     1    22    1.6049E+05  4.5106E+03   1.5597E+05  0.000E+00  0.000E+00  0.000E+00  3.84291E+01  1.905E-01  2.000E+01  2.000E+04  2.255E-01
   1    9   30     2     1    5.0000E+04 -1.5554E+03   5.1555E+04  0.000E+00  0.000E+00  0.000E+00  4.02419E+01  1.169E-01  2.000E+01  2.000E+04 -7.777E-02
   1    9   29     2     2    5.1555E+04 -1.8259E+03   5.3381E+04  0.000E+00  0.000E+00  0.000E+00  3.99943E+01  1.193E-01  2.000E+01  2.000E+04 -9.130E-02
   1    9   28     2     3    5.3381E+04 -2.0212E+03   5.5403E+04  0.000E+00  0.000E+00  0.000E+00  3.97469E+01  1.219E-01  2.000E+01  2.000E+04 -1.011E-01
   1    9   27     2     4    5.5403E+04 -3.3511E+03   5.8754E+04  0.000E+00  0.000E+00  0.000E+00  3.95004E+01  1.254E-01  2.000E+01  2.000E+04 -1.676E-01
   1   10   26     2     5    5.8754E+04 -2.4375E+03   6.1191E+04  0.000E+00  0.000E+00  0.000E+00  3.92542E+01  1.292E-01  2.000E+01  2.000E+04 -1.219E-01
   1   11   25     2     6    6.1191E+04 -2.3114E+03   6.3503E+04  0.000E+00  0.000E+00  0.000E+00  3.90073E+01  1.323E-01  2.000E+01  2.000E+04 -1.156E-01
   1   12   24     2     7    6.3503E+04 -2.4595E+03   6.5962E+04  0.000E+00  0.000E+00  0.000E+00  3.87603E+01  1.353E-01  2.000E+01  2.000E+04 -1.230E-01
   1   13   23     2     8    6.5962E+04 -5.1900E+02   6.6481E+04  0.000E+00  0.000E+00  0.000E+00  3.85121E+01  1.371E-01  2.000E+01  2.000E+04 -2.595E-02
   1   14   22     2     9    6.6481E+04  1.1627E+03   6.5318E+04  0.000E+00  0.000E+00  0.000E+00  3.82617E+01  1.367E-01  2.000E+01  2.000E+04  5.814E-02
   1   14   22     3     1    2.2129E+05 -9.0474E+03   2.3034E+05  0.000E+00  0.000E+00  0.000E+00  3.77512E+01  1.957E-01  2.000E+01  2.000E+04 -4.524E-01
   1   15   23     3     2    2.3034E+05 -9.9060E+02   2.3133E+05  0.000E+00  0.000E+00  0.000E+00  3.68649E+01  1.983E-01  2.000E+01  2.000E+04 -4.953E-02
   1   15   24     3     3    2.3133E+05 -6.4150E+02   2.3197E+05  0.000E+00  0.000E+00  0.000E+00  3.59765E+01  1.987E-01  2.000E+01  2.000E+04 -3.207E-02
   1   15   25     3     4    2.3197E+05 -6.4341E+02   2.3262E+05  0.000E+00  0.000E+00  0.000E+00  3.50879E+01  1.990E-01  2.000E+01  2.000E+04 -3.217E-02
   1   15   26     3     5    2.3262E+05 -6.6848E+02   2.3328E+05  0.000E+00  0.000E+00  0.000E+00  3.41994E+01  1.994E-01  2.000E+01  2.000E+04 -3.342E-02
   1   16   27     3     6    2.3328E+05 -5.4786E+02   2.3383E+05  0.000E+00  0.000E+00  0.000E+00  3.33108E+01  1.997E-01  2.000E+01  2.000E+04 -2.739E-02
   1   17   28     3     7    2.3383E+05  3.6293E+03   2.3020E+05  0.000E+00  0.000E+00  0.000E+00  3.24211E+01  1.989E-01  2.000E+01  2.000E+04  1.815E-01
   1   18   29     3     8    2.3020E+05  2.9121E+03   2.2729E+05  0.000E+00  0.000E+00  0.000E+00  3.15305E+01  1.972E-01  2.000E+01  2.000E+04  1.456E-01
   1   18   30     3     9    2.2729E+05 -1.0732E+02   2.2740E+05  0.000E+00  0.000E+00  0.000E+00  3.06409E+01  1.965E-01  2.000E+01  2.000E+04 -5.366E-03



1
              HEAD IN LAYER   1 AT END OF TIME STEP   1 IN STRESS PERIOD    2
  ---------------------------------------------------------------------------

          1      2      3      4      5      6      7      8      9     10
         11     12     13     14     15     16     17     18     19     20
         21     22     23     24     25     26     27     28     29     30
 .........................................................................
   1  ****** ****** ****** ****** ****** ****** ****** ****** ****** ******
      ****** ****** ****** ****** ****** ****** ****** ****** ****** ******
      ****** ****** ****** ****** ****** ****** ****** ****** ****** ******
   2  ****** ****** ****** ****** ****** ****** ****** ****** ****** ******
      ****** ****** ****** ****** ****** ****** ****** ****** ****** ******
      ****** ****** ****** ****** ****** ****** ****** ****** ****** ******
   3  ****** ****** ****** ****** ****** ****** ****** ****** ****** ******
      ****** ****** ****** ****** ****** ****** ****** ****** ****** ******
      ****** ****** ****** ****** ****** ****** ****** ****** ****** ******
   4  ****** ****** ****** ****** ****** ****** ****** ****** ****** ******
      ****** ****** ****** ****** ****** ****** ****** ****** ****** ******
      ****** ****** ****** ****** ****** ****** ****** ****** ****** ******
   5  ****** ****** ****** ****** ****** ****** ****** ****** ****** ******
      ****** ****** ****** ****** ****** ****** ****** ****** ****** ******
      ****** ****** ****** ****** ****** ****** ****** ****** ****** ******
   6  ****** ****** ****** ****** ****** ****** ****** ****** ****** ******
      ****** ****** ****** ****** ****** ****** ****** ****** ****** ******
      ****** ****** ****** ****** ****** ****** ****** ****** ****** ******
   7  ****** ****** ****** ****** ****** ****** ****** ****** ****** ******
      ****** ****** ****** ****** ****** ****** ****** ****** ****** ******
      ****** ****** ****** ****** ****** ****** ****** ****** ****** ******
   8  ****** ****** ****** ****** ****** ****** ****** ****** ****** ******
      ****** ****** ****** ****** ****** ****** ****** ****** ****** ******
      ****** ****** ****** ****** ****** ****** ****** ****** ****** ******
   9  ****** ****** ****** ****** ****** ****** ****** ****** ****** ******
      ****** ****** ****** ****** ****** ****** ****** ****** ****** ******
      ****** ****** ****** ****** ****** ****** ****** ****** ****** ******
  10  ****** ****** ****** ****** ****** ****** ****** ****** ****** ******
      ****** ****** ****** ****** ****** ****** ****** ****** ****** ******
      ****** ****** ****** ****** ****** ****** ****** ****** ****** ******
  11  ****** ****** ****** ****** ****** ****** ****** ****** ****** ******
      ****** ****** ****** ****** ****** ****** ****** ****** ****** ******
      ****** ****** ****** ****** ****** ****** ****** ****** ****** ******
  12  ****** ****** ****** ****** ****** ****** ****** ****** ****** ******
      ****** ****** ****** ****** ****** ****** ****** ****** ****** ******
      ****** ****** ****** ****** ****** ****** ****** ****** ****** ******
  13  ****** ****** ****** ****** ****** ****** ****** ****** ****** ******
      ****** ****** ****** ****** ****** ****** ****** ****** ****** ******
      ****** ****** ****** ****** ****** ****** ****** ****** ****** ******
  14  ****** ****** ****** ****** ****** ****** ****** ****** ****** ******
      ****** ****** ****** ****** ****** ****** ****** ****** ****** ******
      ****** ****** ****** ****** ****** ****** ****** ****** ****** ******
  15  ****** ****** ****** ****** ****** ****** ****** ****** ****** ******
      ****** ****** ****** ****** ****** ****** ****** ****** ****** ******
      ****** ****** ****** ****** ****** ****** ****** ****** ****** ******
  16  ****** ****** ****** ****** ****** ****** ****** ****** ****** ******
      ****** ****** ****** ****** ****** ****** ****** ****** ****** ******
      ****** ****** ****** ****** ****** ****** ****** ****** ****** ******
  17  ****** ****** ****** ****** ****** ****** ****** ****** ****** ******
      ****** ****** ****** ****** ****** ****** ****** ****** ****** ******
      ****** ****** ****** ****** ****** ****** ****** ****** ****** ******
  18  ****** ****** ****** ****** ****** ****** ****** ****** ****** ******
      ****** ****** ****** ****** ****** ****** ****** ****** ****** ******
      ****** ****** ****** ****** ****** ****** ****** ****** ****** ******
  19  ****** ****** ****** ****** ****** ****** ****** ****** ****** ******
      ****** ****** ****** ****** ****** ****** ****** ****** ****** ******
      ****** ****** ****** ****** ****** ****** ****** ****** ****** ******
  20  ****** ****** ****** ****** ****** ****** ****** ****** ****** ******
      ****** ****** ****** ****** ****** ****** ****** ****** ****** ******
      ****** ****** ****** ****** ****** ****** ****** ****** ****** ******
  21  ****** ****** ****** ****** ****** ****** ****** ****** ****** ******
      ****** ****** ****** ****** ****** ****** ****** ****** ****** ******
      ****** ****** ****** ****** ****** ****** ****** ****** ****** ******
  22  ****** ****** ****** ****** ****** ****** ****** ****** ****** ******
      ****** ****** ****** ****** ****** ****** ****** ****** ****** ******
      ****** ****** ****** ****** ****** ****** ****** ****** ****** ******
  23  ****** ****** ****** ****** ****** ****** ****** ****** ****** ******
      ****** ****** ****** ****** ****** ****** ****** ****** ****** ******
      ****** ****** ****** ****** ****** ****** ****** ****** ****** ******
  24  ****** ****** ****** ****** ****** ****** ****** ****** ****** ******
      ****** ****** ****** ****** ****** ****** ****** ****** ****** ******
      ****** ****** ****** ****** ****** ****** ****** ****** ****** ******
  25  ****** ****** ****** ****** ****** ****** ****** ****** ****** ******
      ****** ****** ****** ****** ****** ****** ****** ****** ****** ******
      ****** ****** ****** ****** ****** ****** ****** ****** ****** ******

 HEAD WILL BE SAVED ON UNIT   51 AT END OF TIME STEP    1, STRESS PERIOD    2
1
  VOLUMETRIC BUDGET FOR ENTIRE MODEL AT END OF TIME STEP    1, STRESS PERIOD   2
  ------------------------------------------------------------------------------

     CUMULATIVE VOLUMES      L**3       RATES FOR THIS TIME STEP      L**3/T
     ------------------                 ------------------------

           IN:                                      IN:
           ---                                      ---
             STORAGE =    23006793.9125               STORAGE =       54874.4144
       CONSTANT HEAD =     2816849.2381         CONSTANT HEAD =       17829.8680
               WELLS =           0.0000                 WELLS =           0.0000
            RECHARGE =     6292800.0000              RECHARGE =       55200.0000
      STREAM LEAKAGE =     1474308.0964        STREAM LEAKAGE =       12214.6903

            TOTAL IN =    33590751.2470              TOTAL IN =      140118.9728

          OUT:                                     OUT:
          ----                                     ----
             STORAGE =           0.0000               STORAGE =           0.0000
       CONSTANT HEAD =           0.0000         CONSTANT HEAD =           0.0000
               WELLS =     9242652.0890                 WELLS =       50506.2956
            RECHARGE =           0.0000              RECHARGE =           0.0000
      STREAM LEAKAGE =    24348100.4210        STREAM LEAKAGE =       89612.6879

           TOTAL OUT =    33590752.5100             TOTAL OUT =      140118.9834

            IN - OUT =          -1.2630              IN - OUT =      -1.0668E-02

 PERCENT DISCREPANCY =          -0.00     PERCENT DISCREPANCY =          -0.00






         TIME SUMMARY AT END OF TIME STEP    1 IN STRESS PERIOD    2
                    SECONDS     MINUTES      HOURS       DAYS        YEARS
                    -----------------------------------------------------------
   TIME STEP LENGTH 7.86240E+06 1.31040E+05  2184.0      91.000     0.24914    
 STRESS PERIOD TIME 7.86240E+06 1.31040E+05  2184.0      91.000     0.24914    
         TOTAL TIME 1.58112E+07 2.63520E+05  4392.0      183.00     0.50103    
1
1
                            STRESS PERIOD NO.    3, LENGTH =   91.00000    
                            -----------------------------------------------

                              NUMBER OF TIME STEPS =     1

                               MULTIPLIER FOR DELT =     1.500

                            INITIAL TIME STEP SIZE =   91.00000    

 WELL NO.  LAYER   ROW   COL   STRESS RATE         
 --------------------------------------------------
      1      1     20     29      -8734.    
      2      1     15     15     -0.1244E+05
      3      1     17     29     -0.1509E+05
      4      1      6     23     -0.1424E+05

      4 WELLS

                 RECHARGE =   0.00000    

 REUSING STREAM SEGMENT DATA FROM LAST STRESS PERIOD
 
 SOLVING FOR HEAD 


     7 CALLS TO PCG ROUTINE FOR TIME STEP   1 IN STRESS PERIOD    3
    27 TOTAL ITERATIONS

 OUTPUT CONTROL FOR STRESS PERIOD    3   TIME STEP    1
    SAVE BUDGET
    SAVE HEAD FOR ALL LAYERS
    PRINT HEAD FOR ALL LAYERS
 UBDSV2 SAVING "STREAMFLOW OUT  " ON UNIT  50 AT TIME STEP  1, STRESS PERIOD   3



 STREAM LISTING     PERIOD      3   STEP        1

 LAYER ROW COL. STREAM  RCH.  FLOW INTO     FLOW TO   FLOW OUT OF   OVRLND.     DIRECT     STREAM       STREAM     STREAM     STREAM   STREAMBED  STREAMBED
                SEG.NO.  NO.  STRM. RCH.    AQUIFER    STRM. RCH.    RUNOFF     PRECIP       ET          HEAD       DEPTH      WIDTH   CONDCTNC.   GRADIENT

   1   13    1     1     1    1.0000E+05 -2.7574E+03   1.0276E+05  0.000E+00  0.000E+00  0.000E+00  4.84072E+01  1.458E-01  2.000E+01  2.000E+04 -1.379E-01
   1   13    2     1     2    1.0276E+05 -3.8667E+03   1.0662E+05  0.000E+00  0.000E+00  0.000E+00  4.79328E+01  1.487E-01  2.000E+01  2.000E+04 -1.933E-01
   1   14    3     1     3    1.0662E+05 -6.5458E+02   1.0728E+05  0.000E+00  0.000E+00  0.000E+00  4.74574E+01  1.506E-01  2.000E+01  2.000E+04 -3.273E-02
   1   15    4     1     4    1.0728E+05 -6.3675E+02   1.0792E+05  0.000E+00  0.000E+00  0.000E+00  4.69807E+01  1.511E-01  2.000E+01  2.000E+04 -3.184E-02
   1   16    5     1     5    1.0792E+05 -2.4296E+03   1.1035E+05  0.000E+00  0.000E+00  0.000E+00  4.65047E+01  1.524E-01  2.000E+01  2.000E+04 -1.215E-01
   1   16    6     1     6    1.1035E+05 -1.4807E+03   1.1183E+05  0.000E+00  0.000E+00  0.000E+00  4.60291E+01  1.541E-01  2.000E+01  2.000E+04 -7.404E-02
   1   16    7     1     7    1.1183E+05 -1.4366E+03   1.1326E+05  0.000E+00  0.000E+00  0.000E+00  4.55530E+01  1.553E-01  2.000E+01  2.000E+04 -7.183E-02
   1   16    8     1     8    1.1326E+05 -1.4122E+03   1.1467E+05  0.000E+00  0.000E+00  0.000E+00  4.50769E+01  1.565E-01  2.000E+01  2.000E+04 -7.061E-02
   1   16    9     1     9    1.1467E+05 -1.3744E+03   1.1605E+05  0.000E+00  0.000E+00  0.000E+00  4.46008E+01  1.576E-01  2.000E+01  2.000E+04 -6.872E-02
   1   16   10     1    10    1.1605E+05 -1.3131E+03   1.1736E+05  0.000E+00  0.000E+00  0.000E+00  4.41246E+01  1.587E-01  2.000E+01  2.000E+04 -6.565E-02
   1   16   11     1    11    1.1736E+05 -1.2309E+03   1.1859E+05  0.000E+00  0.000E+00  0.000E+00  4.36484E+01  1.597E-01  2.000E+01  2.000E+04 -6.155E-02
   1   16   12     1    12    1.1859E+05 -1.6651E+03   1.2026E+05  0.000E+00  0.000E+00  0.000E+00  4.31723E+01  1.609E-01  2.000E+01  2.000E+04 -8.325E-02
   1   15   13     1    13    1.2026E+05 -2.7668E+02   1.2053E+05  0.000E+00  0.000E+00  0.000E+00  4.26958E+01  1.617E-01  2.000E+01  2.000E+04 -1.383E-02
   1   14   14     1    14    1.2053E+05  4.4879E+02   1.2009E+05  0.000E+00  0.000E+00  0.000E+00  4.22184E+01  1.616E-01  2.000E+01  2.000E+04  2.244E-02
   1   13   15     1    15    1.2009E+05 -1.0072E+03   1.2109E+05  0.000E+00  0.000E+00  0.000E+00  4.17414E+01  1.618E-01  2.000E+01  2.000E+04 -5.036E-02
   1   12   16     1    16    1.2109E+05 -3.2256E+03   1.2432E+05  0.000E+00  0.000E+00  0.000E+00  4.12658E+01  1.635E-01  2.000E+01  2.000E+04 -1.613E-01
   1   12   17     1    17    1.2432E+05 -1.8520E+03   1.2617E+05  0.000E+00  0.000E+00  0.000E+00  4.07906E+01  1.656E-01  2.000E+01  2.000E+04 -9.260E-02
   1   12   18     1    18    1.2617E+05 -1.7521E+03   1.2792E+05  0.000E+00  0.000E+00  0.000E+00  4.03147E+01  1.670E-01  2.000E+01  2.000E+04 -8.761E-02
   1   12   19     1    19    1.2792E+05 -2.2094E+03   1.3013E+05  0.000E+00  0.000E+00  0.000E+00  3.98390E+01  1.686E-01  2.000E+01  2.000E+04 -1.105E-01
   1   13   20     1    20    1.3013E+05 -1.5441E+03   1.3168E+05  0.000E+00  0.000E+00  0.000E+00  3.93632E+01  1.700E-01  2.000E+01  2.000E+04 -7.721E-02
   1   14   21     1    21    1.3168E+05 -1.6561E+03   1.3333E+05  0.000E+00  0.000E+00  0.000E+00  3.88872E+01  1.713E-01  2.000E+01  2.000E+04 -8.281E-02
   1   14   22     1    22    1.3333E+05  4.8879E+03   1.2844E+05  0.000E+00  0.000E+00  0.000E+00  3.84086E+01  1.700E-01  2.000E+01  2.000E+04  2.444E-01
   1    9   30     2     1    5.0000E+04 -2.7022E+02   5.0270E+04  0.000E+00  0.000E+00  0.000E+00  4.02411E+01  1.161E-01  2.000E+01  2.000E+04 -1.351E-02
   1    9   29     2     2    5.0270E+04 -5.3947E+02   5.0810E+04  0.000E+00  0.000E+00  0.000E+00  3.99916E+01  1.166E-01  2.000E+01  2.000E+04 -2.697E-02
   1    9   28     2     3    5.0810E+04 -7.1326E+02   5.1523E+04  0.000E+00  0.000E+00  0.000E+00  3.97425E+01  1.175E-01  2.000E+01  2.000E+04 -3.566E-02
   1    9   27     2     4    5.1523E+04 -1.4396E+03   5.2963E+04  0.000E+00  0.000E+00  0.000E+00  3.94940E+01  1.190E-01  2.000E+01  2.000E+04 -7.198E-02
   1   10   26     2     5    5.2963E+04 -6.8154E+02   5.3644E+04  0.000E+00  0.000E+00  0.000E+00  3.92454E+01  1.204E-01  2.000E+01  2.000E+04 -3.408E-02
   1   11   25     2     6    5.3644E+04 -6.9155E+02   5.4336E+04  0.000E+00  0.000E+00  0.000E+00  3.89963E+01  1.213E-01  2.000E+01  2.000E+04 -3.458E-02
   1   12   24     2     7    5.4336E+04 -1.0205E+03   5.5356E+04  0.000E+00  0.000E+00  0.000E+00  3.87475E+01  1.225E-01  2.000E+01  2.000E+04 -5.102E-02
   1   13   23     2     8    5.5356E+04 -1.7169E+02   5.5528E+04  0.000E+00  0.000E+00  0.000E+00  3.84983E+01  1.233E-01  2.000E+01  2.000E+04 -8.584E-03
   1   14   22     2     9    5.5528E+04  1.6606E+03   5.3867E+04  0.000E+00  0.000E+00  0.000E+00  3.82473E+01  1.223E-01  2.000E+01  2.000E+04  8.303E-02
   1   14   22     3     1    1.8231E+05 -8.6828E+03   1.9099E+05  0.000E+00  0.000E+00  0.000E+00  3.77301E+01  1.746E-01  2.000E+01  2.000E+04 -4.341E-01
   1   15   23     3     2    1.9099E+05 -5.8652E+02   1.9158E+05  0.000E+00  0.000E+00  0.000E+00  3.68438E+01  1.771E-01  2.000E+01  2.000E+04 -2.933E-02
   1   15   24     3     3    1.9158E+05 -3.1168E+02   1.9189E+05  0.000E+00  0.000E+00  0.000E+00  3.59552E+01  1.774E-01  2.000E+01  2.000E+04 -1.558E-02
   1   15   25     3     4    1.9189E+05 -2.9628E+02   1.9219E+05  0.000E+00  0.000E+00  0.000E+00  3.50664E+01  1.776E-01  2.000E+01  2.000E+04 -1.481E-02
   1   15   26     3     5    1.9219E+05 -2.5263E+02   1.9244E+05  0.000E+00  0.000E+00  0.000E+00  3.41777E+01  1.777E-01  2.000E+01  2.000E+04 -1.263E-02
   1   16   27     3     6    1.9244E+05 -6.2107E+01   1.9250E+05  0.000E+00  0.000E+00  0.000E+00  3.32889E+01  1.778E-01  2.000E+01  2.000E+04 -3.105E-03
   1   17   28     3     7    1.9250E+05  5.1515E+03   1.8735E+05  0.000E+00  0.000E+00  0.000E+00  3.23986E+01  1.764E-01  2.000E+01  2.000E+04  2.576E-01
   1   18   29     3     8    1.8735E+05  4.6190E+03   1.8273E+05  0.000E+00  0.000E+00  0.000E+00  3.15070E+01  1.736E-01  2.000E+01  2.000E+04  2.310E-01
   1   18   30     3     9    1.8273E+05  1.1635E+03   1.8157E+05  0.000E+00  0.000E+00  0.000E+00  3.06165E+01  1.720E-01  2.000E+01  2.000E+04  5.817E-02



1
              HEAD IN LAYER   1 AT END OF TIME STEP   1 IN STRESS PERIOD    3
  ---------------------------------------------------------------------------

          1      2      3      4      5      6      7      8      9     10
         11     12     13     14     15     16     17     18     19     20
         21     22     23     24     25     26     27     28     29     30
 .........................................................................
   1  ****** ****** ****** ****** ****** ****** ****** ****** ****** ******
      ****** ****** ****** ****** ****** ****** ****** ****** ****** ******
      ****** ****** ****** ****** ****** ****** ****** ****** ****** ******
   2  ****** ****** ****** ****** ****** ****** ****** ****** ****** ******
      ****** ****** ****** ****** ****** ****** ****** ****** ****** ******
      ****** ****** ****** ****** ****** ****** ****** ****** ****** ******
   3  ****** ****** ****** ****** ****** ****** ****** ****** ****** ******
      ****** ****** ****** ****** ****** ****** ****** ****** ****** ******
      ****** ****** ****** ****** ****** ****** ****** ****** ****** ******
   4  ****** ****** ****** ****** ****** ****** ****** ****** ****** ******
      ****** ****** ****** ****** ****** ****** ****** ****** ****** ******
      ****** ****** ****** ****** ****** ****** ****** ****** ****** ******
   5  ****** ****** ****** ****** ****** ****** ****** ****** ****** ******
      ****** ****** ****** ****** ****** ****** ****** ****** ****** ******
      ****** ****** ****** ****** ****** ****** ****** ****** ****** ******
   6  ****** ****** ****** ****** ****** ****** ****** ****** ****** ******
      ****** ****** ****** ****** ****** ****** ****** ****** ****** ******
      ****** ****** ****** ****** ****** ****** ****** ****** ****** ******
   7  ****** ****** ****** ****** ****** ****** ****** ****** ****** ******
      ****** ****** ****** ****** ****** ****** ****** ****** ****** ******
      ****** ****** ****** ****** ****** ****** ****** ****** ****** ******
   8  ****** ****** ****** ****** ****** ****** ****** ****** ****** ******
      ****** ****** ****** ****** ****** ****** ****** ****** ****** ******
      ****** ****** ****** ****** ****** ****** ****** ****** ****** ******
   9  ****** ****** ****** ****** ****** ****** ****** ****** ****** ******
      ****** ****** ****** ****** ****** ****** ****** ****** ****** ******
      ****** ****** ****** ****** ****** ****** ****** ****** ****** ******
  10  ****** ****** ****** ****** ****** ****** ****** ****** ****** ******
      ****** ****** ****** ****** ****** ****** ****** ****** ****** ******
      ****** ****** ****** ****** ****** ****** ****** ****** ****** ******
  11  ****** ****** ****** ****** ****** ****** ****** ****** ****** ******
      ****** ****** ****** ****** ****** ****** ****** ****** ****** ******
      ****** ****** ****** ****** ****** ****** ****** ****** ****** ******
  12  ****** ****** ****** ****** ****** ****** ****** ****** ****** ******
      ****** ****** ****** ****** ****** ****** ****** ****** ****** ******
      ****** ****** ****** ****** ****** ****** ****** ****** ****** ******
  13  ****** ****** ****** ****** ****** ****** ****** ****** ****** ******
      ****** ****** ****** ****** ****** ****** ****** ****** ****** ******
      ****** ****** ****** ****** ****** ****** ****** ****** ****** ******
  14  ****** ****** ****** ****** ****** ****** ****** ****** ****** ******
      ****** ****** ****** ****** ****** ****** ****** ****** ****** ******
      ****** ****** ****** ****** ****** ****** ****** ****** ****** ******
  15  ****** ****** ****** ****** ****** ****** ****** ****** ****** ******
      ****** ****** ****** ****** ****** ****** ****** ****** ****** ******
      ****** ****** ****** ****** ****** ****** ****** ****** ****** ******
  16  ****** ****** ****** ****** ****** ****** ****** ****** ****** ******
      ****** ****** ****** ****** ****** ****** ****** ****** ****** ******
      ****** ****** ****** ****** ****** ****** ****** ****** ****** ******
  17  ****** ****** ****** ****** ****** ****** ****** ****** ****** ******
      ****** ****** ****** ****** ****** ****** ****** ****** ****** ******
      ****** ****** ****** ****** ****** ****** ****** ****** ****** ******
  18  ****** ****** ****** ****** ****** ****** ****** ****** ****** ******
      ****** ****** ****** ****** ****** ****** ****** ****** ****** ******
      ****** ****** ****** ****** ****** ****** ****** ****** ****** ******
  19  ****** ****** ****** ****** ****** ****** ****** ****** ****** ******
      ****** ****** ****** ****** ****** ****** ****** ****** ****** ******
      ****** ****** ****** ****** ****** ****** ****** ****** ****** ******
  20  ****** ****** ****** ****** ****** ****** ****** ****** ****** ******
      ****** ****** ****** ****** ****** ****** ****** ****** ****** ******
      ****** ****** ****** ****** ****** ****** ****** ****** ****** ******
  21  ****** ****** ****** ****** ****** ****** ****** ****** ****** ******
      ****** ****** ****** ****** ****** ****** ****** ****** ****** ******
      ****** ****** ****** ****** ****** ****** ****** ****** ****** ******
  22  ****** ****** ****** ****** ****** ****** ****** ****** ****** ******
      ****** ****** ****** ****** ****** ****** ****** ****** ****** ******
      ****** ****** ****** ****** ****** ****** ****** ****** ****** ******
  23  ****** ****** ****** ****** ****** ****** ****** ****** ****** ******
      ****** ****** ****** ****** ****** ****** ****** ****** ****** ******
      ****** ****** ****** ****** ****** ****** ****** ****** ****** ******
  24  ****** ****** ****** ****** ****** ****** ****** ****** ****** ******
      ****** ****** ****** ****** ****** ****** ****** ****** ****** ******
      ****** ****** ****** ****** ****** ****** ****** ****** ****** ******
  25  ****** ****** ****** ****** ****** ****** ****** ****** ****** ******
      ****** ****** ****** ****** ****** ****** ****** ****** ****** ******
      ****** ****** ****** ****** ****** ****** ****** ****** ****** ******

 HEAD WILL BE SAVED ON UNIT   51 AT END OF TIME STEP    1, STRESS PERIOD    3
1
  VOLUMETRIC BUDGET FOR ENTIRE MODEL AT END OF TIME STEP    1, STRESS PERIOD   3
  ------------------------------------------------------------------------------

     CUMULATIVE VOLUMES      L**3       RATES FOR THIS TIME STEP      L**3/T
     ------------------                 ------------------------

           IN:                                      IN:
           ---                                      ---
             STORAGE =    28058206.2656               STORAGE =       55510.0259
       CONSTANT HEAD =     5234386.7806         CONSTANT HEAD =       26566.3466
               WELLS =           0.0000                 WELLS =           0.0000
            RECHARGE =     6292800.0000              RECHARGE =           0.0000
      STREAM LEAKAGE =     3106054.4588        STREAM LEAKAGE =       17931.2787

            TOTAL IN =    42691447.5050              TOTAL IN =      100007.6512

          OUT:                                     OUT:
          ----                                     ----
             STORAGE =           0.0000               STORAGE =           0.0000
       CONSTANT HEAD =           0.0000         CONSTANT HEAD =           0.0000
               WELLS =    13838724.9857                 WELLS =       50506.2956
            RECHARGE =           0.0000              RECHARGE =           0.0000
      STREAM LEAKAGE =    28852724.4737        STREAM LEAKAGE =       49501.3632

           TOTAL OUT =    42691449.4593             TOTAL OUT =      100007.6588

            IN - OUT =          -1.9544              IN - OUT =      -7.5980E-03

 PERCENT DISCREPANCY =          -0.00     PERCENT DISCREPANCY =          -0.00






         TIME SUMMARY AT END OF TIME STEP    1 IN STRESS PERIOD    3
                    SECONDS     MINUTES      HOURS       DAYS        YEARS
                    -----------------------------------------------------------
   TIME STEP LENGTH 7.86240E+06 1.31040E+05  2184.0      91.000     0.24914    
 STRESS PERIOD TIME 7.86240E+06 1.31040E+05  2184.0      91.000     0.24914    
         TOTAL TIME 2.36736E+07 3.94560E+05  6576.0      274.00     0.75017    
1
1
                            STRESS PERIOD NO.    4, LENGTH =   91.00000    
                            -----------------------------------------------

                              NUMBER OF TIME STEPS =     1

                               MULTIPLIER FOR DELT =     1.500

                            INITIAL TIME STEP SIZE =   91.00000    

 WELL NO.  LAYER   ROW   COL   STRESS RATE         
 --------------------------------------------------
      1      1     20     29      -8734.    
      2      1     15     15     -0.1244E+05
      3      1     17     29     -0.1509E+05
      4      1      6     23     -0.1424E+05

      4 WELLS

                 RECHARGE =  1.000000E-03

 REUSING STREAM SEGMENT DATA FROM LAST STRESS PERIOD
 
 SOLVING FOR HEAD 


     6 CALLS TO PCG ROUTINE FOR TIME STEP   1 IN STRESS PERIOD    4
    23 TOTAL ITERATIONS

 OUTPUT CONTROL FOR STRESS PERIOD    4   TIME STEP    1
    SAVE BUDGET
    SAVE HEAD FOR ALL LAYERS
    PRINT HEAD FOR ALL LAYERS
 UBDSV2 SAVING "STREAMFLOW OUT  " ON UNIT  50 AT TIME STEP  1, STRESS PERIOD   4



 STREAM LISTING     PERIOD      4   STEP        1

 LAYER ROW COL. STREAM  RCH.  FLOW INTO     FLOW TO   FLOW OUT OF   OVRLND.     DIRECT     STREAM       STREAM     STREAM     STREAM   STREAMBED  STREAMBED
                SEG.NO.  NO.  STRM. RCH.    AQUIFER    STRM. RCH.    RUNOFF     PRECIP       ET          HEAD       DEPTH      WIDTH   CONDCTNC.   GRADIENT

   1   13    1     1     1    1.0000E+05 -2.5258E+03   1.0253E+05  0.000E+00  0.000E+00  0.000E+00  4.84071E+01  1.457E-01  2.000E+01  2.000E+04 -1.263E-01
   1   13    2     1     2    1.0253E+05 -3.5976E+03   1.0612E+05  0.000E+00  0.000E+00  0.000E+00  4.79325E+01  1.484E-01  2.000E+01  2.000E+04 -1.799E-01
   1   14    3     1     3    1.0612E+05 -6.2659E+02   1.0675E+05  0.000E+00  0.000E+00  0.000E+00  4.74570E+01  1.502E-01  2.000E+01  2.000E+04 -3.133E-02
   1   15    4     1     4    1.0675E+05 -5.9868E+02   1.0735E+05  0.000E+00  0.000E+00  0.000E+00  4.69802E+01  1.507E-01  2.000E+01  2.000E+04 -2.993E-02
   1   16    5     1     5    1.0735E+05 -2.1257E+03   1.0947E+05  0.000E+00  0.000E+00  0.000E+00  4.65041E+01  1.518E-01  2.000E+01  2.000E+04 -1.063E-01
   1   16    6     1     6    1.0947E+05 -1.3310E+03   1.1081E+05  0.000E+00  0.000E+00  0.000E+00  4.60283E+01  1.533E-01  2.000E+01  2.000E+04 -6.655E-02
   1   16    7     1     7    1.1081E+05 -1.2980E+03   1.1210E+05  0.000E+00  0.000E+00  0.000E+00  4.55521E+01  1.544E-01  2.000E+01  2.000E+04 -6.490E-02
   1   16    8     1     8    1.1210E+05 -1.2773E+03   1.1338E+05  0.000E+00  0.000E+00  0.000E+00  4.50759E+01  1.554E-01  2.000E+01  2.000E+04 -6.387E-02
   1   16    9     1     9    1.1338E+05 -1.2416E+03   1.1462E+05  0.000E+00  0.000E+00  0.000E+00  4.45997E+01  1.565E-01  2.000E+01  2.000E+04 -6.208E-02
   1   16   10     1    10    1.1462E+05 -1.1827E+03   1.1581E+05  0.000E+00  0.000E+00  0.000E+00  4.41234E+01  1.575E-01  2.000E+01  2.000E+04 -5.913E-02
   1   16   11     1    11    1.1581E+05 -1.0989E+03   1.1690E+05  0.000E+00  0.000E+00  0.000E+00  4.36471E+01  1.584E-01  2.000E+01  2.000E+04 -5.494E-02
   1   16   12     1    12    1.1690E+05 -1.3861E+03   1.1829E+05  0.000E+00  0.000E+00  0.000E+00  4.31708E+01  1.594E-01  2.000E+01  2.000E+04 -6.930E-02
   1   15   13     1    13    1.1829E+05 -1.8363E+01   1.1831E+05  0.000E+00  0.000E+00  0.000E+00  4.26941E+01  1.600E-01  2.000E+01  2.000E+04 -9.181E-04
   1   14   14     1    14    1.1831E+05  7.2947E+02   1.1758E+05  0.000E+00  0.000E+00  0.000E+00  4.22165E+01  1.597E-01  2.000E+01  2.000E+04  3.647E-02
   1   13   15     1    15    1.1758E+05 -7.0021E+02   1.1828E+05  0.000E+00  0.000E+00  0.000E+00  4.17392E+01  1.597E-01  2.000E+01  2.000E+04 -3.501E-02
   1   12   16     1    16    1.1828E+05 -2.8160E+03   1.2110E+05  0.000E+00  0.000E+00  0.000E+00  4.12634E+01  1.611E-01  2.000E+01  2.000E+04 -1.408E-01
   1   12   17     1    17    1.2110E+05 -1.6002E+03   1.2270E+05  0.000E+00  0.000E+00  0.000E+00  4.07879E+01  1.629E-01  2.000E+01  2.000E+04 -8.001E-02
   1   12   18     1    18    1.2270E+05 -1.5139E+03   1.2421E+05  0.000E+00  0.000E+00  0.000E+00  4.03119E+01  1.641E-01  2.000E+01  2.000E+04 -7.569E-02
   1   12   19     1    19    1.2421E+05 -1.9060E+03   1.2612E+05  0.000E+00  0.000E+00  0.000E+00  3.98360E+01  1.655E-01  2.000E+01  2.000E+04 -9.530E-02
   1   13   20     1    20    1.2612E+05 -1.3464E+03   1.2746E+05  0.000E+00  0.000E+00  0.000E+00  3.93600E+01  1.668E-01  2.000E+01  2.000E+04 -6.732E-02
   1   14   21     1    21    1.2746E+05 -1.3998E+03   1.2886E+05  0.000E+00  0.000E+00  0.000E+00  3.88838E+01  1.679E-01  2.000E+01  2.000E+04 -6.999E-02
   1   14   22     1    22    1.2886E+05  4.9321E+03   1.2393E+05  0.000E+00  0.000E+00  0.000E+00  3.84051E+01  1.665E-01  2.000E+01  2.000E+04  2.466E-01
   1    9   30     2     1    5.0000E+04 -1.4756E+02   5.0148E+04  0.000E+00  0.000E+00  0.000E+00  4.02410E+01  1.160E-01  2.000E+01  2.000E+04 -7.378E-03
   1    9   29     2     2    5.0148E+04 -4.0869E+02   5.0556E+04  0.000E+00  0.000E+00  0.000E+00  3.99914E+01  1.164E-01  2.000E+01  2.000E+04 -2.043E-02
   1    9   28     2     3    5.0556E+04 -5.5900E+02   5.1115E+04  0.000E+00  0.000E+00  0.000E+00  3.97420E+01  1.170E-01  2.000E+01  2.000E+04 -2.795E-02
   1    9   27     2     4    5.1115E+04 -1.1065E+03   5.2222E+04  0.000E+00  0.000E+00  0.000E+00  3.94932E+01  1.182E-01  2.000E+01  2.000E+04 -5.533E-02
   1   10   26     2     5    5.2222E+04 -4.7753E+02   5.2699E+04  0.000E+00  0.000E+00  0.000E+00  3.92443E+01  1.193E-01  2.000E+01  2.000E+04 -2.388E-02
   1   11   25     2     6    5.2699E+04 -5.3685E+02   5.3236E+04  0.000E+00  0.000E+00  0.000E+00  3.89949E+01  1.199E-01  2.000E+01  2.000E+04 -2.684E-02
   1   12   24     2     7    5.3236E+04 -8.8927E+02   5.4125E+04  0.000E+00  0.000E+00  0.000E+00  3.87459E+01  1.209E-01  2.000E+01  2.000E+04 -4.446E-02
   1   13   23     2     8    5.4125E+04 -1.9257E+02   5.4318E+04  0.000E+00  0.000E+00  0.000E+00  3.84966E+01  1.216E-01  2.000E+01  2.000E+04 -9.628E-03
   1   14   22     2     9    5.4318E+04  1.7417E+03   5.2576E+04  0.000E+00  0.000E+00  0.000E+00  3.82456E+01  1.206E-01  2.000E+01  2.000E+04  8.708E-02
   1   14   22     3     1    1.7651E+05 -8.6340E+03   1.8514E+05  0.000E+00  0.000E+00  0.000E+00  3.77268E+01  1.713E-01  2.000E+01  2.000E+04 -4.317E-01
   1   15   23     3     2    1.8514E+05 -5.5706E+02   1.8570E+05  0.000E+00  0.000E+00  0.000E+00  3.68405E+01  1.739E-01  2.000E+01  2.000E+04 -2.785E-02
   1   15   24     3     3    1.8570E+05 -3.0696E+02   1.8600E+05  0.000E+00  0.000E+00  0.000E+00  3.59519E+01  1.741E-01  2.000E+01  2.000E+04 -1.535E-02
   1   15   25     3     4    1.8600E+05 -2.9119E+02   1.8629E+05  0.000E+00  0.000E+00  0.000E+00  3.50632E+01  1.743E-01  2.000E+01  2.000E+04 -1.456E-02
   1   15   26     3     5    1.8629E+05 -2.5704E+02   1.8655E+05  0.000E+00  0.000E+00  0.000E+00  3.41744E+01  1.744E-01  2.000E+01  2.000E+04 -1.285E-02
   1   16   27     3     6    1.8655E+05 -5.4684E+01   1.8661E+05  0.000E+00  0.000E+00  0.000E+00  3.32856E+01  1.745E-01  2.000E+01  2.000E+04 -2.734E-03
   1   17   28     3     7    1.8661E+05  5.2513E+03   1.8136E+05  0.000E+00  0.000E+00  0.000E+00  3.23953E+01  1.730E-01  2.000E+01  2.000E+04  2.626E-01
   1   18   29     3     8    1.8136E+05  4.9063E+03   1.7645E+05  0.000E+00  0.000E+00  0.000E+00  3.15035E+01  1.702E-01  2.000E+01  2.000E+04  2.453E-01
   1   18   30     3     9    1.7645E+05  1.3179E+03   1.7513E+05  0.000E+00  0.000E+00  0.000E+00  3.06128E+01  1.684E-01  2.000E+01  2.000E+04  6.589E-02



1
              HEAD IN LAYER   1 AT END OF TIME STEP   1 IN STRESS PERIOD    4
  ---------------------------------------------------------------------------

          1      2      3      4      5      6      7      8      9     10
         11     12     13     14     15     16     17     18     19     20
         21     22     23     24     25     26     27     28     29     30
 .........................................................................
   1  ****** ****** ****** ****** ****** ****** ****** ****** ****** ******
      ****** ****** ****** ****** ****** ****** ****** ****** ****** ******
      ****** ****** ****** ****** ****** ****** ****** ****** ****** ******
   2  ****** ****** ****** ****** ****** ****** ****** ****** ****** ******
      ****** ****** ****** ****** ****** ****** ****** ****** ****** ******
      ****** ****** ****** ****** ****** ****** ****** ****** ****** ******
   3  ****** ****** ****** ****** ****** ****** ****** ****** ****** ******
      ****** ****** ****** ****** ****** ****** ****** ****** ****** ******
      ****** ****** ****** ****** ****** ****** ****** ****** ****** ******
   4  ****** ****** ****** ****** ****** ****** ****** ****** ****** ******
      ****** ****** ****** ****** ****** ****** ****** ****** ****** ******
      ****** ****** ****** ****** ****** ****** ****** ****** ****** ******
   5  ****** ****** ****** ****** ****** ****** ****** ****** ****** ******
      ****** ****** ****** ****** ****** ****** ****** ****** ****** ******
      ****** ****** ****** ****** ****** ****** ****** ****** ****** ******
   6  ****** ****** ****** ****** ****** ****** ****** ****** ****** ******
      ****** ****** ****** ****** ****** ****** ****** ****** ****** ******
      ****** ****** ****** ****** ****** ****** ****** ****** ****** ******
   7  ****** ****** ****** ****** ****** ****** ****** ****** ****** ******
      ****** ****** ****** ****** ****** ****** ****** ****** ****** ******
      ****** ****** ****** ****** ****** ****** ****** ****** ****** ******
   8  ****** ****** ****** ****** ****** ****** ****** ****** ****** ******
      ****** ****** ****** ****** ****** ****** ****** ****** ****** ******
      ****** ****** ****** ****** ****** ****** ****** ****** ****** ******
   9  ****** ****** ****** ****** ****** ****** ****** ****** ****** ******
      ****** ****** ****** ****** ****** ****** ****** ****** ****** ******
      ****** ****** ****** ****** ****** ****** ****** ****** ****** ******
  10  ****** ****** ****** ****** ****** ****** ****** ****** ****** ******
      ****** ****** ****** ****** ****** ****** ****** ****** ****** ******
      ****** ****** ****** ****** ****** ****** ****** ****** ****** ******
  11  ****** ****** ****** ****** ****** ****** ****** ****** ****** ******
      ****** ****** ****** ****** ****** ****** ****** ****** ****** ******
      ****** ****** ****** ****** ****** ****** ****** ****** ****** ******
  12  ****** ****** ****** ****** ****** ****** ****** ****** ****** ******
      ****** ****** ****** ****** ****** ****** ****** ****** ****** ******
      ****** ****** ****** ****** ****** ****** ****** ****** ****** ******
  13  ****** ****** ****** ****** ****** ****** ****** ****** ****** ******
      ****** ****** ****** ****** ****** ****** ****** ****** ****** ******
      ****** ****** ****** ****** ****** ****** ****** ****** ****** ******
  14  ****** ****** ****** ****** ****** ****** ****** ****** ****** ******
      ****** ****** ****** ****** ****** ****** ****** ****** ****** ******
      ****** ****** ****** ****** ****** ****** ****** ****** ****** ******
  15  ****** ****** ****** ****** ****** ****** ****** ****** ****** ******
      ****** ****** ****** ****** ****** ****** ****** ****** ****** ******
      ****** ****** ****** ****** ****** ****** ****** ****** ****** ******
  16  ****** ****** ****** ****** ****** ****** ****** ****** ****** ******
      ****** ****** ****** ****** ****** ****** ****** ****** ****** ******
      ****** ****** ****** ****** ****** ****** ****** ****** ****** ******
  17  ****** ****** ****** ****** ****** ****** ****** ****** ****** ******
      ****** ****** ****** ****** ****** ****** ****** ****** ****** ******
      ****** ****** ****** ****** ****** ****** ****** ****** ****** ******
  18  ****** ****** ****** ****** ****** ****** ****** ****** ****** ******
      ****** ****** ****** ****** ****** ****** ****** ****** ****** ******
      ****** ****** ****** ****** ****** ****** ****** ****** ****** ******
  19  ****** ****** ****** ****** ****** ****** ****** ****** ****** ******
      ****** ****** ****** ****** ****** ****** ****** ****** ****** ******
      ****** ****** ****** ****** ****** ****** ****** ****** ****** ******
  20  ****** ****** ****** ****** ****** ****** ****** ****** ****** ******
      ****** ****** ****** ****** ****** ****** ****** ****** ****** ******
      ****** ****** ****** ****** ****** ****** ****** ****** ****** ******
  21  ****** ****** ****** ****** ****** ****** ****** ****** ****** ******
      ****** ****** ****** ****** ****** ****** ****** ****** ****** ******
      ****** ****** ****** ****** ****** ****** ****** ****** ****** ******
  22  ****** ****** ****** ****** ****** ****** ****** ****** ****** ******
      ****** ****** ****** ****** ****** ****** ****** ****** ****** ******
      ****** ****** ****** ****** ****** ****** ****** ****** ****** ******
  23  ****** ****** ****** ****** ****** ****** ****** ****** ****** ******
      ****** ****** ****** ****** ****** ****** ****** ****** ****** ******
      ****** ****** ****** ****** ****** ****** ****** ****** ****** ******
  24  ****** ****** ****** ****** ****** ****** ****** ****** ****** ******
      ****** ****** ****** ****** ****** ****** ****** ****** ****** ******
      ****** ****** ****** ****** ****** ****** ****** ****** ****** ******
  25  ****** ****** ****** ****** ****** ****** ****** ****** ****** ******
      ****** ****** ****** ****** ****** ****** ****** ****** ****** ******
      ****** ****** ****** ****** ****** ****** ****** ****** ****** ******

 HEAD WILL BE SAVED ON UNIT   51 AT END OF TIME STEP    1, STRESS PERIOD    4
1
  VOLUMETRIC BUDGET FOR ENTIRE MODEL AT END OF TIME STEP    1, STRESS PERIOD   4
  ------------------------------------------------------------------------------

     CUMULATIVE VOLUMES      L**3       RATES FOR THIS TIME STEP      L**3/T
     ------------------                 ------------------------

           IN:                                      IN:
           ---                                      ---
             STORAGE =    29767235.1490               STORAGE =       18780.5372
       CONSTANT HEAD =     7897530.6685         CONSTANT HEAD =       29265.3174
               WELLS =           0.0000                 WELLS =           0.0000
            RECHARGE =     8804400.0000              RECHARGE =       27600.0000
      STREAM LEAKAGE =     4824011.6139        STREAM LEAKAGE =       18878.6501

            TOTAL IN =    51293177.4314              TOTAL IN =       94524.5047

          OUT:                                     OUT:
          ----                                     ----
             STORAGE =         773.4889               STORAGE =           8.4999
       CONSTANT HEAD =           0.0000         CONSTANT HEAD =           0.0000
               WELLS =    18434797.8824                 WELLS =       50506.2956
            RECHARGE =           0.0000              RECHARGE =           0.0000
      STREAM LEAKAGE =    32857608.0868        STREAM LEAKAGE =       44009.7100

           TOTAL OUT =    51293179.4580             TOTAL OUT =       94524.5055

            IN - OUT =          -2.0266              IN - OUT =      -7.9413E-04

 PERCENT DISCREPANCY =          -0.00     PERCENT DISCREPANCY =          -0.00






         TIME SUMMARY AT END OF TIME STEP    1 IN STRESS PERIOD    4
                    SECONDS     MINUTES      HOURS       DAYS        YEARS
                    -----------------------------------------------------------
   TIME STEP LENGTH 7.86240E+06 1.31040E+05  2184.0      91.000     0.24914    
 STRESS PERIOD TIME 7.86240E+06 1.31040E+05  2184.0      91.000     0.24914    
         TOTAL TIME 3.15360E+07 5.25600E+05  8760.0      365.00     0.99932    
1
1
                            STRESS PERIOD NO.    5, LENGTH =   92.00000    
                            -----------------------------------------------

                              NUMBER OF TIME STEPS =     1

                               MULTIPLIER FOR DELT =     1.500

                            INITIAL TIME STEP SIZE =   92.00000    

 WELL NO.  LAYER   ROW   COL   STRESS RATE         
 --------------------------------------------------
      1      1     20     29      -8734.    
      2      1     15     15     -0.1244E+05
      3      1     17     29     -0.1509E+05
      4      1      6     23     -0.1424E+05

      4 WELLS

                 RECHARGE =  5.000000E-04

 REUSING STREAM SEGMENT DATA FROM LAST STRESS PERIOD
 
 SOLVING FOR HEAD 


     7 CALLS TO PCG ROUTINE FOR TIME STEP   1 IN STRESS PERIOD    5
    26 TOTAL ITERATIONS

 OUTPUT CONTROL FOR STRESS PERIOD    5   TIME STEP    1
    SAVE BUDGET
    SAVE HEAD FOR ALL LAYERS
    PRINT HEAD FOR ALL LAYERS
 UBDSV2 SAVING "STREAMFLOW OUT  " ON UNIT  50 AT TIME STEP  1, STRESS PERIOD   5



 STREAM LISTING     PERIOD      5   STEP        1

 LAYER ROW COL. STREAM  RCH.  FLOW INTO     FLOW TO   FLOW OUT OF   OVRLND.     DIRECT     STREAM       STREAM     STREAM     STREAM   STREAMBED  STREAMBED
                SEG.NO.  NO.  STRM. RCH.    AQUIFER    STRM. RCH.    RUNOFF     PRECIP       ET          HEAD       DEPTH      WIDTH   CONDCTNC.   GRADIENT

   1   13    1     1     1    1.0000E+05 -2.1139E+03   1.0211E+05  0.000E+00  0.000E+00  0.000E+00  4.84069E+01  1.456E-01  2.000E+01  2.000E+04 -1.057E-01
   1   13    2     1     2    1.0211E+05 -3.1322E+03   1.0525E+05  0.000E+00  0.000E+00  0.000E+00  4.79319E+01  1.478E-01  2.000E+01  2.000E+04 -1.566E-01
   1   14    3     1     3    1.0525E+05 -5.0490E+02   1.0575E+05  0.000E+00  0.000E+00  0.000E+00  4.74562E+01  1.494E-01  2.000E+01  2.000E+04 -2.524E-02
   1   15    4     1     4    1.0575E+05 -4.7029E+02   1.0622E+05  0.000E+00  0.000E+00  0.000E+00  4.69793E+01  1.498E-01  2.000E+01  2.000E+04 -2.351E-02
   1   16    5     1     5    1.0622E+05 -1.6943E+03   1.0792E+05  0.000E+00  0.000E+00  0.000E+00  4.65030E+01  1.507E-01  2.000E+01  2.000E+04 -8.471E-02
   1   16    6     1     6    1.0792E+05 -1.0786E+03   1.0899E+05  0.000E+00  0.000E+00  0.000E+00  4.60269E+01  1.519E-01  2.000E+01  2.000E+04 -5.393E-02
   1   16    7     1     7    1.0899E+05 -1.0559E+03   1.1005E+05  0.000E+00  0.000E+00  0.000E+00  4.55505E+01  1.528E-01  2.000E+01  2.000E+04 -5.279E-02
   1   16    8     1     8    1.1005E+05 -1.0387E+03   1.1109E+05  0.000E+00  0.000E+00  0.000E+00  4.50741E+01  1.536E-01  2.000E+01  2.000E+04 -5.193E-02
   1   16    9     1     9    1.1109E+05 -1.0056E+03   1.1209E+05  0.000E+00  0.000E+00  0.000E+00  4.45977E+01  1.545E-01  2.000E+01  2.000E+04 -5.028E-02
   1   16   10     1    10    1.1209E+05 -9.4951E+02   1.1304E+05  0.000E+00  0.000E+00  0.000E+00  4.41212E+01  1.553E-01  2.000E+01  2.000E+04 -4.748E-02
   1   16   11     1    11    1.1304E+05 -8.6445E+02   1.1391E+05  0.000E+00  0.000E+00  0.000E+00  4.36447E+01  1.561E-01  2.000E+01  2.000E+04 -4.322E-02
   1   16   12     1    12    1.1391E+05 -9.6489E+02   1.1487E+05  0.000E+00  0.000E+00  0.000E+00  4.31682E+01  1.568E-01  2.000E+01  2.000E+04 -4.824E-02
   1   15   13     1    13    1.1487E+05  4.2422E+02   1.1445E+05  0.000E+00  0.000E+00  0.000E+00  4.26911E+01  1.570E-01  2.000E+01  2.000E+04  2.121E-02
   1   14   14     1    14    1.1445E+05  1.2000E+03   1.1325E+05  0.000E+00  0.000E+00  0.000E+00  4.22132E+01  1.564E-01  2.000E+01  2.000E+04  6.000E-02
   1   13   15     1    15    1.1325E+05 -2.1146E+02   1.1346E+05  0.000E+00  0.000E+00  0.000E+00  4.17355E+01  1.560E-01  2.000E+01  2.000E+04 -1.057E-02
   1   12   16     1    16    1.1346E+05 -2.2781E+03   1.1574E+05  0.000E+00  0.000E+00  0.000E+00  4.12592E+01  1.570E-01  2.000E+01  2.000E+04 -1.139E-01
   1   12   17     1    17    1.1574E+05 -1.2368E+03   1.1698E+05  0.000E+00  0.000E+00  0.000E+00  4.07834E+01  1.584E-01  2.000E+01  2.000E+04 -6.184E-02
   1   12   18     1    18    1.1698E+05 -1.1664E+03   1.1814E+05  0.000E+00  0.000E+00  0.000E+00  4.03071E+01  1.594E-01  2.000E+01  2.000E+04 -5.832E-02
   1   12   19     1    19    1.1814E+05 -1.4817E+03   1.1962E+05  0.000E+00  0.000E+00  0.000E+00  3.98309E+01  1.605E-01  2.000E+01  2.000E+04 -7.408E-02
   1   13   20     1    20    1.1962E+05 -9.7842E+02   1.2060E+05  0.000E+00  0.000E+00  0.000E+00  3.93546E+01  1.615E-01  2.000E+01  2.000E+04 -4.892E-02
   1   14   21     1    21    1.2060E+05 -1.0073E+03   1.2161E+05  0.000E+00  0.000E+00  0.000E+00  3.88782E+01  1.623E-01  2.000E+01  2.000E+04 -5.037E-02
   1   14   22     1    22    1.2161E+05  5.0158E+03   1.1659E+05  0.000E+00  0.000E+00  0.000E+00  3.83993E+01  1.606E-01  2.000E+01  2.000E+04  2.508E-01
   1    9   30     2     1    5.0000E+04  9.7864E+01   4.9902E+04  0.000E+00  0.000E+00  0.000E+00  4.02408E+01  1.158E-01  2.000E+01  2.000E+04  4.893E-03
   1    9   29     2     2    4.9902E+04 -1.5929E+02   5.0061E+04  0.000E+00  0.000E+00  0.000E+00  3.99908E+01  1.158E-01  2.000E+01  2.000E+04 -7.965E-03
   1    9   28     2     3    5.0061E+04 -2.9649E+02   5.0358E+04  0.000E+00  0.000E+00  0.000E+00  3.97412E+01  1.162E-01  2.000E+01  2.000E+04 -1.482E-02
   1    9   27     2     4    5.0358E+04 -6.9047E+02   5.1048E+04  0.000E+00  0.000E+00  0.000E+00  3.94918E+01  1.168E-01  2.000E+01  2.000E+04 -3.452E-02
   1   10   26     2     5    5.1048E+04 -1.1891E+02   5.1167E+04  0.000E+00  0.000E+00  0.000E+00  3.92424E+01  1.174E-01  2.000E+01  2.000E+04 -5.946E-03
   1   11   25     2     6    5.1167E+04 -2.0982E+02   5.1377E+04  0.000E+00  0.000E+00  0.000E+00  3.89926E+01  1.176E-01  2.000E+01  2.000E+04 -1.049E-02
   1   12   24     2     7    5.1377E+04 -5.9142E+02   5.1969E+04  0.000E+00  0.000E+00  0.000E+00  3.87432E+01  1.182E-01  2.000E+01  2.000E+04 -2.957E-02
   1   13   23     2     8    5.1969E+04 -1.2215E+02   5.2091E+04  0.000E+00  0.000E+00  0.000E+00  3.84937E+01  1.187E-01  2.000E+01  2.000E+04 -6.107E-03
   1   14   22     2     9    5.2091E+04  1.8793E+03   5.0211E+04  0.000E+00  0.000E+00  0.000E+00  3.82425E+01  1.175E-01  2.000E+01  2.000E+04  9.397E-02
   1   14   22     3     1    1.6680E+05 -8.5456E+03   1.7535E+05  0.000E+00  0.000E+00  0.000E+00  3.77212E+01  1.657E-01  2.000E+01  2.000E+04 -4.273E-01
   1   15   23     3     2    1.7535E+05 -4.5477E+02   1.7580E+05  0.000E+00  0.000E+00  0.000E+00  3.68349E+01  1.683E-01  2.000E+01  2.000E+04 -2.274E-02
   1   15   24     3     3    1.7580E+05 -2.3224E+02   1.7604E+05  0.000E+00  0.000E+00  0.000E+00  3.59462E+01  1.685E-01  2.000E+01  2.000E+04 -1.161E-02
   1   15   25     3     4    1.7604E+05 -2.1710E+02   1.7625E+05  0.000E+00  0.000E+00  0.000E+00  3.50575E+01  1.686E-01  2.000E+01  2.000E+04 -1.085E-02
   1   15   26     3     5    1.7625E+05 -1.8258E+02   1.7644E+05  0.000E+00  0.000E+00  0.000E+00  3.41687E+01  1.687E-01  2.000E+01  2.000E+04 -9.129E-03
   1   16   27     3     6    1.7644E+05  3.9900E+01   1.7640E+05  0.000E+00  0.000E+00  0.000E+00  3.32799E+01  1.687E-01  2.000E+01  2.000E+04  1.995E-03
   1   17   28     3     7    1.7640E+05  5.5359E+03   1.7086E+05  0.000E+00  0.000E+00  0.000E+00  3.23894E+01  1.671E-01  2.000E+01  2.000E+04  2.768E-01
   1   18   29     3     8    1.7086E+05  5.3145E+03   1.6555E+05  0.000E+00  0.000E+00  0.000E+00  3.14973E+01  1.640E-01  2.000E+01  2.000E+04  2.657E-01
   1   18   30     3     9    1.6555E+05  1.5972E+03   1.6395E+05  0.000E+00  0.000E+00  0.000E+00  3.06064E+01  1.620E-01  2.000E+01  2.000E+04  7.986E-02



1
              HEAD IN LAYER   1 AT END OF TIME STEP   1 IN STRESS PERIOD    5
  ---------------------------------------------------------------------------

          1      2      3      4      5      6      7      8      9     10
         11     12     13     14     15     16     17     18     19     20
         21     22     23     24     25     26     27     28     29     30
 .........................................................................
   1  ****** ****** ****** ****** ****** ****** ****** ****** ****** ******
      ****** ****** ****** ****** ****** ****** ****** ****** ****** ******
      ****** ****** ****** ****** ****** ****** ****** ****** ****** ******
   2  ****** ****** ****** ****** ****** ****** ****** ****** ****** ******
      ****** ****** ****** ****** ****** ****** ****** ****** ****** ******
      ****** ****** ****** ****** ****** ****** ****** ****** ****** ******
   3  ****** ****** ****** ****** ****** ****** ****** ****** ****** ******
      ****** ****** ****** ****** ****** ****** ****** ****** ****** ******
      ****** ****** ****** ****** ****** ****** ****** ****** ****** ******
   4  ****** ****** ****** ****** ****** ****** ****** ****** ****** ******
      ****** ****** ****** ****** ****** ****** ****** ****** ****** ******
      ****** ****** ****** ****** ****** ****** ****** ****** ****** ******
   5  ****** ****** ****** ****** ****** ****** ****** ****** ****** ******
      ****** ****** ****** ****** ****** ****** ****** ****** ****** ******
      ****** ****** ****** ****** ****** ****** ****** ****** ****** ******
   6  ****** ****** ****** ****** ****** ****** ****** ****** ****** ******
      ****** ****** ****** ****** ****** ****** ****** ****** ****** ******
      ****** ****** ****** ****** ****** ****** ****** ****** ****** ******
   7  ****** ****** ****** ****** ****** ****** ****** ****** ****** ******
      ****** ****** ****** ****** ****** ****** ****** ****** ****** ******
      ****** ****** ****** ****** ****** ****** ****** ****** ****** ******
   8  ****** ****** ****** ****** ****** ****** ****** ****** ****** ******
      ****** ****** ****** ****** ****** ****** ****** ****** ****** ******
      ****** ****** ****** ****** ****** ****** ****** ****** ****** ******
   9  ****** ****** ****** ****** ****** ****** ****** ****** ****** ******
      ****** ****** ****** ****** ****** ****** ****** ****** ****** ******
      ****** ****** ****** ****** ****** ****** ****** ****** ****** ******
  10  ****** ****** ****** ****** ****** ****** ****** ****** ****** ******
      ****** ****** ****** ****** ****** ****** ****** ****** ****** ******
      ****** ****** ****** ****** ****** ****** ****** ****** ****** ******
  11  ****** ****** ****** ****** ****** ****** ****** ****** ****** ******
      ****** ****** ****** ****** ****** ****** ****** ****** ****** ******
      ****** ****** ****** ****** ****** ****** ****** ****** ****** ******
  12  ****** ****** ****** ****** ****** ****** ****** ****** ****** ******
      ****** ****** ****** ****** ****** ****** ****** ****** ****** ******
      ****** ****** ****** ****** ****** ****** ****** ****** ****** ******
  13  ****** ****** ****** ****** ****** ****** ****** ****** ****** ******
      ****** ****** ****** ****** ****** ****** ****** ****** ****** ******
      ****** ****** ****** ****** ****** ****** ****** ****** ****** ******
  14  ****** ****** ****** ****** ****** ****** ****** ****** ****** ******
      ****** ****** ****** ****** ****** ****** ****** ****** ****** ******
      ****** ****** ****** ****** ****** ****** ****** ****** ****** ******
  15  ****** ****** ****** ****** ****** ****** ****** ****** ****** ******
      ****** ****** ****** ****** ****** ****** ****** ****** ****** ******
      ****** ****** ****** ****** ****** ****** ****** ****** ****** ******
  16  ****** ****** ****** ****** ****** ****** ****** ****** ****** ******
      ****** ****** ****** ****** ****** ****** ****** ****** ****** ******
      ****** ****** ****** ****** ****** ****** ****** ****** ****** ******
  17  ****** ****** ****** ****** ****** ****** ****** ****** ****** ******
      ****** ****** ****** ****** ****** ****** ****** ****** ****** ******
      ****** ****** ****** ****** ****** ****** ****** ****** ****** ******
  18  ****** ****** ****** ****** ****** ****** ****** ****** ****** ******
      ****** ****** ****** ****** ****** ****** ****** ****** ****** ******
      ****** ****** ****** ****** ****** ****** ****** ****** ****** ******
  19  ****** ****** ****** ****** ****** ****** ****** ****** ****** ******
      ****** ****** ****** ****** ****** ****** ****** ****** ****** ******
      ****** ****** ****** ****** ****** ****** ****** ****** ****** ******
  20  ****** ****** ****** ****** ****** ****** ****** ****** ****** ******
      ****** ****** ****** ****** ****** ****** ****** ****** ****** ******
      ****** ****** ****** ****** ****** ****** ****** ****** ****** ******
  21  ****** ****** ****** ****** ****** ****** ****** ****** ****** ******
      ****** ****** ****** ****** ****** ****** ****** ****** ****** ******
      ****** ****** ****** ****** ****** ****** ****** ****** ****** ******
  22  ****** ****** ****** ****** ****** ****** ****** ****** ****** ******
      ****** ****** ****** ****** ****** ****** ****** ****** ****** ******
      ****** ****** ****** ****** ****** ****** ****** ****** ****** ******
  23  ****** ****** ****** ****** ****** ****** ****** ****** ****** ******
      ****** ****** ****** ****** ****** ****** ****** ****** ****** ******
      ****** ****** ****** ****** ****** ****** ****** ****** ****** ******
  24  ****** ****** ****** ****** ****** ****** ****** ****** ****** ******
      ****** ****** ****** ****** ****** ****** ****** ****** ****** ******
      ****** ****** ****** ****** ****** ****** ****** ****** ****** ******
  25  ****** ****** ****** ****** ****** ****** ****** ****** ****** ******
      ****** ****** ****** ****** ****** ****** ****** ****** ****** ******
      ****** ****** ****** ****** ****** ****** ****** ****** ****** ******

 HEAD WILL BE SAVED ON UNIT   51 AT END OF TIME STEP    1, STRESS PERIOD    5
1
  VOLUMETRIC BUDGET FOR ENTIRE MODEL AT END OF TIME STEP    1, STRESS PERIOD   5
  ------------------------------------------------------------------------------

     CUMULATIVE VOLUMES      L**3       RATES FOR THIS TIME STEP      L**3/T
     ------------------                 ------------------------

           IN:                                      IN:
           ---                                      ---
             STORAGE =    31461849.8106               STORAGE =       18419.7246
       CONSTANT HEAD =    10863224.6364         CONSTANT HEAD =       32235.8040
               WELLS =           0.0000                 WELLS =           0.0000
            RECHARGE =    10074000.0000              RECHARGE =       13800.0000
      STREAM LEAKAGE =     6765654.8224        STREAM LEAKAGE =       21104.8175

            TOTAL IN =    59164729.2694              TOTAL IN =       85560.3461

          OUT:                                     OUT:
          ----                                     ----
             STORAGE =         773.4889               STORAGE =           0.0000
       CONSTANT HEAD =           0.0000         CONSTANT HEAD =           0.0000
               WELLS =    23081377.0746                 WELLS =       50506.2956
            RECHARGE =           0.0000              RECHARGE =           0.0000
      STREAM LEAKAGE =    36082581.0206        STREAM LEAKAGE =       35054.0536

           TOTAL OUT =    59164731.5842             TOTAL OUT =       85560.3492

            IN - OUT =          -2.3148              IN - OUT =      -3.1318E-03

 PERCENT DISCREPANCY =          -0.00     PERCENT DISCREPANCY =          -0.00






         TIME SUMMARY AT END OF TIME STEP    1 IN STRESS PERIOD    5
                    SECONDS     MINUTES      HOURS       DAYS        YEARS
                    -----------------------------------------------------------
   TIME STEP LENGTH 7.94880E+06 1.32480E+05  2208.0      92.000     0.25188    
 STRESS PERIOD TIME 7.94880E+06 1.32480E+05  2208.0      92.000     0.25188    
         TOTAL TIME 3.94848E+07 6.58080E+05  10968.      457.00      1.2512    
1
1
                            STRESS PERIOD NO.    6, LENGTH =   91.00000    
                            -----------------------------------------------

                              NUMBER OF TIME STEPS =     1

                               MULTIPLIER FOR DELT =     1.500

                            INITIAL TIME STEP SIZE =   91.00000    

 WELL NO.  LAYER   ROW   COL   STRESS RATE         
 --------------------------------------------------
      1      1     20     29      -8734.    
      2      1     15     15     -0.1244E+05
      3      1     17     29     -0.1509E+05
      4      1      6     23     -0.1424E+05

      4 WELLS

                 RECHARGE =  2.000000E-03

 REUSING STREAM SEGMENT DATA FROM LAST STRESS PERIOD
 
 SOLVING FOR HEAD 


     7 CALLS TO PCG ROUTINE FOR TIME STEP   1 IN STRESS PERIOD    6
    26 TOTAL ITERATIONS

 OUTPUT CONTROL FOR STRESS PERIOD    6   TIME STEP    1
    SAVE BUDGET
    SAVE HEAD FOR ALL LAYERS
    PRINT HEAD FOR ALL LAYERS
 UBDSV2 SAVING "STREAMFLOW OUT  " ON UNIT  50 AT TIME STEP  1, STRESS PERIOD   6



 STREAM LISTING     PERIOD      6   STEP        1

 LAYER ROW COL. STREAM  RCH.  FLOW INTO     FLOW TO   FLOW OUT OF   OVRLND.     DIRECT     STREAM       STREAM     STREAM     STREAM   STREAMBED  STREAMBED
                SEG.NO.  NO.  STRM. RCH.    AQUIFER    STRM. RCH.    RUNOFF     PRECIP       ET          HEAD       DEPTH      WIDTH   CONDCTNC.   GRADIENT

   1   13    1     1     1    1.0000E+05 -2.4313E+03   1.0243E+05  0.000E+00  0.000E+00  0.000E+00  4.84071E+01  1.457E-01  2.000E+01  2.000E+04 -1.216E-01
   1   13    2     1     2    1.0243E+05 -3.4800E+03   1.0591E+05  0.000E+00  0.000E+00  0.000E+00  4.79323E+01  1.482E-01  2.000E+01  2.000E+04 -1.740E-01
   1   14    3     1     3    1.0591E+05 -6.6028E+02   1.0657E+05  0.000E+00  0.000E+00  0.000E+00  4.74568E+01  1.500E-01  2.000E+01  2.000E+04 -3.301E-02
   1   15    4     1     4    1.0657E+05 -6.3702E+02   1.0721E+05  0.000E+00  0.000E+00  0.000E+00  4.69801E+01  1.506E-01  2.000E+01  2.000E+04 -3.185E-02
   1   16    5     1     5    1.0721E+05 -2.1906E+03   1.0940E+05  0.000E+00  0.000E+00  0.000E+00  4.65040E+01  1.517E-01  2.000E+01  2.000E+04 -1.095E-01
   1   16    6     1     6    1.0940E+05 -1.3699E+03   1.1077E+05  0.000E+00  0.000E+00  0.000E+00  4.60282E+01  1.532E-01  2.000E+01  2.000E+04 -6.850E-02
   1   16    7     1     7    1.1077E+05 -1.3319E+03   1.1210E+05  0.000E+00  0.000E+00  0.000E+00  4.55521E+01  1.544E-01  2.000E+01  2.000E+04 -6.659E-02
   1   16    8     1     8    1.1210E+05 -1.3100E+03   1.1341E+05  0.000E+00  0.000E+00  0.000E+00  4.50759E+01  1.555E-01  2.000E+01  2.000E+04 -6.550E-02
   1   16    9     1     9    1.1341E+05 -1.2762E+03   1.1469E+05  0.000E+00  0.000E+00  0.000E+00  4.45997E+01  1.565E-01  2.000E+01  2.000E+04 -6.381E-02
   1   16   10     1    10    1.1469E+05 -1.2214E+03   1.1591E+05  0.000E+00  0.000E+00  0.000E+00  4.41235E+01  1.575E-01  2.000E+01  2.000E+04 -6.107E-02
   1   16   11     1    11    1.1591E+05 -1.1392E+03   1.1705E+05  0.000E+00  0.000E+00  0.000E+00  4.36472E+01  1.585E-01  2.000E+01  2.000E+04 -5.696E-02
   1   16   12     1    12    1.1705E+05 -1.4076E+03   1.1846E+05  0.000E+00  0.000E+00  0.000E+00  4.31709E+01  1.596E-01  2.000E+01  2.000E+04 -7.038E-02
   1   15   13     1    13    1.1846E+05 -2.8746E+01   1.1848E+05  0.000E+00  0.000E+00  0.000E+00  4.26942E+01  1.601E-01  2.000E+01  2.000E+04 -1.437E-03
   1   14   14     1    14    1.1848E+05  7.5214E+02   1.1773E+05  0.000E+00  0.000E+00  0.000E+00  4.22167E+01  1.598E-01  2.000E+01  2.000E+04  3.761E-02
   1   13   15     1    15    1.1773E+05 -6.3950E+02   1.1837E+05  0.000E+00  0.000E+00  0.000E+00  4.17393E+01  1.598E-01  2.000E+01  2.000E+04 -3.197E-02
   1   12   16     1    16    1.1837E+05 -2.6587E+03   1.2103E+05  0.000E+00  0.000E+00  0.000E+00  4.12634E+01  1.611E-01  2.000E+01  2.000E+04 -1.329E-01
   1   12   17     1    17    1.2103E+05 -1.5466E+03   1.2258E+05  0.000E+00  0.000E+00  0.000E+00  4.07878E+01  1.628E-01  2.000E+01  2.000E+04 -7.733E-02
   1   12   18     1    18    1.2258E+05 -1.4794E+03   1.2406E+05  0.000E+00  0.000E+00  0.000E+00  4.03118E+01  1.640E-01  2.000E+01  2.000E+04 -7.397E-02
   1   12   19     1    19    1.2406E+05 -1.8696E+03   1.2593E+05  0.000E+00  0.000E+00  0.000E+00  3.98358E+01  1.654E-01  2.000E+01  2.000E+04 -9.348E-02
   1   13   20     1    20    1.2593E+05 -1.3949E+03   1.2732E+05  0.000E+00  0.000E+00  0.000E+00  3.93598E+01  1.667E-01  2.000E+01  2.000E+04 -6.975E-02
   1   14   21     1    21    1.2732E+05 -1.4126E+03   1.2873E+05  0.000E+00  0.000E+00  0.000E+00  3.88837E+01  1.678E-01  2.000E+01  2.000E+04 -7.063E-02
   1   14   22     1    22    1.2873E+05  4.9103E+03   1.2382E+05  0.000E+00  0.000E+00  0.000E+00  3.84050E+01  1.664E-01  2.000E+01  2.000E+04  2.455E-01
   1    9   30     2     1    5.0000E+04 -2.6024E+02   5.0260E+04  0.000E+00  0.000E+00  0.000E+00  4.02410E+01  1.160E-01  2.000E+01  2.000E+04 -1.301E-02
   1    9   29     2     2    5.0260E+04 -5.1286E+02   5.0773E+04  0.000E+00  0.000E+00  0.000E+00  3.99916E+01  1.166E-01  2.000E+01  2.000E+04 -2.564E-02
   1    9   28     2     3    5.0773E+04 -6.4281E+02   5.1416E+04  0.000E+00  0.000E+00  0.000E+00  3.97424E+01  1.174E-01  2.000E+01  2.000E+04 -3.214E-02
   1    9   27     2     4    5.1416E+04 -1.1255E+03   5.2541E+04  0.000E+00  0.000E+00  0.000E+00  3.94936E+01  1.186E-01  2.000E+01  2.000E+04 -5.627E-02
   1   10   26     2     5    5.2541E+04 -5.8144E+02   5.3123E+04  0.000E+00  0.000E+00  0.000E+00  3.92448E+01  1.198E-01  2.000E+01  2.000E+04 -2.907E-02
   1   11   25     2     6    5.3123E+04 -6.5920E+02   5.3782E+04  0.000E+00  0.000E+00  0.000E+00  3.89956E+01  1.206E-01  2.000E+01  2.000E+04 -3.296E-02
   1   12   24     2     7    5.3782E+04 -9.9679E+02   5.4779E+04  0.000E+00  0.000E+00  0.000E+00  3.87467E+01  1.217E-01  2.000E+01  2.000E+04 -4.984E-02
   1   13   23     2     8    5.4779E+04 -2.5934E+02   5.5038E+04  0.000E+00  0.000E+00  0.000E+00  3.84976E+01  1.226E-01  2.000E+01  2.000E+04 -1.297E-02
   1   14   22     2     9    5.5038E+04  1.7412E+03   5.3297E+04  0.000E+00  0.000E+00  0.000E+00  3.82466E+01  1.216E-01  2.000E+01  2.000E+04  8.706E-02
   1   14   22     3     1    1.7712E+05 -8.6469E+03   1.8577E+05  0.000E+00  0.000E+00  0.000E+00  3.77272E+01  1.716E-01  2.000E+01  2.000E+04 -4.323E-01
   1   15   23     3     2    1.8577E+05 -5.9043E+02   1.8636E+05  0.000E+00  0.000E+00  0.000E+00  3.68409E+01  1.742E-01  2.000E+01  2.000E+04 -2.952E-02
   1   15   24     3     3    1.8636E+05 -3.5305E+02   1.8671E+05  0.000E+00  0.000E+00  0.000E+00  3.59523E+01  1.745E-01  2.000E+01  2.000E+04 -1.765E-02
   1   15   25     3     4    1.8671E+05 -3.4240E+02   1.8705E+05  0.000E+00  0.000E+00  0.000E+00  3.50636E+01  1.747E-01  2.000E+01  2.000E+04 -1.712E-02
   1   15   26     3     5    1.8705E+05 -3.3311E+02   1.8739E+05  0.000E+00  0.000E+00  0.000E+00  3.41749E+01  1.749E-01  2.000E+01  2.000E+04 -1.666E-02
   1   16   27     3     6    1.8739E+05 -1.2729E+02   1.8751E+05  0.000E+00  0.000E+00  0.000E+00  3.32861E+01  1.750E-01  2.000E+01  2.000E+04 -6.365E-03
   1   17   28     3     7    1.8751E+05  5.0789E+03   1.8243E+05  0.000E+00  0.000E+00  0.000E+00  3.23958E+01  1.736E-01  2.000E+01  2.000E+04  2.539E-01
   1   18   29     3     8    1.8243E+05  4.8871E+03   1.7755E+05  0.000E+00  0.000E+00  0.000E+00  3.15041E+01  1.708E-01  2.000E+01  2.000E+04  2.444E-01
   1   18   30     3     9    1.7755E+05  1.2488E+03   1.7630E+05  0.000E+00  0.000E+00  0.000E+00  3.06135E+01  1.690E-01  2.000E+01  2.000E+04  6.244E-02



1
              HEAD IN LAYER   1 AT END OF TIME STEP   1 IN STRESS PERIOD    6
  ---------------------------------------------------------------------------

          1      2      3      4      5      6      7      8      9     10
         11     12     13     14     15     16     17     18     19     20
         21     22     23     24     25     26     27     28     29     30
 .........................................................................
   1  ****** ****** ****** ****** ****** ****** ****** ****** ****** ******
      ****** ****** ****** ****** ****** ****** ****** ****** ****** ******
      ****** ****** ****** ****** ****** ****** ****** ****** ****** ******
   2  ****** ****** ****** ****** ****** ****** ****** ****** ****** ******
      ****** ****** ****** ****** ****** ****** ****** ****** ****** ******
      ****** ****** ****** ****** ****** ****** ****** ****** ****** ******
   3  ****** ****** ****** ****** ****** ****** ****** ****** ****** ******
      ****** ****** ****** ****** ****** ****** ****** ****** ****** ******
      ****** ****** ****** ****** ****** ****** ****** ****** ****** ******
   4  ****** ****** ****** ****** ****** ****** ****** ****** ****** ******
      ****** ****** ****** ****** ****** ****** ****** ****** ****** ******
      ****** ****** ****** ****** ****** ****** ****** ****** ****** ******
   5  ****** ****** ****** ****** ****** ****** ****** ****** ****** ******
      ****** ****** ****** ****** ****** ****** ****** ****** ****** ******
      ****** ****** ****** ****** ****** ****** ****** ****** ****** ******
   6  ****** ****** ****** ****** ****** ****** ****** ****** ****** ******
      ****** ****** ****** ****** ****** ****** ****** ****** ****** ******
      ****** ****** ****** ****** ****** ****** ****** ****** ****** ******
   7  ****** ****** ****** ****** ****** ****** ****** ****** ****** ******
      ****** ****** ****** ****** ****** ****** ****** ****** ****** ******
      ****** ****** ****** ****** ****** ****** ****** ****** ****** ******
   8  ****** ****** ****** ****** ****** ****** ****** ****** ****** ******
      ****** ****** ****** ****** ****** ****** ****** ****** ****** ******
      ****** ****** ****** ****** ****** ****** ****** ****** ****** ******
   9  ****** ****** ****** ****** ****** ****** ****** ****** ****** ******
      ****** ****** ****** ****** ****** ****** ****** ****** ****** ******
      ****** ****** ****** ****** ****** ****** ****** ****** ****** ******
  10  ****** ****** ****** ****** ****** ****** ****** ****** ****** ******
      ****** ****** ****** ****** ****** ****** ****** ****** ****** ******
      ****** ****** ****** ****** ****** ****** ****** ****** ****** ******
  11  ****** ****** ****** ****** ****** ****** ****** ****** ****** ******
      ****** ****** ****** ****** ****** ****** ****** ****** ****** ******
      ****** ****** ****** ****** ****** ****** ****** ****** ****** ******
  12  ****** ****** ****** ****** ****** ****** ****** ****** ****** ******
      ****** ****** ****** ****** ****** ****** ****** ****** ****** ******
      ****** ****** ****** ****** ****** ****** ****** ****** ****** ******
  13  ****** ****** ****** ****** ****** ****** ****** ****** ****** ******
      ****** ****** ****** ****** ****** ****** ****** ****** ****** ******
      ****** ****** ****** ****** ****** ****** ****** ****** ****** ******
  14  ****** ****** ****** ****** ****** ****** ****** ****** ****** ******
      ****** ****** ****** ****** ****** ****** ****** ****** ****** ******
      ****** ****** ****** ****** ****** ****** ****** ****** ****** ******
  15  ****** ****** ****** ****** ****** ****** ****** ****** ****** ******
      ****** ****** ****** ****** ****** ****** ****** ****** ****** ******
      ****** ****** ****** ****** ****** ****** ****** ****** ****** ******
  16  ****** ****** ****** ****** ****** ****** ****** ****** ****** ******
      ****** ****** ****** ****** ****** ****** ****** ****** ****** ******
      ****** ****** ****** ****** ****** ****** ****** ****** ****** ******
  17  ****** ****** ****** ****** ****** ****** ****** ****** ****** ******
      ****** ****** ****** ****** ****** ****** ****** ****** ****** ******
      ****** ****** ****** ****** ****** ****** ****** ****** ****** ******
  18  ****** ****** ****** ****** ****** ****** ****** ****** ****** ******
      ****** ****** ****** ****** ****** ****** ****** ****** ****** ******
      ****** ****** ****** ****** ****** ****** ****** ****** ****** ******
  19  ****** ****** ****** ****** ****** ****** ****** ****** ****** ******
      ****** ****** ****** ****** ****** ****** ****** ****** ****** ******
      ****** ****** ****** ****** ****** ****** ****** ****** ****** ******
  20  ****** ****** ****** ****** ****** ****** ****** ****** ****** ******
      ****** ****** ****** ****** ****** ****** ****** ****** ****** ******
      ****** ****** ****** ****** ****** ****** ****** ****** ****** ******
  21  ****** ****** ****** ****** ****** ****** ****** ****** ****** ******
      ****** ****** ****** ****** ****** ****** ****** ****** ****** ******
      ****** ****** ****** ****** ****** ****** ****** ****** ****** ******
  22  ****** ****** ****** ****** ****** ****** ****** ****** ****** ******
      ****** ****** ****** ****** ****** ****** ****** ****** ****** ******
      ****** ****** ****** ****** ****** ****** ****** ****** ****** ******
  23  ****** ****** ****** ****** ****** ****** ****** ****** ****** ******
      ****** ****** ****** ****** ****** ****** ****** ****** ****** ******
      ****** ****** ****** ****** ****** ****** ****** ****** ****** ******
  24  ****** ****** ****** ****** ****** ****** ****** ****** ****** ******
      ****** ****** ****** ****** ****** ****** ****** ****** ****** ******
      ****** ****** ****** ****** ****** ****** ****** ****** ****** ******
  25  ****** ****** ****** ****** ****** ****** ****** ****** ****** ******
      ****** ****** ****** ****** ****** ****** ****** ****** ****** ******
      ****** ****** ****** ****** ****** ****** ****** ****** ****** ******

 HEAD WILL BE SAVED ON UNIT   51 AT END OF TIME STEP    1, STRESS PERIOD    6
1
  VOLUMETRIC BUDGET FOR ENTIRE MODEL AT END OF TIME STEP    1, STRESS PERIOD   6
  ------------------------------------------------------------------------------

     CUMULATIVE VOLUMES      L**3       RATES FOR THIS TIME STEP      L**3/T
     ------------------                 ------------------------

           IN:                                      IN:
           ---                                      ---
             STORAGE =    31461849.8106               STORAGE =           0.0000
       CONSTANT HEAD =    13625117.8329         CONSTANT HEAD =       30350.4747
               WELLS =           0.0000                 WELLS =           0.0000
            RECHARGE =    15097200.0000              RECHARGE =       55200.0000
      STREAM LEAKAGE =     8459928.2279        STREAM LEAKAGE =       18618.3891

            TOTAL IN =    68644095.8714              TOTAL IN =      104168.8638

          OUT:                                     OUT:
          ----                                     ----
             STORAGE =      796639.4416               STORAGE =        8745.7797
       CONSTANT HEAD =           0.0000         CONSTANT HEAD =           0.0000
               WELLS =    27677449.9713                 WELLS =       50506.2956
            RECHARGE =           0.0000              RECHARGE =           0.0000
      STREAM LEAKAGE =    40170008.5088        STREAM LEAKAGE =       44916.7856

           TOTAL OUT =    68644097.9216             TOTAL OUT =      104168.8609

            IN - OUT =          -2.0502              IN - OUT =       2.9070E-03

 PERCENT DISCREPANCY =          -0.00     PERCENT DISCREPANCY =           0.00






         TIME SUMMARY AT END OF TIME STEP    1 IN STRESS PERIOD    6
                    SECONDS     MINUTES      HOURS       DAYS        YEARS
                    -----------------------------------------------------------
   TIME STEP LENGTH 7.86240E+06 1.31040E+05  2184.0      91.000     0.24914    
 STRESS PERIOD TIME 7.86240E+06 1.31040E+05  2184.0      91.000     0.24914    
         TOTAL TIME 4.73472E+07 7.89120E+05  13152.      548.00      1.5003    
1
1
                            STRESS PERIOD NO.    7, LENGTH =   91.00000    
                            -----------------------------------------------

                              NUMBER OF TIME STEPS =     1

                               MULTIPLIER FOR DELT =     1.500

                            INITIAL TIME STEP SIZE =   91.00000    

 WELL NO.  LAYER   ROW   COL   STRESS RATE         
 --------------------------------------------------
      1      1     20     29      -8734.    
      2      1     15     15     -0.1244E+05
      3      1     17     29     -0.1509E+05
      4      1      6     23     -0.1424E+05

      4 WELLS

                 RECHARGE =   0.00000    

 REUSING STREAM SEGMENT DATA FROM LAST STRESS PERIOD
 
 SOLVING FOR HEAD 


     7 CALLS TO PCG ROUTINE FOR TIME STEP   1 IN STRESS PERIOD    7
    26 TOTAL ITERATIONS

 OUTPUT CONTROL FOR STRESS PERIOD    7   TIME STEP    1
    SAVE BUDGET
    SAVE HEAD FOR ALL LAYERS
    PRINT HEAD FOR ALL LAYERS
 UBDSV2 SAVING "STREAMFLOW OUT  " ON UNIT  50 AT TIME STEP  1, STRESS PERIOD   7



 STREAM LISTING     PERIOD      7   STEP        1

 LAYER ROW COL. STREAM  RCH.  FLOW INTO     FLOW TO   FLOW OUT OF   OVRLND.     DIRECT     STREAM       STREAM     STREAM     STREAM   STREAMBED  STREAMBED
                SEG.NO.  NO.  STRM. RCH.    AQUIFER    STRM. RCH.    RUNOFF     PRECIP       ET          HEAD       DEPTH      WIDTH   CONDCTNC.   GRADIENT

   1   13    1     1     1    1.0000E+05 -1.7675E+03   1.0177E+05  0.000E+00  0.000E+00  0.000E+00  4.84068E+01  1.454E-01  2.000E+01  2.000E+04 -8.837E-02
   1   13    2     1     2    1.0177E+05 -2.7375E+03   1.0450E+05  0.000E+00  0.000E+00  0.000E+00  4.79314E+01  1.474E-01  2.000E+01  2.000E+04 -1.369E-01
   1   14    3     1     3    1.0450E+05 -4.0878E+02   1.0491E+05  0.000E+00  0.000E+00  0.000E+00  4.74555E+01  1.487E-01  2.000E+01  2.000E+04 -2.044E-02
   1   15    4     1     4    1.0491E+05 -3.7465E+02   1.0529E+05  0.000E+00  0.000E+00  0.000E+00  4.69786E+01  1.490E-01  2.000E+01  2.000E+04 -1.873E-02
   1   16    5     1     5    1.0529E+05 -1.4373E+03   1.0673E+05  0.000E+00  0.000E+00  0.000E+00  4.65021E+01  1.498E-01  2.000E+01  2.000E+04 -7.186E-02
   1   16    6     1     6    1.0673E+05 -9.1565E+02   1.0764E+05  0.000E+00  0.000E+00  0.000E+00  4.60258E+01  1.508E-01  2.000E+01  2.000E+04 -4.578E-02
   1   16    7     1     7    1.0764E+05 -8.9595E+02   1.0854E+05  0.000E+00  0.000E+00  0.000E+00  4.55493E+01  1.516E-01  2.000E+01  2.000E+04 -4.480E-02
   1   16    8     1     8    1.0854E+05 -8.7988E+02   1.0942E+05  0.000E+00  0.000E+00  0.000E+00  4.50728E+01  1.523E-01  2.000E+01  2.000E+04 -4.399E-02
   1   16    9     1     9    1.0942E+05 -8.4908E+02   1.1027E+05  0.000E+00  0.000E+00  0.000E+00  4.45962E+01  1.530E-01  2.000E+01  2.000E+04 -4.245E-02
   1   16   10     1    10    1.1027E+05 -7.9657E+02   1.1106E+05  0.000E+00  0.000E+00  0.000E+00  4.41196E+01  1.537E-01  2.000E+01  2.000E+04 -3.983E-02
   1   16   11     1    11    1.1106E+05 -7.1280E+02   1.1178E+05  0.000E+00  0.000E+00  0.000E+00  4.36430E+01  1.543E-01  2.000E+01  2.000E+04 -3.564E-02
   1   16   12     1    12    1.1178E+05 -6.9040E+02   1.1247E+05  0.000E+00  0.000E+00  0.000E+00  4.31663E+01  1.549E-01  2.000E+01  2.000E+04 -3.452E-02
   1   15   13     1    13    1.1247E+05  7.3997E+02   1.1173E+05  0.000E+00  0.000E+00  0.000E+00  4.26890E+01  1.549E-01  2.000E+01  2.000E+04  3.700E-02
   1   14   14     1    14    1.1173E+05  1.5485E+03   1.1018E+05  0.000E+00  0.000E+00  0.000E+00  4.22108E+01  1.540E-01  2.000E+01  2.000E+04  7.742E-02
   1   13   15     1    15    1.1018E+05  1.5880E+02   1.1002E+05  0.000E+00  0.000E+00  0.000E+00  4.17328E+01  1.532E-01  2.000E+01  2.000E+04  7.940E-03
   1   12   16     1    16    1.1002E+05 -1.8664E+03   1.1189E+05  0.000E+00  0.000E+00  0.000E+00  4.12562E+01  1.540E-01  2.000E+01  2.000E+04 -9.332E-02
   1   12   17     1    17    1.1189E+05 -9.6964E+02   1.1285E+05  0.000E+00  0.000E+00  0.000E+00  4.07801E+01  1.551E-01  2.000E+01  2.000E+04 -4.848E-02
   1   12   18     1    18    1.1285E+05 -9.1608E+02   1.1377E+05  0.000E+00  0.000E+00  0.000E+00  4.03036E+01  1.559E-01  2.000E+01  2.000E+04 -4.580E-02
   1   12   19     1    19    1.1377E+05 -1.1808E+03   1.1495E+05  0.000E+00  0.000E+00  0.000E+00  3.98272E+01  1.568E-01  2.000E+01  2.000E+04 -5.904E-02
   1   13   20     1    20    1.1495E+05 -7.2365E+02   1.1568E+05  0.000E+00  0.000E+00  0.000E+00  3.93507E+01  1.576E-01  2.000E+01  2.000E+04 -3.618E-02
   1   14   21     1    21    1.1568E+05 -7.4917E+02   1.1642E+05  0.000E+00  0.000E+00  0.000E+00  3.88741E+01  1.582E-01  2.000E+01  2.000E+04 -3.746E-02
   1   14   22     1    22    1.1642E+05  5.0695E+03   1.1136E+05  0.000E+00  0.000E+00  0.000E+00  3.83950E+01  1.564E-01  2.000E+01  2.000E+04  2.535E-01
   1    9   30     2     1    5.0000E+04  2.5567E+02   4.9744E+04  0.000E+00  0.000E+00  0.000E+00  4.02407E+01  1.157E-01  2.000E+01  2.000E+04  1.278E-02
   1    9   29     2     2    4.9744E+04  1.3190E+00   4.9743E+04  0.000E+00  0.000E+00  0.000E+00  3.99905E+01  1.155E-01  2.000E+01  2.000E+04  6.595E-05
   1    9   28     2     3    4.9743E+04 -1.2709E+02   4.9870E+04  0.000E+00  0.000E+00  0.000E+00  3.97406E+01  1.156E-01  2.000E+01  2.000E+04 -6.355E-03
   1    9   27     2     4    4.9870E+04 -4.2395E+02   5.0294E+04  0.000E+00  0.000E+00  0.000E+00  3.94910E+01  1.160E-01  2.000E+01  2.000E+04 -2.120E-02
   1   10   26     2     5    5.0294E+04  1.2051E+02   5.0174E+04  0.000E+00  0.000E+00  0.000E+00  3.92412E+01  1.162E-01  2.000E+01  2.000E+04  6.025E-03
   1   11   25     2     6    5.0174E+04  1.3423E+01   5.0160E+04  0.000E+00  0.000E+00  0.000E+00  3.89911E+01  1.161E-01  2.000E+01  2.000E+04  6.712E-04
   1   12   24     2     7    5.0160E+04 -3.8375E+02   5.0544E+04  0.000E+00  0.000E+00  0.000E+00  3.87414E+01  1.164E-01  2.000E+01  2.000E+04 -1.919E-02
   1   13   23     2     8    5.0544E+04 -6.7261E+01   5.0611E+04  0.000E+00  0.000E+00  0.000E+00  3.84917E+01  1.167E-01  2.000E+01  2.000E+04 -3.363E-03
   1   14   22     2     9    5.0611E+04  1.9757E+03   4.8635E+04  0.000E+00  0.000E+00  0.000E+00  3.82403E+01  1.153E-01  2.000E+01  2.000E+04  9.879E-02
   1   14   22     3     1    1.5999E+05 -8.4870E+03   1.6848E+05  0.000E+00  0.000E+00  0.000E+00  3.77172E+01  1.617E-01  2.000E+01  2.000E+04 -4.243E-01
   1   15   23     3     2    1.6848E+05 -3.8353E+02   1.6886E+05  0.000E+00  0.000E+00  0.000E+00  3.68309E+01  1.643E-01  2.000E+01  2.000E+04 -1.918E-02
   1   15   24     3     3    1.6886E+05 -1.7908E+02   1.6904E+05  0.000E+00  0.000E+00  0.000E+00  3.59422E+01  1.644E-01  2.000E+01  2.000E+04 -8.954E-03
   1   15   25     3     4    1.6904E+05 -1.6535E+02   1.6921E+05  0.000E+00  0.000E+00  0.000E+00  3.50534E+01  1.645E-01  2.000E+01  2.000E+04 -8.268E-03
   1   15   26     3     5    1.6921E+05 -1.3165E+02   1.6934E+05  0.000E+00  0.000E+00  0.000E+00  3.41646E+01  1.646E-01  2.000E+01  2.000E+04 -6.583E-03
   1   16   27     3     6    1.6934E+05  1.0552E+02   1.6923E+05  0.000E+00  0.000E+00  0.000E+00  3.32757E+01  1.646E-01  2.000E+01  2.000E+04  5.276E-03
   1   17   28     3     7    1.6923E+05  5.7223E+03   1.6351E+05  0.000E+00  0.000E+00  0.000E+00  3.23851E+01  1.629E-01  2.000E+01  2.000E+04  2.861E-01
   1   18   29     3     8    1.6351E+05  5.5771E+03   1.5793E+05  0.000E+00  0.000E+00  0.000E+00  3.14929E+01  1.596E-01  2.000E+01  2.000E+04  2.789E-01
   1   18   30     3     9    1.5793E+05  1.7795E+03   1.5615E+05  0.000E+00  0.000E+00  0.000E+00  3.06018E+01  1.574E-01  2.000E+01  2.000E+04  8.897E-02



1
              HEAD IN LAYER   1 AT END OF TIME STEP   1 IN STRESS PERIOD    7
  ---------------------------------------------------------------------------

          1      2      3      4      5      6      7      8      9     10
         11     12     13     14     15     16     17     18     19     20
         21     22     23     24     25     26     27     28     29     30
 .........................................................................
   1  ****** ****** ****** ****** ****** ****** ****** ****** ****** ******
      ****** ****** ****** ****** ****** ****** ****** ****** ****** ******
      ****** ****** ****** ****** ****** ****** ****** ****** ****** ******
   2  ****** ****** ****** ****** ****** ****** ****** ****** ****** ******
      ****** ****** ****** ****** ****** ****** ****** ****** ****** ******
      ****** ****** ****** ****** ****** ****** ****** ****** ****** ******
   3  ****** ****** ****** ****** ****** ****** ****** ****** ****** ******
      ****** ****** ****** ****** ****** ****** ****** ****** ****** ******
      ****** ****** ****** ****** ****** ****** ****** ****** ****** ******
   4  ****** ****** ****** ****** ****** ****** ****** ****** ****** ******
      ****** ****** ****** ****** ****** ****** ****** ****** ****** ******
      ****** ****** ****** ****** ****** ****** ****** ****** ****** ******
   5  ****** ****** ****** ****** ****** ****** ****** ****** ****** ******
      ****** ****** ****** ****** ****** ****** ****** ****** ****** ******
      ****** ****** ****** ****** ****** ****** ****** ****** ****** ******
   6  ****** ****** ****** ****** ****** ****** ****** ****** ****** ******
      ****** ****** ****** ****** ****** ****** ****** ****** ****** ******
      ****** ****** ****** ****** ****** ****** ****** ****** ****** ******
   7  ****** ****** ****** ****** ****** ****** ****** ****** ****** ******
      ****** ****** ****** ****** ****** ****** ****** ****** ****** ******
      ****** ****** ****** ****** ****** ****** ****** ****** ****** ******
   8  ****** ****** ****** ****** ****** ****** ****** ****** ****** ******
      ****** ****** ****** ****** ****** ****** ****** ****** ****** ******
      ****** ****** ****** ****** ****** ****** ****** ****** ****** ******
   9  ****** ****** ****** ****** ****** ****** ****** ****** ****** ******
      ****** ****** ****** ****** ****** ****** ****** ****** ****** ******
      ****** ****** ****** ****** ****** ****** ****** ****** ****** ******
  10  ****** ****** ****** ****** ****** ****** ****** ****** ****** ******
      ****** ****** ****** ****** ****** ****** ****** ****** ****** ******
      ****** ****** ****** ****** ****** ****** ****** ****** ****** ******
  11  ****** ****** ****** ****** ****** ****** ****** ****** ****** ******
      ****** ****** ****** ****** ****** ****** ****** ****** ****** ******
      ****** ****** ****** ****** ****** ****** ****** ****** ****** ******
  12  ****** ****** ****** ****** ****** ****** ****** ****** ****** ******
      ****** ****** ****** ****** ****** ****** ****** ****** ****** ******
      ****** ****** ****** ****** ****** ****** ****** ****** ****** ******
  13  ****** ****** ****** ****** ****** ****** ****** ****** ****** ******
      ****** ****** ****** ****** ****** ****** ****** ****** ****** ******
      ****** ****** ****** ****** ****** ****** ****** ****** ****** ******
  14  ****** ****** ****** ****** ****** ****** ****** ****** ****** ******
      ****** ****** ****** ****** ****** ****** ****** ****** ****** ******
      ****** ****** ****** ****** ****** ****** ****** ****** ****** ******
  15  ****** ****** ****** ****** ****** ****** ****** ****** ****** ******
      ****** ****** ****** ****** ****** ****** ****** ****** ****** ******
      ****** ****** ****** ****** ****** ****** ****** ****** ****** ******
  16  ****** ****** ****** ****** ****** ****** ****** ****** ****** ******
      ****** ****** ****** ****** ****** ****** ****** ****** ****** ******
      ****** ****** ****** ****** ****** ****** ****** ****** ****** ******
  17  ****** ****** ****** ****** ****** ****** ****** ****** ****** ******
      ****** ****** ****** ****** ****** ****** ****** ****** ****** ******
      ****** ****** ****** ****** ****** ****** ****** ****** ****** ******
  18  ****** ****** ****** ****** ****** ****** ****** ****** ****** ******
      ****** ****** ****** ****** ****** ****** ****** ****** ****** ******
      ****** ****** ****** ****** ****** ****** ****** ****** ****** ******
  19  ****** ****** ****** ****** ****** ****** ****** ****** ****** ******
      ****** ****** ****** ****** ****** ****** ****** ****** ****** ******
      ****** ****** ****** ****** ****** ****** ****** ****** ****** ******
  20  ****** ****** ****** ****** ****** ****** ****** ****** ****** ******
      ****** ****** ****** ****** ****** ****** ****** ****** ****** ******
      ****** ****** ****** ****** ****** ****** ****** ****** ****** ******
  21  ****** ****** ****** ****** ****** ****** ****** ****** ****** ******
      ****** ****** ****** ****** ****** ****** ****** ****** ****** ******
      ****** ****** ****** ****** ****** ****** ****** ****** ****** ******
  22  ****** ****** ****** ****** ****** ****** ****** ****** ****** ******
      ****** ****** ****** ****** ****** ****** ****** ****** ****** ******
      ****** ****** ****** ****** ****** ****** ****** ****** ****** ******
  23  ****** ****** ****** ****** ****** ****** ****** ****** ****** ******
      ****** ****** ****** ****** ****** ****** ****** ****** ****** ******
      ****** ****** ****** ****** ****** ****** ****** ****** ****** ******
  24  ****** ****** ****** ****** ****** ****** ****** ****** ****** ******
      ****** ****** ****** ****** ****** ****** ****** ****** ****** ******
      ****** ****** ****** ****** ****** ****** ****** ****** ****** ******
  25  ****** ****** ****** ****** ****** ****** ****** ****** ****** ******
      ****** ****** ****** ****** ****** ****** ****** ****** ****** ******
      ****** ****** ****** ****** ****** ****** ****** ****** ****** ******

 HEAD WILL BE SAVED ON UNIT   51 AT END OF TIME STEP    1, STRESS PERIOD    7
1
  VOLUMETRIC BUDGET FOR ENTIRE MODEL AT END OF TIME STEP    1, STRESS PERIOD   7
  ------------------------------------------------------------------------------

     CUMULATIVE VOLUMES      L**3       RATES FOR THIS TIME STEP      L**3/T
     ------------------                 ------------------------

           IN:                                      IN:
           ---                                      ---
             STORAGE =    33497801.1751               STORAGE =       22373.0919
       CONSTANT HEAD =    16745130.2192         CONSTANT HEAD =       34285.8504
               WELLS =           0.0000                 WELLS =           0.0000
            RECHARGE =    15097200.0000              RECHARGE =           0.0000
      STREAM LEAKAGE =    10559092.6978        STREAM LEAKAGE =       23067.7414

            TOTAL IN =    75899224.0921              TOTAL IN =       79726.6837

          OUT:                                     OUT:
          ----                                     ----
             STORAGE =      796639.4416               STORAGE =           0.0000
       CONSTANT HEAD =           0.0000         CONSTANT HEAD =           0.0000
               WELLS =    32273522.8680                 WELLS =       50506.2956
            RECHARGE =           0.0000              RECHARGE =           0.0000
      STREAM LEAKAGE =    42829064.3369        STREAM LEAKAGE =       29220.3937

           TOTAL OUT =    75899226.6465             TOTAL OUT =       79726.6893

            IN - OUT =          -2.5544              IN - OUT =      -5.5402E-03

 PERCENT DISCREPANCY =          -0.00     PERCENT DISCREPANCY =          -0.00






         TIME SUMMARY AT END OF TIME STEP    1 IN STRESS PERIOD    7
                    SECONDS     MINUTES      HOURS       DAYS        YEARS
                    -----------------------------------------------------------
   TIME STEP LENGTH 7.86240E+06 1.31040E+05  2184.0      91.000     0.24914    
 STRESS PERIOD TIME 7.86240E+06 1.31040E+05  2184.0      91.000     0.24914    
         TOTAL TIME 5.52096E+07 9.20160E+05  15336.      639.00      1.7495    
1
1
                            STRESS PERIOD NO.    8, LENGTH =   91.00000    
                            -----------------------------------------------

                              NUMBER OF TIME STEPS =     1

                               MULTIPLIER FOR DELT =     1.500

                            INITIAL TIME STEP SIZE =   91.00000    

 WELL NO.  LAYER   ROW   COL   STRESS RATE         
 --------------------------------------------------
      1      1     20     29      -8734.    
      2      1     15     15     -0.1244E+05
      3      1     17     29     -0.1509E+05
      4      1      6     23     -0.1424E+05

      4 WELLS

                 RECHARGE =  1.000000E-03

 REUSING STREAM SEGMENT DATA FROM LAST STRESS PERIOD
 
 SOLVING FOR HEAD 


     6 CALLS TO PCG ROUTINE FOR TIME STEP   1 IN STRESS PERIOD    8
    22 TOTAL ITERATIONS

 OUTPUT CONTROL FOR STRESS PERIOD    8   TIME STEP    1
    SAVE BUDGET
    SAVE HEAD FOR ALL LAYERS
    PRINT HEAD FOR ALL LAYERS
 UBDSV2 SAVING "STREAMFLOW OUT  " ON UNIT  50 AT TIME STEP  1, STRESS PERIOD   8



 STREAM LISTING     PERIOD      8   STEP        1

 LAYER ROW COL. STREAM  RCH.  FLOW INTO     FLOW TO   FLOW OUT OF   OVRLND.     DIRECT     STREAM       STREAM     STREAM     STREAM   STREAMBED  STREAMBED
                SEG.NO.  NO.  STRM. RCH.    AQUIFER    STRM. RCH.    RUNOFF     PRECIP       ET          HEAD       DEPTH      WIDTH   CONDCTNC.   GRADIENT

   1   13    1     1     1    1.0000E+05 -1.8426E+03   1.0184E+05  0.000E+00  0.000E+00  0.000E+00  4.84068E+01  1.455E-01  2.000E+01  2.000E+04 -9.213E-02
   1   13    2     1     2    1.0184E+05 -2.8125E+03   1.0466E+05  0.000E+00  0.000E+00  0.000E+00  4.79315E+01  1.475E-01  2.000E+01  2.000E+04 -1.406E-01
   1   14    3     1     3    1.0466E+05 -4.7313E+02   1.0513E+05  0.000E+00  0.000E+00  0.000E+00  4.74557E+01  1.489E-01  2.000E+01  2.000E+04 -2.366E-02
   1   15    4     1     4    1.0513E+05 -4.4357E+02   1.0557E+05  0.000E+00  0.000E+00  0.000E+00  4.69788E+01  1.492E-01  2.000E+01  2.000E+04 -2.218E-02
   1   16    5     1     5    1.0557E+05 -1.6112E+03   1.0718E+05  0.000E+00  0.000E+00  0.000E+00  4.65024E+01  1.501E-01  2.000E+01  2.000E+04 -8.056E-02
   1   16    6     1     6    1.0718E+05 -1.0227E+03   1.0821E+05  0.000E+00  0.000E+00  0.000E+00  4.60262E+01  1.512E-01  2.000E+01  2.000E+04 -5.113E-02
   1   16    7     1     7    1.0821E+05 -9.9799E+02   1.0920E+05  0.000E+00  0.000E+00  0.000E+00  4.55498E+01  1.521E-01  2.000E+01  2.000E+04 -4.990E-02
   1   16    8     1     8    1.0920E+05 -9.8103E+02   1.1018E+05  0.000E+00  0.000E+00  0.000E+00  4.50734E+01  1.529E-01  2.000E+01  2.000E+04 -4.905E-02
   1   16    9     1     9    1.1018E+05 -9.5131E+02   1.1114E+05  0.000E+00  0.000E+00  0.000E+00  4.45969E+01  1.537E-01  2.000E+01  2.000E+04 -4.757E-02
   1   16   10     1    10    1.1114E+05 -9.0121E+02   1.1204E+05  0.000E+00  0.000E+00  0.000E+00  4.41204E+01  1.545E-01  2.000E+01  2.000E+04 -4.506E-02
   1   16   11     1    11    1.1204E+05 -8.2035E+02   1.1286E+05  0.000E+00  0.000E+00  0.000E+00  4.36438E+01  1.552E-01  2.000E+01  2.000E+04 -4.102E-02
   1   16   12     1    12    1.1286E+05 -8.5096E+02   1.1371E+05  0.000E+00  0.000E+00  0.000E+00  4.31673E+01  1.559E-01  2.000E+01  2.000E+04 -4.255E-02
   1   15   13     1    13    1.1371E+05  5.7246E+02   1.1314E+05  0.000E+00  0.000E+00  0.000E+00  4.26901E+01  1.560E-01  2.000E+01  2.000E+04  2.862E-02
   1   14   14     1    14    1.1314E+05  1.3881E+03   1.1175E+05  0.000E+00  0.000E+00  0.000E+00  4.22120E+01  1.552E-01  2.000E+01  2.000E+04  6.940E-02
   1   13   15     1    15    1.1175E+05  1.1509E+01   1.1174E+05  0.000E+00  0.000E+00  0.000E+00  4.17342E+01  1.546E-01  2.000E+01  2.000E+04  5.755E-04
   1   12   16     1    16    1.1174E+05 -1.9752E+03   1.1371E+05  0.000E+00  0.000E+00  0.000E+00  4.12577E+01  1.554E-01  2.000E+01  2.000E+04 -9.876E-02
   1   12   17     1    17    1.1371E+05 -1.0792E+03   1.1479E+05  0.000E+00  0.000E+00  0.000E+00  4.07817E+01  1.567E-01  2.000E+01  2.000E+04 -5.396E-02
   1   12   18     1    18    1.1479E+05 -1.0324E+03   1.1582E+05  0.000E+00  0.000E+00  0.000E+00  4.03053E+01  1.576E-01  2.000E+01  2.000E+04 -5.162E-02
   1   12   19     1    19    1.1582E+05 -1.3273E+03   1.1715E+05  0.000E+00  0.000E+00  0.000E+00  3.98290E+01  1.585E-01  2.000E+01  2.000E+04 -6.637E-02
   1   13   20     1    20    1.1715E+05 -9.0004E+02   1.1805E+05  0.000E+00  0.000E+00  0.000E+00  3.93526E+01  1.594E-01  2.000E+01  2.000E+04 -4.500E-02
   1   14   21     1    21    1.1805E+05 -9.0594E+02   1.1896E+05  0.000E+00  0.000E+00  0.000E+00  3.88761E+01  1.602E-01  2.000E+01  2.000E+04 -4.530E-02
   1   14   22     1    22    1.1896E+05  5.0220E+03   1.1393E+05  0.000E+00  0.000E+00  0.000E+00  3.83971E+01  1.585E-01  2.000E+01  2.000E+04  2.511E-01
   1    9   30     2     1    5.0000E+04  9.3861E+01   4.9906E+04  0.000E+00  0.000E+00  0.000E+00  4.02408E+01  1.158E-01  2.000E+01  2.000E+04  4.693E-03
   1    9   29     2     2    4.9906E+04 -1.5764E+02   5.0064E+04  0.000E+00  0.000E+00  0.000E+00  3.99908E+01  1.158E-01  2.000E+01  2.000E+04 -7.882E-03
   1    9   28     2     3    5.0064E+04 -2.8033E+02   5.0344E+04  0.000E+00  0.000E+00  0.000E+00  3.97411E+01  1.161E-01  2.000E+01  2.000E+04 -1.402E-02
   1    9   27     2     4    5.0344E+04 -5.9907E+02   5.0943E+04  0.000E+00  0.000E+00  0.000E+00  3.94918E+01  1.168E-01  2.000E+01  2.000E+04 -2.995E-02
   1   10   26     2     5    5.0943E+04 -8.2524E+01   5.1026E+04  0.000E+00  0.000E+00  0.000E+00  3.92422E+01  1.172E-01  2.000E+01  2.000E+04 -4.126E-03
   1   11   25     2     6    5.1026E+04 -1.8842E+02   5.1214E+04  0.000E+00  0.000E+00  0.000E+00  3.89924E+01  1.174E-01  2.000E+01  2.000E+04 -9.421E-03
   1   12   24     2     7    5.1214E+04 -5.6694E+02   5.1781E+04  0.000E+00  0.000E+00  0.000E+00  3.87429E+01  1.179E-01  2.000E+01  2.000E+04 -2.835E-02
   1   13   23     2     8    5.1781E+04 -1.4127E+02   5.1922E+04  0.000E+00  0.000E+00  0.000E+00  3.84934E+01  1.184E-01  2.000E+01  2.000E+04 -7.063E-03
   1   14   22     2     9    5.1922E+04  1.9234E+03   4.9999E+04  0.000E+00  0.000E+00  0.000E+00  3.82422E+01  1.172E-01  2.000E+01  2.000E+04  9.617E-02
   1   14   22     3     1    1.6393E+05 -8.5298E+03   1.7246E+05  0.000E+00  0.000E+00  0.000E+00  3.77195E+01  1.640E-01  2.000E+01  2.000E+04 -4.265E-01
   1   15   23     3     2    1.7246E+05 -4.4732E+02   1.7291E+05  0.000E+00  0.000E+00  0.000E+00  3.68333E+01  1.666E-01  2.000E+01  2.000E+04 -2.237E-02
   1   15   24     3     3    1.7291E+05 -2.3930E+02   1.7315E+05  0.000E+00  0.000E+00  0.000E+00  3.59446E+01  1.668E-01  2.000E+01  2.000E+04 -1.197E-02
   1   15   25     3     4    1.7315E+05 -2.2731E+02   1.7338E+05  0.000E+00  0.000E+00  0.000E+00  3.50558E+01  1.669E-01  2.000E+01  2.000E+04 -1.137E-02
   1   15   26     3     5    1.7338E+05 -2.0611E+02   1.7358E+05  0.000E+00  0.000E+00  0.000E+00  3.41671E+01  1.671E-01  2.000E+01  2.000E+04 -1.031E-02
   1   16   27     3     6    1.7358E+05  2.4047E+01   1.7356E+05  0.000E+00  0.000E+00  0.000E+00  3.32782E+01  1.671E-01  2.000E+01  2.000E+04  1.202E-03
   1   17   28     3     7    1.7356E+05  5.5198E+03   1.6804E+05  0.000E+00  0.000E+00  0.000E+00  3.23877E+01  1.655E-01  2.000E+01  2.000E+04  2.760E-01
   1   18   29     3     8    1.6804E+05  5.4143E+03   1.6263E+05  0.000E+00  0.000E+00  0.000E+00  3.14956E+01  1.623E-01  2.000E+01  2.000E+04  2.707E-01
   1   18   30     3     9    1.6263E+05  1.6345E+03   1.6099E+05  0.000E+00  0.000E+00  0.000E+00  3.06047E+01  1.602E-01  2.000E+01  2.000E+04  8.173E-02



1
              HEAD IN LAYER   1 AT END OF TIME STEP   1 IN STRESS PERIOD    8
  ---------------------------------------------------------------------------

          1      2      3      4      5      6      7      8      9     10
         11     12     13     14     15     16     17     18     19     20
         21     22     23     24     25     26     27     28     29     30
 .........................................................................
   1  ****** ****** ****** ****** ****** ****** ****** ****** ****** ******
      ****** ****** ****** ****** ****** ****** ****** ****** ****** ******
      ****** ****** ****** ****** ****** ****** ****** ****** ****** ******
   2  ****** ****** ****** ****** ****** ****** ****** ****** ****** ******
      ****** ****** ****** ****** ****** ****** ****** ****** ****** ******
      ****** ****** ****** ****** ****** ****** ****** ****** ****** ******
   3  ****** ****** ****** ****** ****** ****** ****** ****** ****** ******
      ****** ****** ****** ****** ****** ****** ****** ****** ****** ******
      ****** ****** ****** ****** ****** ****** ****** ****** ****** ******
   4  ****** ****** ****** ****** ****** ****** ****** ****** ****** ******
      ****** ****** ****** ****** ****** ****** ****** ****** ****** ******
      ****** ****** ****** ****** ****** ****** ****** ****** ****** ******
   5  ****** ****** ****** ****** ****** ****** ****** ****** ****** ******
      ****** ****** ****** ****** ****** ****** ****** ****** ****** ******
      ****** ****** ****** ****** ****** ****** ****** ****** ****** ******
   6  ****** ****** ****** ****** ****** ****** ****** ****** ****** ******
      ****** ****** ****** ****** ****** ****** ****** ****** ****** ******
      ****** ****** ****** ****** ****** ****** ****** ****** ****** ******
   7  ****** ****** ****** ****** ****** ****** ****** ****** ****** ******
      ****** ****** ****** ****** ****** ****** ****** ****** ****** ******
      ****** ****** ****** ****** ****** ****** ****** ****** ****** ******
   8  ****** ****** ****** ****** ****** ****** ****** ****** ****** ******
      ****** ****** ****** ****** ****** ****** ****** ****** ****** ******
      ****** ****** ****** ****** ****** ****** ****** ****** ****** ******
   9  ****** ****** ****** ****** ****** ****** ****** ****** ****** ******
      ****** ****** ****** ****** ****** ****** ****** ****** ****** ******
      ****** ****** ****** ****** ****** ****** ****** ****** ****** ******
  10  ****** ****** ****** ****** ****** ****** ****** ****** ****** ******
      ****** ****** ****** ****** ****** ****** ****** ****** ****** ******
      ****** ****** ****** ****** ****** ****** ****** ****** ****** ******
  11  ****** ****** ****** ****** ****** ****** ****** ****** ****** ******
      ****** ****** ****** ****** ****** ****** ****** ****** ****** ******
      ****** ****** ****** ****** ****** ****** ****** ****** ****** ******
  12  ****** ****** ****** ****** ****** ****** ****** ****** ****** ******
      ****** ****** ****** ****** ****** ****** ****** ****** ****** ******
      ****** ****** ****** ****** ****** ****** ****** ****** ****** ******
  13  ****** ****** ****** ****** ****** ****** ****** ****** ****** ******
      ****** ****** ****** ****** ****** ****** ****** ****** ****** ******
      ****** ****** ****** ****** ****** ****** ****** ****** ****** ******
  14  ****** ****** ****** ****** ****** ****** ****** ****** ****** ******
      ****** ****** ****** ****** ****** ****** ****** ****** ****** ******
      ****** ****** ****** ****** ****** ****** ****** ****** ****** ******
  15  ****** ****** ****** ****** ****** ****** ****** ****** ****** ******
      ****** ****** ****** ****** ****** ****** ****** ****** ****** ******
      ****** ****** ****** ****** ****** ****** ****** ****** ****** ******
  16  ****** ****** ****** ****** ****** ****** ****** ****** ****** ******
      ****** ****** ****** ****** ****** ****** ****** ****** ****** ******
      ****** ****** ****** ****** ****** ****** ****** ****** ****** ******
  17  ****** ****** ****** ****** ****** ****** ****** ****** ****** ******
      ****** ****** ****** ****** ****** ****** ****** ****** ****** ******
      ****** ****** ****** ****** ****** ****** ****** ****** ****** ******
  18  ****** ****** ****** ****** ****** ****** ****** ****** ****** ******
      ****** ****** ****** ****** ****** ****** ****** ****** ****** ******
      ****** ****** ****** ****** ****** ****** ****** ****** ****** ******
  19  ****** ****** ****** ****** ****** ****** ****** ****** ****** ******
      ****** ****** ****** ****** ****** ****** ****** ****** ****** ******
      ****** ****** ****** ****** ****** ****** ****** ****** ****** ******
  20  ****** ****** ****** ****** ****** ****** ****** ****** ****** ******
      ****** ****** ****** ****** ****** ****** ****** ****** ****** ******
      ****** ****** ****** ****** ****** ****** ****** ****** ****** ******
  21  ****** ****** ****** ****** ****** ****** ****** ****** ****** ******
      ****** ****** ****** ****** ****** ****** ****** ****** ****** ******
      ****** ****** ****** ****** ****** ****** ****** ****** ****** ******
  22  ****** ****** ****** ****** ****** ****** ****** ****** ****** ******
      ****** ****** ****** ****** ****** ****** ****** ****** ****** ******
      ****** ****** ****** ****** ****** ****** ****** ****** ****** ******
  23  ****** ****** ****** ****** ****** ****** ****** ****** ****** ******
      ****** ****** ****** ****** ****** ****** ****** ****** ****** ******
      ****** ****** ****** ****** ****** ****** ****** ****** ****** ******
  24  ****** ****** ****** ****** ****** ****** ****** ****** ****** ******
      ****** ****** ****** ****** ****** ****** ****** ****** ****** ******
      ****** ****** ****** ****** ****** ****** ****** ****** ****** ******
  25  ****** ****** ****** ****** ****** ****** ****** ****** ****** ******
      ****** ****** ****** ****** ****** ****** ****** ****** ****** ******
      ****** ****** ****** ****** ****** ****** ****** ****** ****** ******

 HEAD WILL BE SAVED ON UNIT   51 AT END OF TIME STEP    1, STRESS PERIOD    8
1
  VOLUMETRIC BUDGET FOR ENTIRE MODEL AT END OF TIME STEP    1, STRESS PERIOD   8
  ------------------------------------------------------------------------------

     CUMULATIVE VOLUMES      L**3       RATES FOR THIS TIME STEP      L**3/T
     ------------------                 ------------------------

           IN:                                      IN:
           ---                                      ---
             STORAGE =    33628584.7999               STORAGE =        1437.1827
       CONSTANT HEAD =    19838595.0679         CONSTANT HEAD =       33994.1192
               WELLS =           0.0000                 WELLS =           0.0000
            RECHARGE =    17608800.0000              RECHARGE =       27600.0000
      STREAM LEAKAGE =    12525053.4781        STREAM LEAKAGE =       21603.9646

            TOTAL IN =    83601033.3459              TOTAL IN =       84635.2665

          OUT:                                     OUT:
          ----                                     ----
             STORAGE =      936262.1472               STORAGE =        1534.3154
       CONSTANT HEAD =           0.0000         CONSTANT HEAD =           0.0000
               WELLS =    36869595.7647                 WELLS =       50506.2956
            RECHARGE =           0.0000              RECHARGE =           0.0000
      STREAM LEAKAGE =    45795177.2200        STREAM LEAKAGE =       32594.6471

           TOTAL OUT =    83601035.1319             TOTAL OUT =       84635.2581

            IN - OUT =          -1.7860              IN - OUT =       8.4438E-03

 PERCENT DISCREPANCY =          -0.00     PERCENT DISCREPANCY =           0.00






         TIME SUMMARY AT END OF TIME STEP    1 IN STRESS PERIOD    8
                    SECONDS     MINUTES      HOURS       DAYS        YEARS
                    -----------------------------------------------------------
   TIME STEP LENGTH 7.86240E+06 1.31040E+05  2184.0      91.000     0.24914    
 STRESS PERIOD TIME 7.86240E+06 1.31040E+05  2184.0      91.000     0.24914    
         TOTAL TIME 6.30720E+07 1.05120E+06  17520.      730.00      1.9986    
1
1
                            STRESS PERIOD NO.    9, LENGTH =   92.00000    
                            -----------------------------------------------

                              NUMBER OF TIME STEPS =     1

                               MULTIPLIER FOR DELT =     1.500

                            INITIAL TIME STEP SIZE =   92.00000    

 WELL NO.  LAYER   ROW   COL   STRESS RATE         
 --------------------------------------------------
      1      1     20     29      -8734.    
      2      1     15     15     -0.1244E+05
      3      1     17     29     -0.1509E+05
      4      1      6     23     -0.1424E+05

      4 WELLS

                 RECHARGE =  5.000000E-04

 REUSING STREAM SEGMENT DATA FROM LAST STRESS PERIOD
 
 SOLVING FOR HEAD 


     6 CALLS TO PCG ROUTINE FOR TIME STEP   1 IN STRESS PERIOD    9
    23 TOTAL ITERATIONS

 OUTPUT CONTROL FOR STRESS PERIOD    9   TIME STEP    1
    SAVE BUDGET
    SAVE HEAD FOR ALL LAYERS
    PRINT HEAD FOR ALL LAYERS
 UBDSV2 SAVING "STREAMFLOW OUT  " ON UNIT  50 AT TIME STEP  1, STRESS PERIOD   9



 STREAM LISTING     PERIOD      9   STEP        1

 LAYER ROW COL. STREAM  RCH.  FLOW INTO     FLOW TO   FLOW OUT OF   OVRLND.     DIRECT     STREAM       STREAM     STREAM     STREAM   STREAMBED  STREAMBED
                SEG.NO.  NO.  STRM. RCH.    AQUIFER    STRM. RCH.    RUNOFF     PRECIP       ET          HEAD       DEPTH      WIDTH   CONDCTNC.   GRADIENT

   1   13    1     1     1    1.0000E+05 -1.6294E+03   1.0163E+05  0.000E+00  0.000E+00  0.000E+00  4.84067E+01  1.454E-01  2.000E+01  2.000E+04 -8.147E-02
   1   13    2     1     2    1.0163E+05 -2.5712E+03   1.0420E+05  0.000E+00  0.000E+00  0.000E+00  4.79313E+01  1.472E-01  2.000E+01  2.000E+04 -1.286E-01
   1   14    3     1     3    1.0420E+05 -4.0255E+02   1.0460E+05  0.000E+00  0.000E+00  0.000E+00  4.74553E+01  1.484E-01  2.000E+01  2.000E+04 -2.013E-02
   1   15    4     1     4    1.0460E+05 -3.7192E+02   1.0498E+05  0.000E+00  0.000E+00  0.000E+00  4.69783E+01  1.488E-01  2.000E+01  2.000E+04 -1.860E-02
   1   16    5     1     5    1.0498E+05 -1.4189E+03   1.0639E+05  0.000E+00  0.000E+00  0.000E+00  4.65018E+01  1.495E-01  2.000E+01  2.000E+04 -7.094E-02
   1   16    6     1     6    1.0639E+05 -9.0287E+02   1.0730E+05  0.000E+00  0.000E+00  0.000E+00  4.60255E+01  1.505E-01  2.000E+01  2.000E+04 -4.514E-02
   1   16    7     1     7    1.0730E+05 -8.8187E+02   1.0818E+05  0.000E+00  0.000E+00  0.000E+00  4.55490E+01  1.513E-01  2.000E+01  2.000E+04 -4.409E-02
   1   16    8     1     8    1.0818E+05 -8.6643E+02   1.0905E+05  0.000E+00  0.000E+00  0.000E+00  4.50725E+01  1.520E-01  2.000E+01  2.000E+04 -4.332E-02
   1   16    9     1     9    1.0905E+05 -8.3827E+02   1.0988E+05  0.000E+00  0.000E+00  0.000E+00  4.45959E+01  1.527E-01  2.000E+01  2.000E+04 -4.191E-02
   1   16   10     1    10    1.0988E+05 -7.9011E+02   1.1067E+05  0.000E+00  0.000E+00  0.000E+00  4.41193E+01  1.534E-01  2.000E+01  2.000E+04 -3.951E-02
   1   16   11     1    11    1.1067E+05 -7.1017E+02   1.1138E+05  0.000E+00  0.000E+00  0.000E+00  4.36427E+01  1.540E-01  2.000E+01  2.000E+04 -3.551E-02
   1   16   12     1    12    1.1138E+05 -6.6232E+02   1.1205E+05  0.000E+00  0.000E+00  0.000E+00  4.31660E+01  1.546E-01  2.000E+01  2.000E+04 -3.312E-02
   1   15   13     1    13    1.1205E+05  7.8219E+02   1.1126E+05  0.000E+00  0.000E+00  0.000E+00  4.26886E+01  1.545E-01  2.000E+01  2.000E+04  3.911E-02
   1   14   14     1    14    1.1126E+05  1.6112E+03   1.0965E+05  0.000E+00  0.000E+00  0.000E+00  4.22104E+01  1.535E-01  2.000E+01  2.000E+04  8.056E-02
   1   13   15     1    15    1.0965E+05  2.4037E+02   1.0941E+05  0.000E+00  0.000E+00  0.000E+00  4.17323E+01  1.528E-01  2.000E+01  2.000E+04  1.202E-02
   1   12   16     1    16    1.0941E+05 -1.7381E+03   1.1115E+05  0.000E+00  0.000E+00  0.000E+00  4.12557E+01  1.534E-01  2.000E+01  2.000E+04 -8.691E-02
   1   12   17     1    17    1.1115E+05 -9.1623E+02   1.1207E+05  0.000E+00  0.000E+00  0.000E+00  4.07795E+01  1.545E-01  2.000E+01  2.000E+04 -4.581E-02
   1   12   18     1    18    1.1207E+05 -8.7677E+02   1.1294E+05  0.000E+00  0.000E+00  0.000E+00  4.03030E+01  1.552E-01  2.000E+01  2.000E+04 -4.384E-02
   1   12   19     1    19    1.1294E+05 -1.1399E+03   1.1408E+05  0.000E+00  0.000E+00  0.000E+00  3.98265E+01  1.561E-01  2.000E+01  2.000E+04 -5.700E-02
   1   13   20     1    20    1.1408E+05 -7.2601E+02   1.1481E+05  0.000E+00  0.000E+00  0.000E+00  3.93500E+01  1.569E-01  2.000E+01  2.000E+04 -3.630E-02
   1   14   21     1    21    1.1481E+05 -7.3371E+02   1.1554E+05  0.000E+00  0.000E+00  0.000E+00  3.88734E+01  1.574E-01  2.000E+01  2.000E+04 -3.669E-02
   1   14   22     1    22    1.1554E+05  5.0605E+03   1.1048E+05  0.000E+00  0.000E+00  0.000E+00  3.83943E+01  1.557E-01  2.000E+01  2.000E+04  2.530E-01
   1    9   30     2     1    5.0000E+04  2.1768E+02   4.9782E+04  0.000E+00  0.000E+00  0.000E+00  4.02407E+01  1.157E-01  2.000E+01  2.000E+04  1.088E-02
   1    9   29     2     2    4.9782E+04 -3.3590E+01   4.9816E+04  0.000E+00  0.000E+00  0.000E+00  3.99906E+01  1.156E-01  2.000E+01  2.000E+04 -1.679E-03
   1    9   28     2     3    4.9816E+04 -1.5433E+02   4.9970E+04  0.000E+00  0.000E+00  0.000E+00  3.97407E+01  1.157E-01  2.000E+01  2.000E+04 -7.717E-03
   1    9   27     2     4    4.9970E+04 -4.2160E+02   5.0392E+04  0.000E+00  0.000E+00  0.000E+00  3.94911E+01  1.161E-01  2.000E+01  2.000E+04 -2.108E-02
   1   10   26     2     5    5.0392E+04  9.1763E+01   5.0300E+04  0.000E+00  0.000E+00  0.000E+00  3.92413E+01  1.163E-01  2.000E+01  2.000E+04  4.588E-03
   1   11   25     2     6    5.0300E+04 -2.1748E+01   5.0322E+04  0.000E+00  0.000E+00  0.000E+00  3.89913E+01  1.163E-01  2.000E+01  2.000E+04 -1.087E-03
   1   12   24     2     7    5.0322E+04 -4.1374E+02   5.0736E+04  0.000E+00  0.000E+00  0.000E+00  3.87416E+01  1.166E-01  2.000E+01  2.000E+04 -2.069E-02
   1   13   23     2     8    5.0736E+04 -9.4105E+01   5.0830E+04  0.000E+00  0.000E+00  0.000E+00  3.84920E+01  1.170E-01  2.000E+01  2.000E+04 -4.705E-03
   1   14   22     2     9    5.0830E+04  1.9872E+03   4.8842E+04  0.000E+00  0.000E+00  0.000E+00  3.82406E+01  1.156E-01  2.000E+01  2.000E+04  9.936E-02
   1   14   22     3     1    1.5932E+05 -8.4893E+03   1.6781E+05  0.000E+00  0.000E+00  0.000E+00  3.77168E+01  1.613E-01  2.000E+01  2.000E+04 -4.245E-01
   1   15   23     3     2    1.6781E+05 -3.9460E+02   1.6821E+05  0.000E+00  0.000E+00  0.000E+00  3.68305E+01  1.639E-01  2.000E+01  2.000E+04 -1.973E-02
   1   15   24     3     3    1.6821E+05 -1.9619E+02   1.6841E+05  0.000E+00  0.000E+00  0.000E+00  3.59418E+01  1.640E-01  2.000E+01  2.000E+04 -9.809E-03
   1   15   25     3     4    1.6841E+05 -1.8395E+02   1.6859E+05  0.000E+00  0.000E+00  0.000E+00  3.50530E+01  1.642E-01  2.000E+01  2.000E+04 -9.197E-03
   1   15   26     3     5    1.6859E+05 -1.5846E+02   1.6875E+05  0.000E+00  0.000E+00  0.000E+00  3.41643E+01  1.643E-01  2.000E+01  2.000E+04 -7.923E-03
   1   16   27     3     6    1.6875E+05  8.0173E+01   1.6867E+05  0.000E+00  0.000E+00  0.000E+00  3.32754E+01  1.643E-01  2.000E+01  2.000E+04  4.009E-03
   1   17   28     3     7    1.6867E+05  5.6738E+03   1.6299E+05  0.000E+00  0.000E+00  0.000E+00  3.23848E+01  1.626E-01  2.000E+01  2.000E+04  2.837E-01
   1   18   29     3     8    1.6299E+05  5.5912E+03   1.5740E+05  0.000E+00  0.000E+00  0.000E+00  3.14926E+01  1.593E-01  2.000E+01  2.000E+04  2.796E-01
   1   18   30     3     9    1.5740E+05  1.7673E+03   1.5563E+05  0.000E+00  0.000E+00  0.000E+00  3.06015E+01  1.571E-01  2.000E+01  2.000E+04  8.836E-02



1
              HEAD IN LAYER   1 AT END OF TIME STEP   1 IN STRESS PERIOD    9
  ---------------------------------------------------------------------------

          1      2      3      4      5      6      7      8      9     10
         11     12     13     14     15     16     17     18     19     20
         21     22     23     24     25     26     27     28     29     30
 .........................................................................
   1  ****** ****** ****** ****** ****** ****** ****** ****** ****** ******
      ****** ****** ****** ****** ****** ****** ****** ****** ****** ******
      ****** ****** ****** ****** ****** ****** ****** ****** ****** ******
   2  ****** ****** ****** ****** ****** ****** ****** ****** ****** ******
      ****** ****** ****** ****** ****** ****** ****** ****** ****** ******
      ****** ****** ****** ****** ****** ****** ****** ****** ****** ******
   3  ****** ****** ****** ****** ****** ****** ****** ****** ****** ******
      ****** ****** ****** ****** ****** ****** ****** ****** ****** ******
      ****** ****** ****** ****** ****** ****** ****** ****** ****** ******
   4  ****** ****** ****** ****** ****** ****** ****** ****** ****** ******
      ****** ****** ****** ****** ****** ****** ****** ****** ****** ******
      ****** ****** ****** ****** ****** ****** ****** ****** ****** ******
   5  ****** ****** ****** ****** ****** ****** ****** ****** ****** ******
      ****** ****** ****** ****** ****** ****** ****** ****** ****** ******
      ****** ****** ****** ****** ****** ****** ****** ****** ****** ******
   6  ****** ****** ****** ****** ****** ****** ****** ****** ****** ******
      ****** ****** ****** ****** ****** ****** ****** ****** ****** ******
      ****** ****** ****** ****** ****** ****** ****** ****** ****** ******
   7  ****** ****** ****** ****** ****** ****** ****** ****** ****** ******
      ****** ****** ****** ****** ****** ****** ****** ****** ****** ******
      ****** ****** ****** ****** ****** ****** ****** ****** ****** ******
   8  ****** ****** ****** ****** ****** ****** ****** ****** ****** ******
      ****** ****** ****** ****** ****** ****** ****** ****** ****** ******
      ****** ****** ****** ****** ****** ****** ****** ****** ****** ******
   9  ****** ****** ****** ****** ****** ****** ****** ****** ****** ******
      ****** ****** ****** ****** ****** ****** ****** ****** ****** ******
      ****** ****** ****** ****** ****** ****** ****** ****** ****** ******
  10  ****** ****** ****** ****** ****** ****** ****** ****** ****** ******
      ****** ****** ****** ****** ****** ****** ****** ****** ****** ******
      ****** ****** ****** ****** ****** ****** ****** ****** ****** ******
  11  ****** ****** ****** ****** ****** ****** ****** ****** ****** ******
      ****** ****** ****** ****** ****** ****** ****** ****** ****** ******
      ****** ****** ****** ****** ****** ****** ****** ****** ****** ******
  12  ****** ****** ****** ****** ****** ****** ****** ****** ****** ******
      ****** ****** ****** ****** ****** ****** ****** ****** ****** ******
      ****** ****** ****** ****** ****** ****** ****** ****** ****** ******
  13  ****** ****** ****** ****** ****** ****** ****** ****** ****** ******
      ****** ****** ****** ****** ****** ****** ****** ****** ****** ******
      ****** ****** ****** ****** ****** ****** ****** ****** ****** ******
  14  ****** ****** ****** ****** ****** ****** ****** ****** ****** ******
      ****** ****** ****** ****** ****** ****** ****** ****** ****** ******
      ****** ****** ****** ****** ****** ****** ****** ****** ****** ******
  15  ****** ****** ****** ****** ****** ****** ****** ****** ****** ******
      ****** ****** ****** ****** ****** ****** ****** ****** ****** ******
      ****** ****** ****** ****** ****** ****** ****** ****** ****** ******
  16  ****** ****** ****** ****** ****** ****** ****** ****** ****** ******
      ****** ****** ****** ****** ****** ****** ****** ****** ****** ******
      ****** ****** ****** ****** ****** ****** ****** ****** ****** ******
  17  ****** ****** ****** ****** ****** ****** ****** ****** ****** ******
      ****** ****** ****** ****** ****** ****** ****** ****** ****** ******
      ****** ****** ****** ****** ****** ****** ****** ****** ****** ******
  18  ****** ****** ****** ****** ****** ****** ****** ****** ****** ******
      ****** ****** ****** ****** ****** ****** ****** ****** ****** ******
      ****** ****** ****** ****** ****** ****** ****** ****** ****** ******
  19  ****** ****** ****** ****** ****** ****** ****** ****** ****** ******
      ****** ****** ****** ****** ****** ****** ****** ****** ****** ******
      ****** ****** ****** ****** ****** ****** ****** ****** ****** ******
  20  ****** ****** ****** ****** ****** ****** ****** ****** ****** ******
      ****** ****** ****** ****** ****** ****** ****** ****** ****** ******
      ****** ****** ****** ****** ****** ****** ****** ****** ****** ******
  21  ****** ****** ****** ****** ****** ****** ****** ****** ****** ******
      ****** ****** ****** ****** ****** ****** ****** ****** ****** ******
      ****** ****** ****** ****** ****** ****** ****** ****** ****** ******
  22  ****** ****** ****** ****** ****** ****** ****** ****** ****** ******
      ****** ****** ****** ****** ****** ****** ****** ****** ****** ******
      ****** ****** ****** ****** ****** ****** ****** ****** ****** ******
  23  ****** ****** ****** ****** ****** ****** ****** ****** ****** ******
      ****** ****** ****** ****** ****** ****** ****** ****** ****** ******
      ****** ****** ****** ****** ****** ****** ****** ****** ****** ******
  24  ****** ****** ****** ****** ****** ****** ****** ****** ****** ******
      ****** ****** ****** ****** ****** ****** ****** ****** ****** ******
      ****** ****** ****** ****** ****** ****** ****** ****** ****** ******
  25  ****** ****** ****** ****** ****** ****** ****** ****** ****** ******
      ****** ****** ****** ****** ****** ****** ****** ****** ****** ******
      ****** ****** ****** ****** ****** ****** ****** ****** ****** ******

 HEAD WILL BE SAVED ON UNIT   51 AT END OF TIME STEP    1, STRESS PERIOD    9
1
  VOLUMETRIC BUDGET FOR ENTIRE MODEL AT END OF TIME STEP    1, STRESS PERIOD   9
  ------------------------------------------------------------------------------

     CUMULATIVE VOLUMES      L**3       RATES FOR THIS TIME STEP      L**3/T
     ------------------                 ------------------------

           IN:                                      IN:
           ---                                      ---
             STORAGE =    34289230.0765               STORAGE =        7180.9269
       CONSTANT HEAD =    23073348.8235         CONSTANT HEAD =       35160.3669
               WELLS =           0.0000                 WELLS =           0.0000
            RECHARGE =    18878400.0000              RECHARGE =       13800.0000
      STREAM LEAKAGE =    14650556.5423        STREAM LEAKAGE =       23103.2942

            TOTAL IN =    90891535.4423              TOTAL IN =       79244.5880

          OUT:                                     OUT:
          ----                                     ----
             STORAGE =      936262.1472               STORAGE =           0.0000
       CONSTANT HEAD =           0.0000         CONSTANT HEAD =           0.0000
               WELLS =    41516174.9570                 WELLS =       50506.2956
            RECHARGE =           0.0000              RECHARGE =           0.0000
      STREAM LEAKAGE =    48439100.1947        STREAM LEAKAGE =       28738.2932

           TOTAL OUT =    90891537.2989             TOTAL OUT =       79244.5888

            IN - OUT =          -1.8566              IN - OUT =      -7.6713E-04

 PERCENT DISCREPANCY =          -0.00     PERCENT DISCREPANCY =          -0.00






         TIME SUMMARY AT END OF TIME STEP    1 IN STRESS PERIOD    9
                    SECONDS     MINUTES      HOURS       DAYS        YEARS
                    -----------------------------------------------------------
   TIME STEP LENGTH 7.94880E+06 1.32480E+05  2208.0      92.000     0.25188    
 STRESS PERIOD TIME 7.94880E+06 1.32480E+05  2208.0      92.000     0.25188    
         TOTAL TIME 7.10208E+07 1.18368E+06  19728.      822.00      2.2505    
1
1
                            STRESS PERIOD NO.   10, LENGTH =   91.00000    
                            -----------------------------------------------

                              NUMBER OF TIME STEPS =     1

                               MULTIPLIER FOR DELT =     1.500

                            INITIAL TIME STEP SIZE =   91.00000    

 WELL NO.  LAYER   ROW   COL   STRESS RATE         
 --------------------------------------------------
      1      1     20     29      -8734.    
      2      1     15     15     -0.1244E+05
      3      1     17     29     -0.1509E+05
      4      1      6     23     -0.1424E+05

      4 WELLS

                 RECHARGE =  2.000000E-03

 REUSING STREAM SEGMENT DATA FROM LAST STRESS PERIOD
 
 SOLVING FOR HEAD 


     7 CALLS TO PCG ROUTINE FOR TIME STEP   1 IN STRESS PERIOD   10
    26 TOTAL ITERATIONS

 OUTPUT CONTROL FOR STRESS PERIOD   10   TIME STEP    1
    SAVE BUDGET
    SAVE HEAD FOR ALL LAYERS
    PRINT HEAD FOR ALL LAYERS
 UBDSV2 SAVING "STREAMFLOW OUT  " ON UNIT  50 AT TIME STEP  1, STRESS PERIOD  10



 STREAM LISTING     PERIOD     10   STEP        1

 LAYER ROW COL. STREAM  RCH.  FLOW INTO     FLOW TO   FLOW OUT OF   OVRLND.     DIRECT     STREAM       STREAM     STREAM     STREAM   STREAMBED  STREAMBED
                SEG.NO.  NO.  STRM. RCH.    AQUIFER    STRM. RCH.    RUNOFF     PRECIP       ET          HEAD       DEPTH      WIDTH   CONDCTNC.   GRADIENT

   1   13    1     1     1    1.0000E+05 -2.0827E+03   1.0208E+05  0.000E+00  0.000E+00  0.000E+00  4.84069E+01  1.456E-01  2.000E+01  2.000E+04 -1.041E-01
   1   13    2     1     2    1.0208E+05 -3.0736E+03   1.0516E+05  0.000E+00  0.000E+00  0.000E+00  4.79319E+01  1.478E-01  2.000E+01  2.000E+04 -1.537E-01
   1   14    3     1     3    1.0516E+05 -5.8924E+02   1.0575E+05  0.000E+00  0.000E+00  0.000E+00  4.74562E+01  1.493E-01  2.000E+01  2.000E+04 -2.946E-02
   1   15    4     1     4    1.0575E+05 -5.7149E+02   1.0632E+05  0.000E+00  0.000E+00  0.000E+00  4.69794E+01  1.498E-01  2.000E+01  2.000E+04 -2.857E-02
   1   16    5     1     5    1.0632E+05 -2.0379E+03   1.0836E+05  0.000E+00  0.000E+00  0.000E+00  4.65032E+01  1.509E-01  2.000E+01  2.000E+04 -1.019E-01
   1   16    6     1     6    1.0836E+05 -1.2652E+03   1.0962E+05  0.000E+00  0.000E+00  0.000E+00  4.60273E+01  1.523E-01  2.000E+01  2.000E+04 -6.326E-02
   1   16    7     1     7    1.0962E+05 -1.2264E+03   1.1085E+05  0.000E+00  0.000E+00  0.000E+00  4.55511E+01  1.534E-01  2.000E+01  2.000E+04 -6.132E-02
   1   16    8     1     8    1.1085E+05 -1.2055E+03   1.1205E+05  0.000E+00  0.000E+00  0.000E+00  4.50748E+01  1.544E-01  2.000E+01  2.000E+04 -6.028E-02
   1   16    9     1     9    1.1205E+05 -1.1758E+03   1.1323E+05  0.000E+00  0.000E+00  0.000E+00  4.45985E+01  1.554E-01  2.000E+01  2.000E+04 -5.879E-02
   1   16   10     1    10    1.1323E+05 -1.1278E+03   1.1436E+05  0.000E+00  0.000E+00  0.000E+00  4.41222E+01  1.563E-01  2.000E+01  2.000E+04 -5.639E-02
   1   16   11     1    11    1.1436E+05 -1.0512E+03   1.1541E+05  0.000E+00  0.000E+00  0.000E+00  4.36458E+01  1.572E-01  2.000E+01  2.000E+04 -5.256E-02
   1   16   12     1    12    1.1541E+05 -1.2316E+03   1.1664E+05  0.000E+00  0.000E+00  0.000E+00  4.31695E+01  1.581E-01  2.000E+01  2.000E+04 -6.158E-02
   1   15   13     1    13    1.1664E+05  1.9568E+02   1.1644E+05  0.000E+00  0.000E+00  0.000E+00  4.26927E+01  1.586E-01  2.000E+01  2.000E+04  9.784E-03
   1   14   14     1    14    1.1644E+05  1.0174E+03   1.1543E+05  0.000E+00  0.000E+00  0.000E+00  4.22149E+01  1.581E-01  2.000E+01  2.000E+04  5.087E-02
   1   13   15     1    15    1.1543E+05 -3.4346E+02   1.1577E+05  0.000E+00  0.000E+00  0.000E+00  4.17373E+01  1.578E-01  2.000E+01  2.000E+04 -1.717E-02
   1   12   16     1    16    1.1577E+05 -2.3006E+03   1.1807E+05  0.000E+00  0.000E+00  0.000E+00  4.12611E+01  1.589E-01  2.000E+01  2.000E+04 -1.150E-01
   1   12   17     1    17    1.1807E+05 -1.3419E+03   1.1941E+05  0.000E+00  0.000E+00  0.000E+00  4.07854E+01  1.604E-01  2.000E+01  2.000E+04 -6.710E-02
   1   12   18     1    18    1.1941E+05 -1.2982E+03   1.2071E+05  0.000E+00  0.000E+00  0.000E+00  4.03092E+01  1.614E-01  2.000E+01  2.000E+04 -6.491E-02
   1   12   19     1    19    1.2071E+05 -1.6585E+03   1.2237E+05  0.000E+00  0.000E+00  0.000E+00  3.98331E+01  1.626E-01  2.000E+01  2.000E+04 -8.293E-02
   1   13   20     1    20    1.2237E+05 -1.2472E+03   1.2362E+05  0.000E+00  0.000E+00  0.000E+00  3.93570E+01  1.638E-01  2.000E+01  2.000E+04 -6.236E-02
   1   14   21     1    21    1.2362E+05 -1.2584E+03   1.2487E+05  0.000E+00  0.000E+00  0.000E+00  3.88807E+01  1.648E-01  2.000E+01  2.000E+04 -6.292E-02
   1   14   22     1    22    1.2487E+05  4.9333E+03   1.1994E+05  0.000E+00  0.000E+00  0.000E+00  3.84019E+01  1.633E-01  2.000E+01  2.000E+04  2.467E-01
   1    9   30     2     1    5.0000E+04 -1.9640E+02   5.0196E+04  0.000E+00  0.000E+00  0.000E+00  4.02410E+01  1.160E-01  2.000E+01  2.000E+04 -9.820E-03
   1    9   29     2     2    5.0196E+04 -4.4537E+02   5.0642E+04  0.000E+00  0.000E+00  0.000E+00  3.99914E+01  1.164E-01  2.000E+01  2.000E+04 -2.227E-02
   1    9   28     2     3    5.0642E+04 -5.6530E+02   5.1207E+04  0.000E+00  0.000E+00  0.000E+00  3.97421E+01  1.171E-01  2.000E+01  2.000E+04 -2.826E-02
   1    9   27     2     4    5.1207E+04 -9.7427E+02   5.2181E+04  0.000E+00  0.000E+00  0.000E+00  3.94932E+01  1.182E-01  2.000E+01  2.000E+04 -4.871E-02
   1   10   26     2     5    5.2181E+04 -4.6101E+02   5.2642E+04  0.000E+00  0.000E+00  0.000E+00  3.92442E+01  1.192E-01  2.000E+01  2.000E+04 -2.305E-02
   1   11   25     2     6    5.2642E+04 -5.5005E+02   5.3192E+04  0.000E+00  0.000E+00  0.000E+00  3.89949E+01  1.199E-01  2.000E+01  2.000E+04 -2.750E-02
   1   12   24     2     7    5.3192E+04 -8.9188E+02   5.4084E+04  0.000E+00  0.000E+00  0.000E+00  3.87459E+01  1.209E-01  2.000E+01  2.000E+04 -4.459E-02
   1   13   23     2     8    5.4084E+04 -2.4278E+02   5.4327E+04  0.000E+00  0.000E+00  0.000E+00  3.84966E+01  1.216E-01  2.000E+01  2.000E+04 -1.214E-02
   1   14   22     2     9    5.4327E+04  1.8056E+03   5.2521E+04  0.000E+00  0.000E+00  0.000E+00  3.82456E+01  1.206E-01  2.000E+01  2.000E+04  9.028E-02
   1   14   22     3     1    1.7246E+05 -8.6156E+03   1.8108E+05  0.000E+00  0.000E+00  0.000E+00  3.77245E+01  1.689E-01  2.000E+01  2.000E+04 -4.308E-01
   1   15   23     3     2    1.8108E+05 -5.5704E+02   1.8163E+05  0.000E+00  0.000E+00  0.000E+00  3.68382E+01  1.716E-01  2.000E+01  2.000E+04 -2.785E-02
   1   15   24     3     3    1.8163E+05 -3.3330E+02   1.8197E+05  0.000E+00  0.000E+00  0.000E+00  3.59496E+01  1.718E-01  2.000E+01  2.000E+04 -1.667E-02
   1   15   25     3     4    1.8197E+05 -3.2447E+02   1.8229E+05  0.000E+00  0.000E+00  0.000E+00  3.50609E+01  1.720E-01  2.000E+01  2.000E+04 -1.622E-02
   1   15   26     3     5    1.8229E+05 -3.2066E+02   1.8261E+05  0.000E+00  0.000E+00  0.000E+00  3.41722E+01  1.722E-01  2.000E+01  2.000E+04 -1.603E-02
   1   16   27     3     6    1.8261E+05 -1.0562E+02   1.8272E+05  0.000E+00  0.000E+00  0.000E+00  3.32834E+01  1.723E-01  2.000E+01  2.000E+04 -5.281E-03
   1   17   28     3     7    1.8272E+05  5.1533E+03   1.7757E+05  0.000E+00  0.000E+00  0.000E+00  3.23931E+01  1.709E-01  2.000E+01  2.000E+04  2.577E-01
   1   18   29     3     8    1.7757E+05  5.0404E+03   1.7253E+05  0.000E+00  0.000E+00  0.000E+00  3.15013E+01  1.680E-01  2.000E+01  2.000E+04  2.520E-01
   1   18   30     3     9    1.7253E+05  1.3424E+03   1.7118E+05  0.000E+00  0.000E+00  0.000E+00  3.06106E+01  1.661E-01  2.000E+01  2.000E+04  6.712E-02



1
              HEAD IN LAYER   1 AT END OF TIME STEP   1 IN STRESS PERIOD   10
  ---------------------------------------------------------------------------

          1      2      3      4      5      6      7      8      9     10
         11     12     13     14     15     16     17     18     19     20
         21     22     23     24     25     26     27     28     29     30
 .........................................................................
   1  ****** ****** ****** ****** ****** ****** ****** ****** ****** ******
      ****** ****** ****** ****** ****** ****** ****** ****** ****** ******
      ****** ****** ****** ****** ****** ****** ****** ****** ****** ******
   2  ****** ****** ****** ****** ****** ****** ****** ****** ****** ******
      ****** ****** ****** ****** ****** ****** ****** ****** ****** ******
      ****** ****** ****** ****** ****** ****** ****** ****** ****** ******
   3  ****** ****** ****** ****** ****** ****** ****** ****** ****** ******
      ****** ****** ****** ****** ****** ****** ****** ****** ****** ******
      ****** ****** ****** ****** ****** ****** ****** ****** ****** ******
   4  ****** ****** ****** ****** ****** ****** ****** ****** ****** ******
      ****** ****** ****** ****** ****** ****** ****** ****** ****** ******
      ****** ****** ****** ****** ****** ****** ****** ****** ****** ******
   5  ****** ****** ****** ****** ****** ****** ****** ****** ****** ******
      ****** ****** ****** ****** ****** ****** ****** ****** ****** ******
      ****** ****** ****** ****** ****** ****** ****** ****** ****** ******
   6  ****** ****** ****** ****** ****** ****** ****** ****** ****** ******
      ****** ****** ****** ****** ****** ****** ****** ****** ****** ******
      ****** ****** ****** ****** ****** ****** ****** ****** ****** ******
   7  ****** ****** ****** ****** ****** ****** ****** ****** ****** ******
      ****** ****** ****** ****** ****** ****** ****** ****** ****** ******
      ****** ****** ****** ****** ****** ****** ****** ****** ****** ******
   8  ****** ****** ****** ****** ****** ****** ****** ****** ****** ******
      ****** ****** ****** ****** ****** ****** ****** ****** ****** ******
      ****** ****** ****** ****** ****** ****** ****** ****** ****** ******
   9  ****** ****** ****** ****** ****** ****** ****** ****** ****** ******
      ****** ****** ****** ****** ****** ****** ****** ****** ****** ******
      ****** ****** ****** ****** ****** ****** ****** ****** ****** ******
  10  ****** ****** ****** ****** ****** ****** ****** ****** ****** ******
      ****** ****** ****** ****** ****** ****** ****** ****** ****** ******
      ****** ****** ****** ****** ****** ****** ****** ****** ****** ******
  11  ****** ****** ****** ****** ****** ****** ****** ****** ****** ******
      ****** ****** ****** ****** ****** ****** ****** ****** ****** ******
      ****** ****** ****** ****** ****** ****** ****** ****** ****** ******
  12  ****** ****** ****** ****** ****** ****** ****** ****** ****** ******
      ****** ****** ****** ****** ****** ****** ****** ****** ****** ******
      ****** ****** ****** ****** ****** ****** ****** ****** ****** ******
  13  ****** ****** ****** ****** ****** ****** ****** ****** ****** ******
      ****** ****** ****** ****** ****** ****** ****** ****** ****** ******
      ****** ****** ****** ****** ****** ****** ****** ****** ****** ******
  14  ****** ****** ****** ****** ****** ****** ****** ****** ****** ******
      ****** ****** ****** ****** ****** ****** ****** ****** ****** ******
      ****** ****** ****** ****** ****** ****** ****** ****** ****** ******
  15  ****** ****** ****** ****** ****** ****** ****** ****** ****** ******
      ****** ****** ****** ****** ****** ****** ****** ****** ****** ******
      ****** ****** ****** ****** ****** ****** ****** ****** ****** ******
  16  ****** ****** ****** ****** ****** ****** ****** ****** ****** ******
      ****** ****** ****** ****** ****** ****** ****** ****** ****** ******
      ****** ****** ****** ****** ****** ****** ****** ****** ****** ******
  17  ****** ****** ****** ****** ****** ****** ****** ****** ****** ******
      ****** ****** ****** ****** ****** ****** ****** ****** ****** ******
      ****** ****** ****** ****** ****** ****** ****** ****** ****** ******
  18  ****** ****** ****** ****** ****** ****** ****** ****** ****** ******
      ****** ****** ****** ****** ****** ****** ****** ****** ****** ******
      ****** ****** ****** ****** ****** ****** ****** ****** ****** ******
  19  ****** ****** ****** ****** ****** ****** ****** ****** ****** ******
      ****** ****** ****** ****** ****** ****** ****** ****** ****** ******
      ****** ****** ****** ****** ****** ****** ****** ****** ****** ******
  20  ****** ****** ****** ****** ****** ****** ****** ****** ****** ******
      ****** ****** ****** ****** ****** ****** ****** ****** ****** ******
      ****** ****** ****** ****** ****** ****** ****** ****** ****** ******
  21  ****** ****** ****** ****** ****** ****** ****** ****** ****** ******
      ****** ****** ****** ****** ****** ****** ****** ****** ****** ******
      ****** ****** ****** ****** ****** ****** ****** ****** ****** ******
  22  ****** ****** ****** ****** ****** ****** ****** ****** ****** ******
      ****** ****** ****** ****** ****** ****** ****** ****** ****** ******
      ****** ****** ****** ****** ****** ****** ****** ****** ****** ******
  23  ****** ****** ****** ****** ****** ****** ****** ****** ****** ******
      ****** ****** ****** ****** ****** ****** ****** ****** ****** ******
      ****** ****** ****** ****** ****** ****** ****** ****** ****** ******
  24  ****** ****** ****** ****** ****** ****** ****** ****** ****** ******
      ****** ****** ****** ****** ****** ****** ****** ****** ****** ******
      ****** ****** ****** ****** ****** ****** ****** ****** ****** ******
  25  ****** ****** ****** ****** ****** ****** ****** ****** ****** ******
      ****** ****** ****** ****** ****** ****** ****** ****** ****** ******
      ****** ****** ****** ****** ****** ****** ****** ****** ****** ******

 HEAD WILL BE SAVED ON UNIT   51 AT END OF TIME STEP    1, STRESS PERIOD   10
1
  VOLUMETRIC BUDGET FOR ENTIRE MODEL AT END OF TIME STEP    1, STRESS PERIOD  10
  ------------------------------------------------------------------------------

     CUMULATIVE VOLUMES      L**3       RATES FOR THIS TIME STEP      L**3/T
     ------------------                 ------------------------

           IN:                                      IN:
           ---                                      ---
             STORAGE =    34289230.0765               STORAGE =           0.0000
       CONSTANT HEAD =    26004060.1990         CONSTANT HEAD =       32205.6195
               WELLS =           0.0000                 WELLS =           0.0000
            RECHARGE =    23901600.0000              RECHARGE =       55200.0000
      STREAM LEAKAGE =    16423966.3690        STREAM LEAKAGE =       19488.0201

            TOTAL IN =   100618856.6445              TOTAL IN =      106893.6396

          OUT:                                     OUT:
          ----                                     ----
             STORAGE =     2366473.8685               STORAGE =       15716.6123
       CONSTANT HEAD =           0.0000         CONSTANT HEAD =           0.0000
               WELLS =    46112247.8537                 WELLS =       50506.2956
            RECHARGE =           0.0000              RECHARGE =           0.0000
      STREAM LEAKAGE =    52140136.4269        STREAM LEAKAGE =       40670.7278

           TOTAL OUT =   100618858.1492             TOTAL OUT =      106893.6357

            IN - OUT =          -1.5047              IN - OUT =       3.8671E-03

 PERCENT DISCREPANCY =          -0.00     PERCENT DISCREPANCY =           0.00






         TIME SUMMARY AT END OF TIME STEP    1 IN STRESS PERIOD   10
                    SECONDS     MINUTES      HOURS       DAYS        YEARS
                    -----------------------------------------------------------
   TIME STEP LENGTH 7.86240E+06 1.31040E+05  2184.0      91.000     0.24914    
 STRESS PERIOD TIME 7.86240E+06 1.31040E+05  2184.0      91.000     0.24914    
         TOTAL TIME 7.88832E+07 1.31472E+06  21912.      913.00      2.4997    
1
1
                            STRESS PERIOD NO.   11, LENGTH =   91.00000    
                            -----------------------------------------------

                              NUMBER OF TIME STEPS =     1

                               MULTIPLIER FOR DELT =     1.500

                            INITIAL TIME STEP SIZE =   91.00000    

 WELL NO.  LAYER   ROW   COL   STRESS RATE         
 --------------------------------------------------
      1      1     20     29      -8734.    
      2      1     15     15     -0.1244E+05
      3      1     17     29     -0.1509E+05
      4      1      6     23     -0.1424E+05

      4 WELLS

                 RECHARGE =   0.00000    

 REUSING STREAM SEGMENT DATA FROM LAST STRESS PERIOD
 
 SOLVING FOR HEAD 


     7 CALLS TO PCG ROUTINE FOR TIME STEP   1 IN STRESS PERIOD   11
    26 TOTAL ITERATIONS

 OUTPUT CONTROL FOR STRESS PERIOD   11   TIME STEP    1
    SAVE BUDGET
    SAVE HEAD FOR ALL LAYERS
    PRINT HEAD FOR ALL LAYERS
 UBDSV2 SAVING "STREAMFLOW OUT  " ON UNIT  50 AT TIME STEP  1, STRESS PERIOD  11



 STREAM LISTING     PERIOD     11   STEP        1

 LAYER ROW COL. STREAM  RCH.  FLOW INTO     FLOW TO   FLOW OUT OF   OVRLND.     DIRECT     STREAM       STREAM     STREAM     STREAM   STREAMBED  STREAMBED
                SEG.NO.  NO.  STRM. RCH.    AQUIFER    STRM. RCH.    RUNOFF     PRECIP       ET          HEAD       DEPTH      WIDTH   CONDCTNC.   GRADIENT

   1   13    1     1     1    1.0000E+05 -1.5156E+03   1.0152E+05  0.000E+00  0.000E+00  0.000E+00  4.84067E+01  1.453E-01  2.000E+01  2.000E+04 -7.578E-02
   1   13    2     1     2    1.0152E+05 -2.4422E+03   1.0396E+05  0.000E+00  0.000E+00  0.000E+00  4.79311E+01  1.470E-01  2.000E+01  2.000E+04 -1.221E-01
   1   14    3     1     3    1.0396E+05 -3.5846E+02   1.0432E+05  0.000E+00  0.000E+00  0.000E+00  4.74550E+01  1.482E-01  2.000E+01  2.000E+04 -1.792E-02
   1   15    4     1     4    1.0432E+05 -3.2969E+02   1.0465E+05  0.000E+00  0.000E+00  0.000E+00  4.69781E+01  1.485E-01  2.000E+01  2.000E+04 -1.648E-02
   1   16    5     1     5    1.0465E+05 -1.3502E+03   1.0600E+05  0.000E+00  0.000E+00  0.000E+00  4.65015E+01  1.492E-01  2.000E+01  2.000E+04 -6.751E-02
   1   16    6     1     6    1.0600E+05 -8.5102E+02   1.0685E+05  0.000E+00  0.000E+00  0.000E+00  4.60252E+01  1.502E-01  2.000E+01  2.000E+04 -4.255E-02
   1   16    7     1     7    1.0685E+05 -8.2983E+02   1.0768E+05  0.000E+00  0.000E+00  0.000E+00  4.55486E+01  1.509E-01  2.000E+01  2.000E+04 -4.149E-02
   1   16    8     1     8    1.0768E+05 -8.1442E+02   1.0849E+05  0.000E+00  0.000E+00  0.000E+00  4.50720E+01  1.516E-01  2.000E+01  2.000E+04 -4.072E-02
   1   16    9     1     9    1.0849E+05 -7.8691E+02   1.0928E+05  0.000E+00  0.000E+00  0.000E+00  4.45954E+01  1.522E-01  2.000E+01  2.000E+04 -3.935E-02
   1   16   10     1    10    1.0928E+05 -7.3993E+02   1.1002E+05  0.000E+00  0.000E+00  0.000E+00  4.41188E+01  1.529E-01  2.000E+01  2.000E+04 -3.700E-02
   1   16   11     1    11    1.1002E+05 -6.6155E+02   1.1068E+05  0.000E+00  0.000E+00  0.000E+00  4.36421E+01  1.535E-01  2.000E+01  2.000E+04 -3.308E-02
   1   16   12     1    12    1.1068E+05 -5.8592E+02   1.1127E+05  0.000E+00  0.000E+00  0.000E+00  4.31653E+01  1.540E-01  2.000E+01  2.000E+04 -2.930E-02
   1   15   13     1    13    1.1127E+05  8.8413E+02   1.1038E+05  0.000E+00  0.000E+00  0.000E+00  4.26879E+01  1.539E-01  2.000E+01  2.000E+04  4.421E-02
   1   14   14     1    14    1.1038E+05  1.7234E+03   1.0866E+05  0.000E+00  0.000E+00  0.000E+00  4.22096E+01  1.528E-01  2.000E+01  2.000E+04  8.617E-02
   1   13   15     1    15    1.0866E+05  3.5693E+02   1.0830E+05  0.000E+00  0.000E+00  0.000E+00  4.17314E+01  1.519E-01  2.000E+01  2.000E+04  1.785E-02
   1   12   16     1    16    1.0830E+05 -1.6238E+03   1.0993E+05  0.000E+00  0.000E+00  0.000E+00  4.12547E+01  1.524E-01  2.000E+01  2.000E+04 -8.119E-02
   1   12   17     1    17    1.0993E+05 -8.3541E+02   1.1076E+05  0.000E+00  0.000E+00  0.000E+00  4.07785E+01  1.535E-01  2.000E+01  2.000E+04 -4.177E-02
   1   12   18     1    18    1.1076E+05 -7.9935E+02   1.1156E+05  0.000E+00  0.000E+00  0.000E+00  4.03019E+01  1.541E-01  2.000E+01  2.000E+04 -3.997E-02
   1   12   19     1    19    1.1156E+05 -1.0461E+03   1.1261E+05  0.000E+00  0.000E+00  0.000E+00  3.98254E+01  1.549E-01  2.000E+01  2.000E+04 -5.230E-02
   1   13   20     1    20    1.1261E+05 -6.3487E+02   1.1324E+05  0.000E+00  0.000E+00  0.000E+00  3.93488E+01  1.556E-01  2.000E+01  2.000E+04 -3.174E-02
   1   14   21     1    21    1.1324E+05 -6.6146E+02   1.1390E+05  0.000E+00  0.000E+00  0.000E+00  3.88720E+01  1.561E-01  2.000E+01  2.000E+04 -3.307E-02
   1   14   22     1    22    1.1390E+05  5.0804E+03   1.0882E+05  0.000E+00  0.000E+00  0.000E+00  3.83929E+01  1.543E-01  2.000E+01  2.000E+04  2.540E-01
   1    9   30     2     1    5.0000E+04  2.9168E+02   4.9708E+04  0.000E+00  0.000E+00  0.000E+00  4.02407E+01  1.157E-01  2.000E+01  2.000E+04  1.458E-02
   1    9   29     2     2    4.9708E+04  3.9654E+01   4.9669E+04  0.000E+00  0.000E+00  0.000E+00  3.99904E+01  1.154E-01  2.000E+01  2.000E+04  1.983E-03
   1    9   28     2     3    4.9669E+04 -8.2462E+01   4.9751E+04  0.000E+00  0.000E+00  0.000E+00  3.97405E+01  1.155E-01  2.000E+01  2.000E+04 -4.123E-03
   1    9   27     2     4    4.9751E+04 -3.3454E+02   5.0086E+04  0.000E+00  0.000E+00  0.000E+00  3.94908E+01  1.158E-01  2.000E+01  2.000E+04 -1.673E-02
   1   10   26     2     5    5.0086E+04  1.9308E+02   4.9893E+04  0.000E+00  0.000E+00  0.000E+00  3.92409E+01  1.159E-01  2.000E+01  2.000E+04  9.654E-03
   1   11   25     2     6    4.9893E+04  8.0200E+01   4.9812E+04  0.000E+00  0.000E+00  0.000E+00  3.89907E+01  1.157E-01  2.000E+01  2.000E+04  4.010E-03
   1   12   24     2     7    4.9812E+04 -3.1867E+02   5.0131E+04  0.000E+00  0.000E+00  0.000E+00  3.87408E+01  1.158E-01  2.000E+01  2.000E+04 -1.593E-02
   1   13   23     2     8    5.0131E+04 -5.6955E+01   5.0188E+04  0.000E+00  0.000E+00  0.000E+00  3.84911E+01  1.161E-01  2.000E+01  2.000E+04 -2.848E-03
   1   14   22     2     9    5.0188E+04  2.0161E+03   4.8172E+04  0.000E+00  0.000E+00  0.000E+00  3.82397E+01  1.147E-01  2.000E+01  2.000E+04  1.008E-01
   1   14   22     3     1    1.5699E+05 -8.4698E+03   1.6546E+05  0.000E+00  0.000E+00  0.000E+00  3.77154E+01  1.599E-01  2.000E+01  2.000E+04 -4.235E-01
   1   15   23     3     2    1.6546E+05 -3.6498E+02   1.6583E+05  0.000E+00  0.000E+00  0.000E+00  3.68291E+01  1.625E-01  2.000E+01  2.000E+04 -1.825E-02
   1   15   24     3     3    1.6583E+05 -1.6817E+02   1.6600E+05  0.000E+00  0.000E+00  0.000E+00  3.59404E+01  1.626E-01  2.000E+01  2.000E+04 -8.408E-03
   1   15   25     3     4    1.6600E+05 -1.5551E+02   1.6615E+05  0.000E+00  0.000E+00  0.000E+00  3.50516E+01  1.627E-01  2.000E+01  2.000E+04 -7.775E-03
   1   15   26     3     5    1.6615E+05 -1.2497E+02   1.6628E+05  0.000E+00  0.000E+00  0.000E+00  3.41628E+01  1.628E-01  2.000E+01  2.000E+04 -6.248E-03
   1   16   27     3     6    1.6628E+05  1.1740E+02   1.6616E+05  0.000E+00  0.000E+00  0.000E+00  3.32739E+01  1.628E-01  2.000E+01  2.000E+04  5.870E-03
   1   17   28     3     7    1.6616E+05  5.7631E+03   1.6040E+05  0.000E+00  0.000E+00  0.000E+00  3.23833E+01  1.611E-01  2.000E+01  2.000E+04  2.882E-01
   1   18   29     3     8    1.6040E+05  5.6623E+03   1.5473E+05  0.000E+00  0.000E+00  0.000E+00  3.14910E+01  1.577E-01  2.000E+01  2.000E+04  2.831E-01
   1   18   30     3     9    1.5473E+05  1.8314E+03   1.5290E+05  0.000E+00  0.000E+00  0.000E+00  3.05999E+01  1.554E-01  2.000E+01  2.000E+04  9.157E-02



1
              HEAD IN LAYER   1 AT END OF TIME STEP   1 IN STRESS PERIOD   11
  ---------------------------------------------------------------------------

          1      2      3      4      5      6      7      8      9     10
         11     12     13     14     15     16     17     18     19     20
         21     22     23     24     25     26     27     28     29     30
 .........................................................................
   1  ****** ****** ****** ****** ****** ****** ****** ****** ****** ******
      ****** ****** ****** ****** ****** ****** ****** ****** ****** ******
      ****** ****** ****** ****** ****** ****** ****** ****** ****** ******
   2  ****** ****** ****** ****** ****** ****** ****** ****** ****** ******
      ****** ****** ****** ****** ****** ****** ****** ****** ****** ******
      ****** ****** ****** ****** ****** ****** ****** ****** ****** ******
   3  ****** ****** ****** ****** ****** ****** ****** ****** ****** ******
      ****** ****** ****** ****** ****** ****** ****** ****** ****** ******
      ****** ****** ****** ****** ****** ****** ****** ****** ****** ******
   4  ****** ****** ****** ****** ****** ****** ****** ****** ****** ******
      ****** ****** ****** ****** ****** ****** ****** ****** ****** ******
      ****** ****** ****** ****** ****** ****** ****** ****** ****** ******
   5  ****** ****** ****** ****** ****** ****** ****** ****** ****** ******
      ****** ****** ****** ****** ****** ****** ****** ****** ****** ******
      ****** ****** ****** ****** ****** ****** ****** ****** ****** ******
   6  ****** ****** ****** ****** ****** ****** ****** ****** ****** ******
      ****** ****** ****** ****** ****** ****** ****** ****** ****** ******
      ****** ****** ****** ****** ****** ****** ****** ****** ****** ******
   7  ****** ****** ****** ****** ****** ****** ****** ****** ****** ******
      ****** ****** ****** ****** ****** ****** ****** ****** ****** ******
      ****** ****** ****** ****** ****** ****** ****** ****** ****** ******
   8  ****** ****** ****** ****** ****** ****** ****** ****** ****** ******
      ****** ****** ****** ****** ****** ****** ****** ****** ****** ******
      ****** ****** ****** ****** ****** ****** ****** ****** ****** ******
   9  ****** ****** ****** ****** ****** ****** ****** ****** ****** ******
      ****** ****** ****** ****** ****** ****** ****** ****** ****** ******
      ****** ****** ****** ****** ****** ****** ****** ****** ****** ******
  10  ****** ****** ****** ****** ****** ****** ****** ****** ****** ******
      ****** ****** ****** ****** ****** ****** ****** ****** ****** ******
      ****** ****** ****** ****** ****** ****** ****** ****** ****** ******
  11  ****** ****** ****** ****** ****** ****** ****** ****** ****** ******
      ****** ****** ****** ****** ****** ****** ****** ****** ****** ******
      ****** ****** ****** ****** ****** ****** ****** ****** ****** ******
  12  ****** ****** ****** ****** ****** ****** ****** ****** ****** ******
      ****** ****** ****** ****** ****** ****** ****** ****** ****** ******
      ****** ****** ****** ****** ****** ****** ****** ****** ****** ******
  13  ****** ****** ****** ****** ****** ****** ****** ****** ****** ******
      ****** ****** ****** ****** ****** ****** ****** ****** ****** ******
      ****** ****** ****** ****** ****** ****** ****** ****** ****** ******
  14  ****** ****** ****** ****** ****** ****** ****** ****** ****** ******
      ****** ****** ****** ****** ****** ****** ****** ****** ****** ******
      ****** ****** ****** ****** ****** ****** ****** ****** ****** ******
  15  ****** ****** ****** ****** ****** ****** ****** ****** ****** ******
      ****** ****** ****** ****** ****** ****** ****** ****** ****** ******
      ****** ****** ****** ****** ****** ****** ****** ****** ****** ******
  16  ****** ****** ****** ****** ****** ****** ****** ****** ****** ******
      ****** ****** ****** ****** ****** ****** ****** ****** ****** ******
      ****** ****** ****** ****** ****** ****** ****** ****** ****** ******
  17  ****** ****** ****** ****** ****** ****** ****** ****** ****** ******
      ****** ****** ****** ****** ****** ****** ****** ****** ****** ******
      ****** ****** ****** ****** ****** ****** ****** ****** ****** ******
  18  ****** ****** ****** ****** ****** ****** ****** ****** ****** ******
      ****** ****** ****** ****** ****** ****** ****** ****** ****** ******
      ****** ****** ****** ****** ****** ****** ****** ****** ****** ******
  19  ****** ****** ****** ****** ****** ****** ****** ****** ****** ******
      ****** ****** ****** ****** ****** ****** ****** ****** ****** ******
      ****** ****** ****** ****** ****** ****** ****** ****** ****** ******
  20  ****** ****** ****** ****** ****** ****** ****** ****** ****** ******
      ****** ****** ****** ****** ****** ****** ****** ****** ****** ******
      ****** ****** ****** ****** ****** ****** ****** ****** ****** ******
  21  ****** ****** ****** ****** ****** ****** ****** ****** ****** ******
      ****** ****** ****** ****** ****** ****** ****** ****** ****** ******
      ****** ****** ****** ****** ****** ****** ****** ****** ****** ******
  22  ****** ****** ****** ****** ****** ****** ****** ****** ****** ******
      ****** ****** ****** ****** ****** ****** ****** ****** ****** ******
      ****** ****** ****** ****** ****** ****** ****** ****** ****** ******
  23  ****** ****** ****** ****** ****** ****** ****** ****** ****** ******
      ****** ****** ****** ****** ****** ****** ****** ****** ****** ******
      ****** ****** ****** ****** ****** ****** ****** ****** ****** ******
  24  ****** ****** ****** ****** ****** ****** ****** ****** ****** ******
      ****** ****** ****** ****** ****** ****** ****** ****** ****** ******
      ****** ****** ****** ****** ****** ****** ****** ****** ****** ******
  25  ****** ****** ****** ****** ****** ****** ****** ****** ****** ******
      ****** ****** ****** ****** ****** ****** ****** ****** ****** ******
      ****** ****** ****** ****** ****** ****** ****** ****** ****** ******

 HEAD WILL BE SAVED ON UNIT   51 AT END OF TIME STEP    1, STRESS PERIOD   11
1
  VOLUMETRIC BUDGET FOR ENTIRE MODEL AT END OF TIME STEP    1, STRESS PERIOD  11
  ------------------------------------------------------------------------------

     CUMULATIVE VOLUMES      L**3       RATES FOR THIS TIME STEP      L**3/T
     ------------------                 ------------------------

           IN:                                      IN:
           ---                                      ---
             STORAGE =    35919906.1662               STORAGE =       17919.5175
       CONSTANT HEAD =    29233620.3260         CONSTANT HEAD =       35489.6717
               WELLS =           0.0000                 WELLS =           0.0000
            RECHARGE =    23901600.0000              RECHARGE =           0.0000
      STREAM LEAKAGE =    18611597.0999        STREAM LEAKAGE =       24039.8981

            TOTAL IN =   107666723.5921              TOTAL IN =       77449.0873

          OUT:                                     OUT:
          ----                                     ----
             STORAGE =     2366473.8685               STORAGE =           0.0000
       CONSTANT HEAD =           0.0000         CONSTANT HEAD =           0.0000
               WELLS =    50708320.7504                 WELLS =       50506.2956
            RECHARGE =           0.0000              RECHARGE =           0.0000
      STREAM LEAKAGE =    54591930.9252        STREAM LEAKAGE =       26942.7967

           TOTAL OUT =   107666725.5441             TOTAL OUT =       77449.0923

            IN - OUT =          -1.9521              IN - OUT =      -4.9162E-03

 PERCENT DISCREPANCY =          -0.00     PERCENT DISCREPANCY =          -0.00






         TIME SUMMARY AT END OF TIME STEP    1 IN STRESS PERIOD   11
                    SECONDS     MINUTES      HOURS       DAYS        YEARS
                    -----------------------------------------------------------
   TIME STEP LENGTH 7.86240E+06 1.31040E+05  2184.0      91.000     0.24914    
 STRESS PERIOD TIME 7.86240E+06 1.31040E+05  2184.0      91.000     0.24914    
         TOTAL TIME 8.67456E+07 1.44576E+06  24096.      1004.0      2.7488    
1
1
                            STRESS PERIOD NO.   12, LENGTH =   91.00000    
                            -----------------------------------------------

                              NUMBER OF TIME STEPS =     1

                               MULTIPLIER FOR DELT =     1.500

                            INITIAL TIME STEP SIZE =   91.00000    

 WELL NO.  LAYER   ROW   COL   STRESS RATE         
 --------------------------------------------------
      1      1     20     29      -8734.    
      2      1     15     15     -0.1244E+05
      3      1     17     29     -0.1509E+05
      4      1      6     23     -0.1424E+05

      4 WELLS

                 RECHARGE =  1.000000E-03

 REUSING STREAM SEGMENT DATA FROM LAST STRESS PERIOD
 
 SOLVING FOR HEAD 


     7 CALLS TO PCG ROUTINE FOR TIME STEP   1 IN STRESS PERIOD   12
    24 TOTAL ITERATIONS

 OUTPUT CONTROL FOR STRESS PERIOD   12   TIME STEP    1
    SAVE BUDGET
    SAVE HEAD FOR ALL LAYERS
    PRINT HEAD FOR ALL LAYERS
 UBDSV2 SAVING "STREAMFLOW OUT  " ON UNIT  50 AT TIME STEP  1, STRESS PERIOD  12



 STREAM LISTING     PERIOD     12   STEP        1

 LAYER ROW COL. STREAM  RCH.  FLOW INTO     FLOW TO   FLOW OUT OF   OVRLND.     DIRECT     STREAM       STREAM     STREAM     STREAM   STREAMBED  STREAMBED
                SEG.NO.  NO.  STRM. RCH.    AQUIFER    STRM. RCH.    RUNOFF     PRECIP       ET          HEAD       DEPTH      WIDTH   CONDCTNC.   GRADIENT

   1   13    1     1     1    1.0000E+05 -1.6603E+03   1.0166E+05  0.000E+00  0.000E+00  0.000E+00  4.84067E+01  1.454E-01  2.000E+01  2.000E+04 -8.301E-02
   1   13    2     1     2    1.0166E+05 -2.5978E+03   1.0426E+05  0.000E+00  0.000E+00  0.000E+00  4.79313E+01  1.472E-01  2.000E+01  2.000E+04 -1.299E-01
   1   14    3     1     3    1.0426E+05 -4.3711E+02   1.0470E+05  0.000E+00  0.000E+00  0.000E+00  4.74553E+01  1.485E-01  2.000E+01  2.000E+04 -2.186E-02
   1   15    4     1     4    1.0470E+05 -4.1212E+02   1.0511E+05  0.000E+00  0.000E+00  0.000E+00  4.69784E+01  1.489E-01  2.000E+01  2.000E+04 -2.061E-02
   1   16    5     1     5    1.0511E+05 -1.5600E+03   1.0667E+05  0.000E+00  0.000E+00  0.000E+00  4.65020E+01  1.497E-01  2.000E+01  2.000E+04 -7.800E-02
   1   16    6     1     6    1.0667E+05 -9.8154E+02   1.0765E+05  0.000E+00  0.000E+00  0.000E+00  4.60258E+01  1.508E-01  2.000E+01  2.000E+04 -4.908E-02
   1   16    7     1     7    1.0765E+05 -9.5528E+02   1.0860E+05  0.000E+00  0.000E+00  0.000E+00  4.55493E+01  1.516E-01  2.000E+01  2.000E+04 -4.776E-02
   1   16    8     1     8    1.0860E+05 -9.3882E+02   1.0954E+05  0.000E+00  0.000E+00  0.000E+00  4.50728E+01  1.524E-01  2.000E+01  2.000E+04 -4.694E-02
   1   16    9     1     9    1.0954E+05 -9.1172E+02   1.1045E+05  0.000E+00  0.000E+00  0.000E+00  4.45963E+01  1.532E-01  2.000E+01  2.000E+04 -4.559E-02
   1   16   10     1    10    1.1045E+05 -8.6604E+02   1.1132E+05  0.000E+00  0.000E+00  0.000E+00  4.41198E+01  1.539E-01  2.000E+01  2.000E+04 -4.330E-02
   1   16   11     1    11    1.1132E+05 -7.8985E+02   1.1211E+05  0.000E+00  0.000E+00  0.000E+00  4.36432E+01  1.546E-01  2.000E+01  2.000E+04 -3.949E-02
   1   16   12     1    12    1.1211E+05 -7.8761E+02   1.1290E+05  0.000E+00  0.000E+00  0.000E+00  4.31666E+01  1.552E-01  2.000E+01  2.000E+04 -3.938E-02
   1   15   13     1    13    1.1290E+05  6.6706E+02   1.1223E+05  0.000E+00  0.000E+00  0.000E+00  4.26894E+01  1.553E-01  2.000E+01  2.000E+04  3.335E-02
   1   14   14     1    14    1.1223E+05  1.5057E+03   1.1073E+05  0.000E+00  0.000E+00  0.000E+00  4.22112E+01  1.544E-01  2.000E+01  2.000E+04  7.529E-02
   1   13   15     1    15    1.1073E+05  1.4646E+02   1.1058E+05  0.000E+00  0.000E+00  0.000E+00  4.17333E+01  1.537E-01  2.000E+01  2.000E+04  7.323E-03
   1   12   16     1    16    1.1058E+05 -1.8079E+03   1.1239E+05  0.000E+00  0.000E+00  0.000E+00  4.12567E+01  1.544E-01  2.000E+01  2.000E+04 -9.040E-02
   1   12   17     1    17    1.1239E+05 -9.8918E+02   1.1338E+05  0.000E+00  0.000E+00  0.000E+00  4.07806E+01  1.556E-01  2.000E+01  2.000E+04 -4.946E-02
   1   12   18     1    18    1.1338E+05 -9.5523E+02   1.1433E+05  0.000E+00  0.000E+00  0.000E+00  4.03041E+01  1.564E-01  2.000E+01  2.000E+04 -4.776E-02
   1   12   19     1    19    1.1433E+05 -1.2388E+03   1.1557E+05  0.000E+00  0.000E+00  0.000E+00  3.98277E+01  1.573E-01  2.000E+01  2.000E+04 -6.194E-02
   1   13   20     1    20    1.1557E+05 -8.4532E+02   1.1642E+05  0.000E+00  0.000E+00  0.000E+00  3.93513E+01  1.581E-01  2.000E+01  2.000E+04 -4.227E-02
   1   14   21     1    21    1.1642E+05 -8.5550E+02   1.1727E+05  0.000E+00  0.000E+00  0.000E+00  3.88747E+01  1.588E-01  2.000E+01  2.000E+04 -4.277E-02
   1   14   22     1    22    1.1727E+05  5.0272E+03   1.1224E+05  0.000E+00  0.000E+00  0.000E+00  3.83957E+01  1.571E-01  2.000E+01  2.000E+04  2.514E-01
   1    9   30     2     1    5.0000E+04  1.1525E+02   4.9885E+04  0.000E+00  0.000E+00  0.000E+00  4.02408E+01  1.158E-01  2.000E+01  2.000E+04  5.762E-03
   1    9   29     2     2    4.9885E+04 -1.3474E+02   5.0019E+04  0.000E+00  0.000E+00  0.000E+00  3.99908E+01  1.158E-01  2.000E+01  2.000E+04 -6.737E-03
   1    9   28     2     3    5.0019E+04 -2.5334E+02   5.0273E+04  0.000E+00  0.000E+00  0.000E+00  3.97411E+01  1.161E-01  2.000E+01  2.000E+04 -1.267E-02
   1    9   27     2     4    5.0273E+04 -5.4377E+02   5.0817E+04  0.000E+00  0.000E+00  0.000E+00  3.94916E+01  1.166E-01  2.000E+01  2.000E+04 -2.719E-02
   1   10   26     2     5    5.0817E+04 -3.6816E+01   5.0853E+04  0.000E+00  0.000E+00  0.000E+00  3.92420E+01  1.170E-01  2.000E+01  2.000E+04 -1.841E-03
   1   11   25     2     6    5.0853E+04 -1.4580E+02   5.0999E+04  0.000E+00  0.000E+00  0.000E+00  3.89921E+01  1.171E-01  2.000E+01  2.000E+04 -7.290E-03
   1   12   24     2     7    5.0999E+04 -5.2494E+02   5.1524E+04  0.000E+00  0.000E+00  0.000E+00  3.87426E+01  1.176E-01  2.000E+01  2.000E+04 -2.625E-02
   1   13   23     2     8    5.1524E+04 -1.3460E+02   5.1659E+04  0.000E+00  0.000E+00  0.000E+00  3.84931E+01  1.181E-01  2.000E+01  2.000E+04 -6.730E-03
   1   14   22     2     9    5.1659E+04  1.9486E+03   4.9710E+04  0.000E+00  0.000E+00  0.000E+00  3.82418E+01  1.168E-01  2.000E+01  2.000E+04  9.743E-02
   1   14   22     3     1    1.6195E+05 -8.5202E+03   1.7047E+05  0.000E+00  0.000E+00  0.000E+00  3.77184E+01  1.628E-01  2.000E+01  2.000E+04 -4.260E-01
   1   15   23     3     2    1.7047E+05 -4.3699E+02   1.7091E+05  0.000E+00  0.000E+00  0.000E+00  3.68321E+01  1.654E-01  2.000E+01  2.000E+04 -2.185E-02
   1   15   24     3     3    1.7091E+05 -2.3324E+02   1.7114E+05  0.000E+00  0.000E+00  0.000E+00  3.59434E+01  1.656E-01  2.000E+01  2.000E+04 -1.166E-02
   1   15   25     3     4    1.7114E+05 -2.2185E+02   1.7137E+05  0.000E+00  0.000E+00  0.000E+00  3.50547E+01  1.658E-01  2.000E+01  2.000E+04 -1.109E-02
   1   15   26     3     5    1.7137E+05 -2.0244E+02   1.7157E+05  0.000E+00  0.000E+00  0.000E+00  3.41659E+01  1.659E-01  2.000E+01  2.000E+04 -1.012E-02
   1   16   27     3     6    1.7157E+05  3.0636E+01   1.7154E+05  0.000E+00  0.000E+00  0.000E+00  3.32770E+01  1.659E-01  2.000E+01  2.000E+04  1.532E-03
   1   17   28     3     7    1.7154E+05  5.5425E+03   1.6600E+05  0.000E+00  0.000E+00  0.000E+00  3.23865E+01  1.643E-01  2.000E+01  2.000E+04  2.771E-01
   1   18   29     3     8    1.6600E+05  5.4618E+03   1.6053E+05  0.000E+00  0.000E+00  0.000E+00  3.14944E+01  1.611E-01  2.000E+01  2.000E+04  2.731E-01
   1   18   30     3     9    1.6053E+05  1.6634E+03   1.5887E+05  0.000E+00  0.000E+00  0.000E+00  3.06034E+01  1.590E-01  2.000E+01  2.000E+04  8.317E-02



1
              HEAD IN LAYER   1 AT END OF TIME STEP   1 IN STRESS PERIOD   12
  ---------------------------------------------------------------------------

          1      2      3      4      5      6      7      8      9     10
         11     12     13     14     15     16     17     18     19     20
         21     22     23     24     25     26     27     28     29     30
 .........................................................................
   1  ****** ****** ****** ****** ****** ****** ****** ****** ****** ******
      ****** ****** ****** ****** ****** ****** ****** ****** ****** ******
      ****** ****** ****** ****** ****** ****** ****** ****** ****** ******
   2  ****** ****** ****** ****** ****** ****** ****** ****** ****** ******
      ****** ****** ****** ****** ****** ****** ****** ****** ****** ******
      ****** ****** ****** ****** ****** ****** ****** ****** ****** ******
   3  ****** ****** ****** ****** ****** ****** ****** ****** ****** ******
      ****** ****** ****** ****** ****** ****** ****** ****** ****** ******
      ****** ****** ****** ****** ****** ****** ****** ****** ****** ******
   4  ****** ****** ****** ****** ****** ****** ****** ****** ****** ******
      ****** ****** ****** ****** ****** ****** ****** ****** ****** ******
      ****** ****** ****** ****** ****** ****** ****** ****** ****** ******
   5  ****** ****** ****** ****** ****** ****** ****** ****** ****** ******
      ****** ****** ****** ****** ****** ****** ****** ****** ****** ******
      ****** ****** ****** ****** ****** ****** ****** ****** ****** ******
   6  ****** ****** ****** ****** ****** ****** ****** ****** ****** ******
      ****** ****** ****** ****** ****** ****** ****** ****** ****** ******
      ****** ****** ****** ****** ****** ****** ****** ****** ****** ******
   7  ****** ****** ****** ****** ****** ****** ****** ****** ****** ******
      ****** ****** ****** ****** ****** ****** ****** ****** ****** ******
      ****** ****** ****** ****** ****** ****** ****** ****** ****** ******
   8  ****** ****** ****** ****** ****** ****** ****** ****** ****** ******
      ****** ****** ****** ****** ****** ****** ****** ****** ****** ******
      ****** ****** ****** ****** ****** ****** ****** ****** ****** ******
   9  ****** ****** ****** ****** ****** ****** ****** ****** ****** ******
      ****** ****** ****** ****** ****** ****** ****** ****** ****** ******
      ****** ****** ****** ****** ****** ****** ****** ****** ****** ******
  10  ****** ****** ****** ****** ****** ****** ****** ****** ****** ******
      ****** ****** ****** ****** ****** ****** ****** ****** ****** ******
      ****** ****** ****** ****** ****** ****** ****** ****** ****** ******
  11  ****** ****** ****** ****** ****** ****** ****** ****** ****** ******
      ****** ****** ****** ****** ****** ****** ****** ****** ****** ******
      ****** ****** ****** ****** ****** ****** ****** ****** ****** ******
  12  ****** ****** ****** ****** ****** ****** ****** ****** ****** ******
      ****** ****** ****** ****** ****** ****** ****** ****** ****** ******
      ****** ****** ****** ****** ****** ****** ****** ****** ****** ******
  13  ****** ****** ****** ****** ****** ****** ****** ****** ****** ******
      ****** ****** ****** ****** ****** ****** ****** ****** ****** ******
      ****** ****** ****** ****** ****** ****** ****** ****** ****** ******
  14  ****** ****** ****** ****** ****** ****** ****** ****** ****** ******
      ****** ****** ****** ****** ****** ****** ****** ****** ****** ******
      ****** ****** ****** ****** ****** ****** ****** ****** ****** ******
  15  ****** ****** ****** ****** ****** ****** ****** ****** ****** ******
      ****** ****** ****** ****** ****** ****** ****** ****** ****** ******
      ****** ****** ****** ****** ****** ****** ****** ****** ****** ******
  16  ****** ****** ****** ****** ****** ****** ****** ****** ****** ******
      ****** ****** ****** ****** ****** ****** ****** ****** ****** ******
      ****** ****** ****** ****** ****** ****** ****** ****** ****** ******
  17  ****** ****** ****** ****** ****** ****** ****** ****** ****** ******
      ****** ****** ****** ****** ****** ****** ****** ****** ****** ******
      ****** ****** ****** ****** ****** ****** ****** ****** ****** ******
  18  ****** ****** ****** ****** ****** ****** ****** ****** ****** ******
      ****** ****** ****** ****** ****** ****** ****** ****** ****** ******
      ****** ****** ****** ****** ****** ****** ****** ****** ****** ******
  19  ****** ****** ****** ****** ****** ****** ****** ****** ****** ******
      ****** ****** ****** ****** ****** ****** ****** ****** ****** ******
      ****** ****** ****** ****** ****** ****** ****** ****** ****** ******
  20  ****** ****** ****** ****** ****** ****** ****** ****** ****** ******
      ****** ****** ****** ****** ****** ****** ****** ****** ****** ******
      ****** ****** ****** ****** ****** ****** ****** ****** ****** ******
  21  ****** ****** ****** ****** ****** ****** ****** ****** ****** ******
      ****** ****** ****** ****** ****** ****** ****** ****** ****** ******
      ****** ****** ****** ****** ****** ****** ****** ****** ****** ******
  22  ****** ****** ****** ****** ****** ****** ****** ****** ****** ******
      ****** ****** ****** ****** ****** ****** ****** ****** ****** ******
      ****** ****** ****** ****** ****** ****** ****** ****** ****** ******
  23  ****** ****** ****** ****** ****** ****** ****** ****** ****** ******
      ****** ****** ****** ****** ****** ****** ****** ****** ****** ******
      ****** ****** ****** ****** ****** ****** ****** ****** ****** ******
  24  ****** ****** ****** ****** ****** ****** ****** ****** ****** ******
      ****** ****** ****** ****** ****** ****** ****** ****** ****** ******
      ****** ****** ****** ****** ****** ****** ****** ****** ****** ******
  25  ****** ****** ****** ****** ****** ****** ****** ****** ****** ******
      ****** ****** ****** ****** ****** ****** ****** ****** ****** ******
      ****** ****** ****** ****** ****** ****** ****** ****** ****** ******

 HEAD WILL BE SAVED ON UNIT   51 AT END OF TIME STEP    1, STRESS PERIOD   12
1
  VOLUMETRIC BUDGET FOR ENTIRE MODEL AT END OF TIME STEP    1, STRESS PERIOD  12
  ------------------------------------------------------------------------------

     CUMULATIVE VOLUMES      L**3       RATES FOR THIS TIME STEP      L**3/T
     ------------------                 ------------------------

           IN:                                      IN:
           ---                                      ---
             STORAGE =    35920741.8658               STORAGE =           9.1835
       CONSTANT HEAD =    32399704.5392         CONSTANT HEAD =       34792.1342
               WELLS =           0.0000                 WELLS =           0.0000
            RECHARGE =    26413200.0000              RECHARGE =       27600.0000
      STREAM LEAKAGE =    20623484.3989        STREAM LEAKAGE =       22108.6516

            TOTAL IN =   115357130.8039              TOTAL IN =       84509.9694

          OUT:                                     OUT:
          ----                                     ----
             STORAGE =     2641729.5943               STORAGE =        3024.7882
       CONSTANT HEAD =           0.0000         CONSTANT HEAD =           0.0000
               WELLS =    55304393.6471                 WELLS =       50506.2956
            RECHARGE =           0.0000              RECHARGE =           0.0000
      STREAM LEAKAGE =    57411009.4289        STREAM LEAKAGE =       30978.8847

           TOTAL OUT =   115357132.6704             TOTAL OUT =       84509.9684

            IN - OUT =          -1.8664              IN - OUT =       9.4088E-04

 PERCENT DISCREPANCY =          -0.00     PERCENT DISCREPANCY =           0.00






         TIME SUMMARY AT END OF TIME STEP    1 IN STRESS PERIOD   12
                    SECONDS     MINUTES      HOURS       DAYS        YEARS
                    -----------------------------------------------------------
   TIME STEP LENGTH 7.86240E+06 1.31040E+05  2184.0      91.000     0.24914    
 STRESS PERIOD TIME 7.86240E+06 1.31040E+05  2184.0      91.000     0.24914    
         TOTAL TIME 9.46080E+07 1.57680E+06  26280.      1095.0      2.9979    
1

 Run end date and time (yyyy/mm/dd hh:mm:ss): 2019/01/26 13:50:11
 Elapsed run time:  0.091 Seconds

