                                  MODFLOW-2005     
      U.S. GEOLOGICAL SURVEY MODULAR FINITE-DIFFERENCE GROUND-WATER FLOW MODEL
                            VERSION 1.11.00 8/8/2013

 LIST FILE: supply2.lst
                         UNIT   10

 OPENING ..\data\supply.dis
 FILE TYPE:DIS   UNIT   11   STATUS:OLD    
 FORMAT:FORMATTED              ACCESS:SEQUENTIAL          

 OPENING ..\data\supply.ba6
 FILE TYPE:BAS6   UNIT   12   STATUS:OLD    
 FORMAT:FORMATTED              ACCESS:SEQUENTIAL          

 OPENING ..\data\supply.bc6
 FILE TYPE:BCF6   UNIT   13   STATUS:OLD    
 FORMAT:FORMATTED              ACCESS:SEQUENTIAL          

 OPENING ..\data\supply.rch
 FILE TYPE:RCH   UNIT   15   STATUS:OLD    
 FORMAT:FORMATTED              ACCESS:SEQUENTIAL          

 OPENING ..\data\supply2.sfr
 FILE TYPE:SFR   UNIT   16   STATUS:OLD    
 FORMAT:FORMATTED              ACCESS:SEQUENTIAL          

 OPENING ..\data\supply.oc
 FILE TYPE:OC   UNIT   17   STATUS:OLD    
 FORMAT:FORMATTED              ACCESS:SEQUENTIAL          

 OPENING ..\data\supply.pcg
 FILE TYPE:PCG   UNIT   18   STATUS:OLD    
 FORMAT:FORMATTED              ACCESS:SEQUENTIAL          

 OPENING supply2.wel
 FILE TYPE:WEL   UNIT   19   STATUS:OLD    
 FORMAT:FORMATTED              ACCESS:SEQUENTIAL          

 OPENING supply2sf.bin
 FILE TYPE:DATA(BINARY)   UNIT   50   STATUS:UNKNOWN
 FORMAT:BINARY                 ACCESS:SEQUENTIAL          

 OPENING supply2hd.bin
 FILE TYPE:DATA(BINARY)   UNIT   51   STATUS:UNKNOWN
 FORMAT:BINARY                 ACCESS:SEQUENTIAL          

 BAS -- BASIC PACKAGE, VERSION 7, 5/2/2005 INPUT READ FROM UNIT   12
 
 MODFLOW was compiled using uniform precision
 Precision of REAL and DOUBLE PRECISION variables:          15

 DISCRETIZATION INPUT DATA READ FROM UNIT   11
    1 LAYERS        25 ROWS        30 COLUMNS
   12 STRESS PERIOD(S) IN SIMULATION
 MODEL TIME UNIT IS DAYS
 MODEL LENGTH UNIT IS UNDEFINED
  Confining bed flag for each layer:
   0

                     DELR =   200.000    

                     DELC =   200.000    

 TOP ELEVATION OF LAYER 1 =  100.0000    

   MODEL LAYER BOTTOM EL. =   0.00000     FOR LAYER   1


 STRESS PERIOD     LENGTH       TIME STEPS     MULTIPLIER FOR DELT    SS FLAG
 ----------------------------------------------------------------------------
        1         92.00000          1                    1.500         TR
        2         91.00000          1                    1.500         TR
        3         91.00000          1                    1.500         TR
        4         91.00000          1                    1.500         TR
        5         92.00000          1                    1.500         TR
        6         91.00000          1                    1.500         TR
        7         91.00000          1                    1.500         TR
        8         91.00000          1                    1.500         TR
        9         92.00000          1                    1.500         TR
       10         91.00000          1                    1.500         TR
       11         91.00000          1                    1.500         TR
       12         91.00000          1                    1.500         TR

 TRANSIENT SIMULATION



 
 #MODOFC transient water supply sample problem                                   
 #                                                                               
 THE FREE FORMAT OPTION HAS BEEN SELECTED



                     BOUNDARY ARRAY FOR LAYER   1
 READING ON UNIT   12 WITH FORMAT: (20I4)              

 AQUIFER HEAD WILL BE SET TO   0.0000     AT ALL NO-FLOW NODES (IBOUND=0).



                       INITIAL HEAD FOR LAYER   1
 READING ON UNIT   12 WITH FORMAT: (10F13.0)           

 OUTPUT CONTROL IS SPECIFIED ONLY AT TIME STEPS FOR WHICH OUTPUT IS DESIRED
 COMPACT CELL-BY-CELL BUDGET FILES WILL BE WRITTEN
 HEAD PRINT FORMAT CODE IS  18    DRAWDOWN PRINT FORMAT CODE IS   0
 HEADS WILL BE SAVED ON UNIT   51    DRAWDOWNS WILL BE SAVED ON UNIT    0

 BCF -- BLOCK-CENTERED FLOW PACKAGE, VERSION 7, 5/2/2005
         INPUT READ FROM UNIT 13
 TRANSIENT SIMULATION
 HEAD AT CELLS THAT CONVERT TO DRY=   0.0000    
 WETTING CAPABILITY IS NOT ACTIVE
      LAYER  LAYER-TYPE CODE     INTERBLOCK T
      --------------------------------------------
         1            0          0 -- HARMONIC    

 COLUMN TO ROW ANISOTROPY =  1.000000    

     PRIMARY STORAGE COEF =  5.000000E-02 FOR LAYER   1

     TRANSMIS. ALONG ROWS =   5000.00     FOR LAYER   1

 WEL -- WELL PACKAGE, VERSION 7, 5/2/2005 INPUT READ FROM UNIT   19
 # Well package input file written by MMProc
 No named parameters
 MAXIMUM OF      7 ACTIVE WELLS AT ONE TIME


     0 Well parameters

 RCH -- RECHARGE PACKAGE, VERSION 7, 5/2/2005 INPUT READ FROM UNIT   15
 No named parameters
 OPTION 1 -- RECHARGE TO TOP LAYER


     0 Recharge parameters

 SFR7 -- STREAMFLOW ROUTING PACKAGE, VERSION 1.0.7, 2013-01-15
         INPUT READ FROM UNIT  16
 #  Supply2 test problem for GWM-VI
 #  The eighth entry in the first data line is ISTCB2 -
 #    Setting this to a negative number indicates that
 #    streamflows out of the reach will be saved to a
 #    binary file.  The absolute value of ISTCB2 is the
 #    unit to which unformatted flows will be written.
 #
 No named parameters
 Segment information will not be 
 read by reach
 No named parameters
 No specifed inflow files


 NUMBER OF STREAM REACHES IS   40

 NUMBER OF STREAM SEGMENTS IS    3

 NUMBER OF STREAM PARAMETERS IS    0

 NUMBER OF STREAM SEGMENTS DEFINED USING PARAMETERS IS              0

 MAXIMUM ERROR FOR STREAM LEAKAGE RATES IS  1.00E-04

 CONSTANT FOR MANNINGS EQUATION IS  1.2839E+05





   STREAM NETWORK DESCRIPTION: 

   LAYER    ROW    COL   SEGMENT   REACH     LENGTH
                          NUMBER   NUMBER    IN CELL        
   --------------------------------------------------
      1     13      1       1        1    2.0000E+02
      1     13      2       1        2    2.0000E+02
      1     14      3       1        3    2.0000E+02
      1     15      4       1        4    2.0000E+02
      1     16      5       1        5    2.0000E+02
      1     16      6       1        6    2.0000E+02
      1     16      7       1        7    2.0000E+02
      1     16      8       1        8    2.0000E+02
      1     16      9       1        9    2.0000E+02
      1     16     10       1       10    2.0000E+02
      1     16     11       1       11    2.0000E+02
      1     16     12       1       12    2.0000E+02
      1     15     13       1       13    2.0000E+02
      1     14     14       1       14    2.0000E+02
      1     13     15       1       15    2.0000E+02
      1     12     16       1       16    2.0000E+02
      1     12     17       1       17    2.0000E+02
      1     12     18       1       18    2.0000E+02
      1     12     19       1       19    2.0000E+02
      1     13     20       1       20    2.0000E+02
      1     14     21       1       21    2.0000E+02
      1     14     22       1       22    2.0000E+02
      1      9     30       2        1    2.0000E+02
      1      9     29       2        2    2.0000E+02
      1      9     28       2        3    2.0000E+02
      1      9     27       2        4    2.0000E+02
      1     10     26       2        5    2.0000E+02
      1     11     25       2        6    2.0000E+02
      1     12     24       2        7    2.0000E+02
      1     13     23       2        8    2.0000E+02
      1     14     22       2        9    2.0000E+02
      1     14     22       3        1    2.0000E+02
      1     15     23       3        2    2.0000E+02
      1     15     24       3        3    2.0000E+02
      1     15     25       3        4    2.0000E+02
      1     15     26       3        5    2.0000E+02
      1     16     27       3        6    2.0000E+02
      1     17     28       3        7    2.0000E+02
      1     18     29       3        8    2.0000E+02
      1     18     30       3        9    2.0000E+02




 PCG -- CONJUGATE-GRADIENT SOLUTION PACKAGE, VERSION 7, 5/2/2005
 MAXIMUM OF    500 CALLS OF SOLUTION ROUTINE
 MAXIMUM OF      5 INTERNAL ITERATIONS PER CALL TO SOLUTION ROUTINE
 MATRIX PRECONDITIONING TYPE :    1



                                    SOLUTION BY THE CONJUGATE-GRADIENT METHOD
                                   -------------------------------------------
                    MAXIMUM NUMBER OF CALLS TO PCG ROUTINE =      500
                        MAXIMUM ITERATIONS PER CALL TO PCG =        5
                               MATRIX PRECONDITIONING TYPE =        1
        RELAXATION FACTOR (ONLY USED WITH PRECOND. TYPE 1) =    0.10000E+01
 PARAMETER OF POLYNOMIAL PRECOND. = 2 (2) OR IS CALCULATED :        0
                         HEAD CHANGE CRITERION FOR CLOSURE =    0.10000E-05
                     RESIDUAL CHANGE CRITERION FOR CLOSURE =    0.10000E+01
            PCG HEAD AND RESIDUAL CHANGE PRINTOUT INTERVAL =        1
     PRINTING FROM SOLVER IS LIMITED(1) OR SUPPRESSED (>1) =        1
                            STEADY-STATE DAMPING PARAMETER =    0.10000E+01
                               TRANSIENT DAMPING PARAMETER =    0.10000E+01
1
                            STRESS PERIOD NO.    1, LENGTH =   92.00000    
                            -----------------------------------------------

                              NUMBER OF TIME STEPS =     1

                               MULTIPLIER FOR DELT =     1.500

                            INITIAL TIME STEP SIZE =   92.00000    

 WELL NO.  LAYER   ROW   COL   STRESS RATE         
 --------------------------------------------------
      1      1     22     22     -0.3000E+05
      2      1      2     29     -0.5000E+05
      3      1      5     21     -0.5000E+05

      3 WELLS

                 RECHARGE =  5.000000E-04



 CLASSIFICATION & COUNT OF STREAM SEGMENTS BASED ON SOURCE OF INFLOW:

                HEADWATER     DIVERSION     RECEIVES TRIBUTARY FLOW
                ---------     ---------     -----------------------
                     2              0               1



                    INPUT DATA FOR EACH STREAM SEGMENT
 ---------------------------------------------------------------------------------------------

 SEGMENT    SEG.     INFLOW   OVERLAND   STREAM    STREAM   ICALC  OUTFLOW  DIVERSION PRIORITY
    NO.    LENGTH     RATE     RUNOFF      ET       PPT.    METH.  TO SEG.  FROM SEG.    NO.

      1  4.400E+03 1.000E+05 0.000E+00 0.000E+00 0.000E+00    1        3        0        0
      2  1.800E+03 5.000E+04 0.000E+00 0.000E+00 0.000E+00    1        3        0        0
      3  1.800E+03 0.000E+00 0.000E+00 0.000E+00 0.000E+00    1        0        0        0


         STREAMBED PROPERTIES AND STREAM DIMENSIONS

 SEGMENT     BED HYD. COND.      BED THICKNESS     ELEV.-TOP OF BED     WIDTH OF STREAM     DEPTH OF STREAM    STREAM ROUGHNESS
    No.     UPPER     LOWER     UPPER     LOWER     UPPER     LOWER     UPPER     LOWER     UPPER     LOWER   CHANNEL      BANK

     1  5.000E+00 5.000E+00 1.000E+00 1.000E+00 4.850E+01 3.800E+01 2.000E+01 2.000E+01                     5.000E-02
     2  5.000E+00 5.000E+00 1.000E+00 1.000E+00 4.025E+01 3.800E+01 2.000E+01 2.000E+01                     5.000E-02
     3  5.000E+00 5.000E+00 1.000E+00 1.000E+00 3.800E+01 3.000E+01 2.000E+01 2.000E+01                     5.000E-02



 
 SOLVING FOR HEAD 


     8 CALLS TO PCG ROUTINE FOR TIME STEP   1 IN STRESS PERIOD    1
    32 TOTAL ITERATIONS

 OUTPUT CONTROL FOR STRESS PERIOD    1   TIME STEP    1
    SAVE BUDGET
    SAVE HEAD FOR ALL LAYERS
    PRINT HEAD FOR ALL LAYERS
 UBDSV2 SAVING "STREAMFLOW OUT  " ON UNIT  50 AT TIME STEP  1, STRESS PERIOD   1



 STREAM LISTING     PERIOD      1   STEP        1

 LAYER ROW COL. STREAM  RCH.  FLOW INTO     FLOW TO   FLOW OUT OF   OVRLND.     DIRECT     STREAM       STREAM     STREAM     STREAM   STREAMBED  STREAMBED
                SEG.NO.  NO.  STRM. RCH.    AQUIFER    STRM. RCH.    RUNOFF     PRECIP       ET          HEAD       DEPTH      WIDTH   CONDCTNC.   GRADIENT

   1   13    1     1     1    1.0000E+05 -3.1641E+04   1.3164E+05  0.000E+00  0.000E+00  0.000E+00  4.84193E+01  1.580E-01  2.000E+01  2.000E+04 -1.582E+00
   1   13    2     1     2    1.3164E+05 -4.2089E+04   1.7373E+05  0.000E+00  0.000E+00  0.000E+00  4.79706E+01  1.865E-01  2.000E+01  2.000E+04 -2.104E+00
   1   14    3     1     3    1.7373E+05 -3.7635E+04   2.1136E+05  0.000E+00  0.000E+00  0.000E+00  4.75211E+01  2.143E-01  2.000E+01  2.000E+04 -1.882E+00
   1   15    4     1     4    2.1136E+05 -3.6695E+04   2.4806E+05  0.000E+00  0.000E+00  0.000E+00  4.70678E+01  2.383E-01  2.000E+01  2.000E+04 -1.835E+00
   1   16    5     1     5    2.4806E+05 -3.7645E+04   2.8570E+05  0.000E+00  0.000E+00  0.000E+00  4.66130E+01  2.607E-01  2.000E+01  2.000E+04 -1.882E+00
   1   16    6     1     6    2.8570E+05 -3.2911E+04   3.1862E+05  0.000E+00  0.000E+00  0.000E+00  4.61558E+01  2.808E-01  2.000E+01  2.000E+04 -1.646E+00
   1   16    7     1     7    3.1862E+05 -3.2716E+04   3.5133E+05  0.000E+00  0.000E+00  0.000E+00  4.56965E+01  2.988E-01  2.000E+01  2.000E+04 -1.636E+00
   1   16    8     1     8    3.5133E+05 -3.2917E+04   3.8425E+05  0.000E+00  0.000E+00  0.000E+00  4.52365E+01  3.160E-01  2.000E+01  2.000E+04 -1.646E+00
   1   16    9     1     9    3.8425E+05 -3.2999E+04   4.1725E+05  0.000E+00  0.000E+00  0.000E+00  4.47759E+01  3.327E-01  2.000E+01  2.000E+04 -1.650E+00
   1   16   10     1    10    4.1725E+05 -3.3015E+04   4.5026E+05  0.000E+00  0.000E+00  0.000E+00  4.43148E+01  3.489E-01  2.000E+01  2.000E+04 -1.651E+00
   1   16   11     1    11    4.5026E+05 -3.3643E+04   4.8390E+05  0.000E+00  0.000E+00  0.000E+00  4.38534E+01  3.647E-01  2.000E+01  2.000E+04 -1.682E+00
   1   16   12     1    12    4.8390E+05 -3.9629E+04   5.2353E+05  0.000E+00  0.000E+00  0.000E+00  4.33930E+01  3.816E-01  2.000E+01  2.000E+04 -1.981E+00
   1   15   13     1    13    5.2353E+05 -3.8916E+04   5.6245E+05  0.000E+00  0.000E+00  0.000E+00  4.29333E+01  3.992E-01  2.000E+01  2.000E+04 -1.946E+00
   1   14   14     1    14    5.6245E+05 -3.9624E+04   6.0207E+05  0.000E+00  0.000E+00  0.000E+00  4.24731E+01  4.163E-01  2.000E+01  2.000E+04 -1.981E+00
   1   13   15     1    15    6.0207E+05 -4.1630E+04   6.4370E+05  0.000E+00  0.000E+00  0.000E+00  4.20130E+01  4.335E-01  2.000E+01  2.000E+04 -2.082E+00
   1   12   16     1    16    6.4370E+05 -4.6973E+04   6.9068E+05  0.000E+00  0.000E+00  0.000E+00  4.15540E+01  4.517E-01  2.000E+01  2.000E+04 -2.349E+00
   1   12   17     1    17    6.9068E+05 -3.6680E+04   7.2736E+05  0.000E+00  0.000E+00  0.000E+00  4.10935E+01  4.685E-01  2.000E+01  2.000E+04 -1.834E+00
   1   12   18     1    18    7.2736E+05 -3.4729E+04   7.6209E+05  0.000E+00  0.000E+00  0.000E+00  4.06303E+01  4.825E-01  2.000E+01  2.000E+04 -1.736E+00
   1   12   19     1    19    7.6209E+05 -3.8691E+04   8.0078E+05  0.000E+00  0.000E+00  0.000E+00  4.01671E+01  4.967E-01  2.000E+01  2.000E+04 -1.935E+00
   1   13   20     1    20    8.0078E+05 -2.9404E+04   8.3018E+05  0.000E+00  0.000E+00  0.000E+00  3.97027E+01  5.095E-01  2.000E+01  2.000E+04 -1.470E+00
   1   14   21     1    21    8.3018E+05 -2.2082E+04   8.5226E+05  0.000E+00  0.000E+00  0.000E+00  3.92350E+01  5.191E-01  2.000E+01  2.000E+04 -1.104E+00
   1   14   22     1    22    8.5226E+05 -2.5529E+03   8.5482E+05  0.000E+00  0.000E+00  0.000E+00  3.87623E+01  5.237E-01  2.000E+01  2.000E+04 -1.276E-01
   1    9   30     2     1    5.0000E+04 -2.8154E+04   7.8154E+04  0.000E+00  0.000E+00  0.000E+00  4.02595E+01  1.345E-01  2.000E+01  2.000E+04 -1.408E+00
   1    9   29     2     2    7.8154E+04 -3.0559E+04   1.0871E+05  0.000E+00  0.000E+00  0.000E+00  4.00436E+01  1.686E-01  2.000E+01  2.000E+04 -1.528E+00
   1    9   28     2     3    1.0871E+05 -3.4716E+04   1.4343E+05  0.000E+00  0.000E+00  0.000E+00  3.98268E+01  2.018E-01  2.000E+01  2.000E+04 -1.736E+00
   1    9   27     2     4    1.4343E+05 -4.8615E+04   1.9204E+05  0.000E+00  0.000E+00  0.000E+00  3.96145E+01  2.395E-01  2.000E+01  2.000E+04 -2.431E+00
   1   10   26     2     5    1.9204E+05 -3.5468E+04   2.2751E+05  0.000E+00  0.000E+00  0.000E+00  3.93989E+01  2.739E-01  2.000E+01  2.000E+04 -1.773E+00
   1   11   25     2     6    2.2751E+05 -2.7396E+04   2.5491E+05  0.000E+00  0.000E+00  0.000E+00  3.91729E+01  2.979E-01  2.000E+01  2.000E+04 -1.370E+00
   1   12   24     2     7    2.5491E+05 -2.0815E+04   2.7572E+05  0.000E+00  0.000E+00  0.000E+00  3.89404E+01  3.154E-01  2.000E+01  2.000E+04 -1.041E+00
   1   13   23     2     8    2.7572E+05 -1.5215E+04   2.9094E+05  0.000E+00  0.000E+00  0.000E+00  3.87031E+01  3.281E-01  2.000E+01  2.000E+04 -7.607E-01
   1   14   22     2     9    2.9094E+05 -8.5740E+03   2.9951E+05  0.000E+00  0.000E+00  0.000E+00  3.84613E+01  3.363E-01  2.000E+01  2.000E+04 -4.287E-01
   1   14   22     3     1    1.1543E+06 -1.6227E+04   1.1706E+06  0.000E+00  0.000E+00  0.000E+00  3.80786E+01  5.230E-01  2.000E+01  2.000E+04 -8.114E-01
   1   15   23     3     2    1.1706E+06 -2.5812E+04   1.1964E+06  0.000E+00  0.000E+00  0.000E+00  3.71953E+01  5.287E-01  2.000E+01  2.000E+04 -1.291E+00
   1   15   24     3     3    1.1964E+06 -2.1692E+04   1.2181E+06  0.000E+00  0.000E+00  0.000E+00  3.63128E+01  5.350E-01  2.000E+01  2.000E+04 -1.085E+00
   1   15   25     3     4    1.2181E+06 -2.1542E+04   1.2396E+06  0.000E+00  0.000E+00  0.000E+00  3.54296E+01  5.407E-01  2.000E+01  2.000E+04 -1.077E+00
   1   15   26     3     5    1.2396E+06 -2.5054E+04   1.2647E+06  0.000E+00  0.000E+00  0.000E+00  3.45469E+01  5.469E-01  2.000E+01  2.000E+04 -1.253E+00
   1   16   27     3     6    1.2647E+06 -3.2604E+04   1.2973E+06  0.000E+00  0.000E+00  0.000E+00  3.36655E+01  5.544E-01  2.000E+01  2.000E+04 -1.630E+00
   1   17   28     3     7    1.2973E+06 -3.9581E+04   1.3368E+06  0.000E+00  0.000E+00  0.000E+00  3.27859E+01  5.637E-01  2.000E+01  2.000E+04 -1.979E+00
   1   18   29     3     8    1.3368E+06 -5.0051E+04   1.3869E+06  0.000E+00  0.000E+00  0.000E+00  3.19085E+01  5.751E-01  2.000E+01  2.000E+04 -2.503E+00
   1   18   30     3     9    1.3869E+06 -4.6289E+04   1.4332E+06  0.000E+00  0.000E+00  0.000E+00  3.10317E+01  5.873E-01  2.000E+01  2.000E+04 -2.314E+00



1
              HEAD IN LAYER   1 AT END OF TIME STEP   1 IN STRESS PERIOD    1
  ---------------------------------------------------------------------------

          1      2      3      4      5      6      7      8      9     10
         11     12     13     14     15     16     17     18     19     20
         21     22     23     24     25     26     27     28     29     30
 .........................................................................
   1  ****** ****** ****** ****** ****** ****** ****** ****** ****** ******
      ****** ****** ****** ****** ****** ****** ****** ****** ****** ******
      ****** ****** ****** ****** ****** ****** ****** ****** ****** ******
   2  ****** ****** ****** ****** ****** ****** ****** ****** ****** ******
      ****** ****** ****** ****** ****** ****** ****** ****** ****** ******
      ****** ****** ****** ****** ****** ****** ****** ****** ****** ******
   3  ****** ****** ****** ****** ****** ****** ****** ****** ****** ******
      ****** ****** ****** ****** ****** ****** ****** ****** ****** ******
      ****** ****** ****** ****** ****** ****** ****** ****** ****** ******
   4  ****** ****** ****** ****** ****** ****** ****** ****** ****** ******
      ****** ****** ****** ****** ****** ****** ****** ****** ****** ******
      ****** ****** ****** ****** ****** ****** ****** ****** ****** ******
   5  ****** ****** ****** ****** ****** ****** ****** ****** ****** ******
      ****** ****** ****** ****** ****** ****** ****** ****** ****** ******
      ****** ****** ****** ****** ****** ****** ****** ****** ****** ******
   6  ****** ****** ****** ****** ****** ****** ****** ****** ****** ******
      ****** ****** ****** ****** ****** ****** ****** ****** ****** ******
      ****** ****** ****** ****** ****** ****** ****** ****** ****** ******
   7  ****** ****** ****** ****** ****** ****** ****** ****** ****** ******
      ****** ****** ****** ****** ****** ****** ****** ****** ****** ******
      ****** ****** ****** ****** ****** ****** ****** ****** ****** ******
   8  ****** ****** ****** ****** ****** ****** ****** ****** ****** ******
      ****** ****** ****** ****** ****** ****** ****** ****** ****** ******
      ****** ****** ****** ****** ****** ****** ****** ****** ****** ******
   9  ****** ****** ****** ****** ****** ****** ****** ****** ****** ******
      ****** ****** ****** ****** ****** ****** ****** ****** ****** ******
      ****** ****** ****** ****** ****** ****** ****** ****** ****** ******
  10  ****** ****** ****** ****** ****** ****** ****** ****** ****** ******
      ****** ****** ****** ****** ****** ****** ****** ****** ****** ******
      ****** ****** ****** ****** ****** ****** ****** ****** ****** ******
  11  ****** ****** ****** ****** ****** ****** ****** ****** ****** ******
      ****** ****** ****** ****** ****** ****** ****** ****** ****** ******
      ****** ****** ****** ****** ****** ****** ****** ****** ****** ******
  12  ****** ****** ****** ****** ****** ****** ****** ****** ****** ******
      ****** ****** ****** ****** ****** ****** ****** ****** ****** ******
      ****** ****** ****** ****** ****** ****** ****** ****** ****** ******
  13  ****** ****** ****** ****** ****** ****** ****** ****** ****** ******
      ****** ****** ****** ****** ****** ****** ****** ****** ****** ******
      ****** ****** ****** ****** ****** ****** ****** ****** ****** ******
  14  ****** ****** ****** ****** ****** ****** ****** ****** ****** ******
      ****** ****** ****** ****** ****** ****** ****** ****** ****** ******
      ****** ****** ****** ****** ****** ****** ****** ****** ****** ******
  15  ****** ****** ****** ****** ****** ****** ****** ****** ****** ******
      ****** ****** ****** ****** ****** ****** ****** ****** ****** ******
      ****** ****** ****** ****** ****** ****** ****** ****** ****** ******
  16  ****** ****** ****** ****** ****** ****** ****** ****** ****** ******
      ****** ****** ****** ****** ****** ****** ****** ****** ****** ******
      ****** ****** ****** ****** ****** ****** ****** ****** ****** ******
  17  ****** ****** ****** ****** ****** ****** ****** ****** ****** ******
      ****** ****** ****** ****** ****** ****** ****** ****** ****** ******
      ****** ****** ****** ****** ****** ****** ****** ****** ****** ******
  18  ****** ****** ****** ****** ****** ****** ****** ****** ****** ******
      ****** ****** ****** ****** ****** ****** ****** ****** ****** ******
      ****** ****** ****** ****** ****** ****** ****** ****** ****** ******
  19  ****** ****** ****** ****** ****** ****** ****** ****** ****** ******
      ****** ****** ****** ****** ****** ****** ****** ****** ****** ******
      ****** ****** ****** ****** ****** ****** ****** ****** ****** ******
  20  ****** ****** ****** ****** ****** ****** ****** ****** ****** ******
      ****** ****** ****** ****** ****** ****** ****** ****** ****** ******
      ****** ****** ****** ****** ****** ****** ****** ****** ****** ******
  21  ****** ****** ****** ****** ****** ****** ****** ****** ****** ******
      ****** ****** ****** ****** ****** ****** ****** ****** ****** ******
      ****** ****** ****** ****** ****** ****** ****** ****** ****** ******
  22  ****** ****** ****** ****** ****** ****** ****** ****** ****** ******
      ****** ****** ****** ****** ****** ****** ****** ****** ****** ******
      ****** ****** ****** ****** ****** ****** ****** ****** ****** ******
  23  ****** ****** ****** ****** ****** ****** ****** ****** ****** ******
      ****** ****** ****** ****** ****** ****** ****** ****** ****** ******
      ****** ****** ****** ****** ****** ****** ****** ****** ****** ******
  24  ****** ****** ****** ****** ****** ****** ****** ****** ****** ******
      ****** ****** ****** ****** ****** ****** ****** ****** ****** ******
      ****** ****** ****** ****** ****** ****** ****** ****** ****** ******
  25  ****** ****** ****** ****** ****** ****** ****** ****** ****** ******
      ****** ****** ****** ****** ****** ****** ****** ****** ****** ******
      ****** ****** ****** ****** ****** ****** ****** ****** ****** ******

 HEAD WILL BE SAVED ON UNIT   51 AT END OF TIME STEP    1, STRESS PERIOD    1
1
  VOLUMETRIC BUDGET FOR ENTIRE MODEL AT END OF TIME STEP    1, STRESS PERIOD   1
  ------------------------------------------------------------------------------

     CUMULATIVE VOLUMES      L**3       RATES FOR THIS TIME STEP      L**3/T
     ------------------                 ------------------------

           IN:                                      IN:
           ---                                      ---
             STORAGE =    19336727.2685               STORAGE =      210181.8181
       CONSTANT HEAD =   109406243.4236         CONSTANT HEAD =     1189198.2981
               WELLS =           0.0000                 WELLS =           0.0000
            RECHARGE =     1269600.0000              RECHARGE =       13800.0000
      STREAM LEAKAGE =           0.0000        STREAM LEAKAGE =           0.0000

            TOTAL IN =   130012570.6921              TOTAL IN =     1413180.1162

          OUT:                                     OUT:
          ----                                     ----
             STORAGE =           0.0000               STORAGE =           0.0000
       CONSTANT HEAD =           0.0000         CONSTANT HEAD =           0.0000
               WELLS =    11960000.0000                 WELLS =      130000.0000
            RECHARGE =           0.0000              RECHARGE =           0.0000
      STREAM LEAKAGE =   118052572.3486        STREAM LEAKAGE =     1283180.1342

           TOTAL OUT =   130012572.3486             TOTAL OUT =     1413180.1342

            IN - OUT =          -1.6565              IN - OUT =      -1.8005E-02

 PERCENT DISCREPANCY =          -0.00     PERCENT DISCREPANCY =          -0.00






         TIME SUMMARY AT END OF TIME STEP    1 IN STRESS PERIOD    1
                    SECONDS     MINUTES      HOURS       DAYS        YEARS
                    -----------------------------------------------------------
   TIME STEP LENGTH 7.94880E+06 1.32480E+05  2208.0      92.000     0.25188    
 STRESS PERIOD TIME 7.94880E+06 1.32480E+05  2208.0      92.000     0.25188    
         TOTAL TIME 7.94880E+06 1.32480E+05  2208.0      92.000     0.25188    
1
1
                            STRESS PERIOD NO.    2, LENGTH =   91.00000    
                            -----------------------------------------------

                              NUMBER OF TIME STEPS =     1

                               MULTIPLIER FOR DELT =     1.500

                            INITIAL TIME STEP SIZE =   91.00000    

 WELL NO.  LAYER   ROW   COL   STRESS RATE         
 --------------------------------------------------
      1      1     22     22     -0.3000E+05
      2      1      2     29       0.000    
      3      1      5     21     -0.5000E+05

      3 WELLS

                 RECHARGE =  2.000000E-03

 REUSING STREAM SEGMENT DATA FROM LAST STRESS PERIOD
 
 SOLVING FOR HEAD 


     6 CALLS TO PCG ROUTINE FOR TIME STEP   1 IN STRESS PERIOD    2
    24 TOTAL ITERATIONS

 OUTPUT CONTROL FOR STRESS PERIOD    2   TIME STEP    1
    SAVE BUDGET
    SAVE HEAD FOR ALL LAYERS
    PRINT HEAD FOR ALL LAYERS
 UBDSV2 SAVING "STREAMFLOW OUT  " ON UNIT  50 AT TIME STEP  1, STRESS PERIOD   2



 STREAM LISTING     PERIOD      2   STEP        1

 LAYER ROW COL. STREAM  RCH.  FLOW INTO     FLOW TO   FLOW OUT OF   OVRLND.     DIRECT     STREAM       STREAM     STREAM     STREAM   STREAMBED  STREAMBED
                SEG.NO.  NO.  STRM. RCH.    AQUIFER    STRM. RCH.    RUNOFF     PRECIP       ET          HEAD       DEPTH      WIDTH   CONDCTNC.   GRADIENT

   1   13    1     1     1    1.0000E+05 -2.8495E+04   1.2849E+05  0.000E+00  0.000E+00  0.000E+00  4.84181E+01  1.567E-01  2.000E+01  2.000E+04 -1.425E+00
   1   13    2     1     2    1.2849E+05 -3.8366E+04   1.6686E+05  0.000E+00  0.000E+00  0.000E+00  4.79669E+01  1.828E-01  2.000E+01  2.000E+04 -1.918E+00
   1   14    3     1     3    1.6686E+05 -3.3816E+04   2.0068E+05  0.000E+00  0.000E+00  0.000E+00  4.75152E+01  2.084E-01  2.000E+01  2.000E+04 -1.691E+00
   1   15    4     1     4    2.0068E+05 -3.3015E+04   2.3369E+05  0.000E+00  0.000E+00  0.000E+00  4.70599E+01  2.304E-01  2.000E+01  2.000E+04 -1.651E+00
   1   16    5     1     5    2.3369E+05 -3.4459E+04   2.6815E+05  0.000E+00  0.000E+00  0.000E+00  4.66035E+01  2.512E-01  2.000E+01  2.000E+04 -1.723E+00
   1   16    6     1     6    2.6815E+05 -3.0100E+04   2.9825E+05  0.000E+00  0.000E+00  0.000E+00  4.61451E+01  2.701E-01  2.000E+01  2.000E+04 -1.505E+00
   1   16    7     1     7    2.9825E+05 -2.9912E+04   3.2816E+05  0.000E+00  0.000E+00  0.000E+00  4.56847E+01  2.870E-01  2.000E+01  2.000E+04 -1.496E+00
   1   16    8     1     8    3.2816E+05 -3.0090E+04   3.5825E+05  0.000E+00  0.000E+00  0.000E+00  4.52236E+01  3.032E-01  2.000E+01  2.000E+04 -1.505E+00
   1   16    9     1     9    3.5825E+05 -3.0161E+04   3.8841E+05  0.000E+00  0.000E+00  0.000E+00  4.47620E+01  3.188E-01  2.000E+01  2.000E+04 -1.508E+00
   1   16   10     1    10    3.8841E+05 -3.0173E+04   4.1859E+05  0.000E+00  0.000E+00  0.000E+00  4.43000E+01  3.341E-01  2.000E+01  2.000E+04 -1.509E+00
   1   16   11     1    11    4.1859E+05 -3.0760E+04   4.4935E+05  0.000E+00  0.000E+00  0.000E+00  4.38376E+01  3.490E-01  2.000E+01  2.000E+04 -1.538E+00
   1   16   12     1    12    4.4935E+05 -3.6295E+04   4.8564E+05  0.000E+00  0.000E+00  0.000E+00  4.33763E+01  3.649E-01  2.000E+01  2.000E+04 -1.815E+00
   1   15   13     1    13    4.8564E+05 -3.5030E+04   5.2067E+05  0.000E+00  0.000E+00  0.000E+00  4.29155E+01  3.814E-01  2.000E+01  2.000E+04 -1.752E+00
   1   14   14     1    14    5.2067E+05 -3.5537E+04   5.5621E+05  0.000E+00  0.000E+00  0.000E+00  4.24540E+01  3.972E-01  2.000E+01  2.000E+04 -1.777E+00
   1   13   15     1    15    5.5621E+05 -3.7574E+04   5.9378E+05  0.000E+00  0.000E+00  0.000E+00  4.19927E+01  4.132E-01  2.000E+01  2.000E+04 -1.879E+00
   1   12   16     1    16    5.9378E+05 -4.3195E+04   6.3698E+05  0.000E+00  0.000E+00  0.000E+00  4.15326E+01  4.303E-01  2.000E+01  2.000E+04 -2.160E+00
   1   12   17     1    17    6.3698E+05 -3.3538E+04   6.7052E+05  0.000E+00  0.000E+00  0.000E+00  4.10712E+01  4.462E-01  2.000E+01  2.000E+04 -1.677E+00
   1   12   18     1    18    6.7052E+05 -3.1684E+04   7.0220E+05  0.000E+00  0.000E+00  0.000E+00  4.06072E+01  4.595E-01  2.000E+01  2.000E+04 -1.584E+00
   1   12   19     1    19    7.0220E+05 -3.5351E+04   7.3755E+05  0.000E+00  0.000E+00  0.000E+00  4.01433E+01  4.728E-01  2.000E+01  2.000E+04 -1.768E+00
   1   13   20     1    20    7.3755E+05 -2.6125E+04   7.6368E+05  0.000E+00  0.000E+00  0.000E+00  3.96780E+01  4.848E-01  2.000E+01  2.000E+04 -1.306E+00
   1   14   21     1    21    7.6368E+05 -1.9295E+04   7.8297E+05  0.000E+00  0.000E+00  0.000E+00  3.92095E+01  4.936E-01  2.000E+01  2.000E+04 -9.648E-01
   1   14   22     1    22    7.8297E+05 -1.5203E+03   7.8449E+05  0.000E+00  0.000E+00  0.000E+00  3.87362E+01  4.975E-01  2.000E+01  2.000E+04 -7.601E-02
   1    9   30     2     1    5.0000E+04 -2.6426E+04   7.6426E+04  0.000E+00  0.000E+00  0.000E+00  4.02584E+01  1.334E-01  2.000E+01  2.000E+04 -1.321E+00
   1    9   29     2     2    7.6426E+04 -2.8804E+04   1.0523E+05  0.000E+00  0.000E+00  0.000E+00  4.00408E+01  1.658E-01  2.000E+01  2.000E+04 -1.440E+00
   1    9   28     2     3    1.0523E+05 -3.2862E+04   1.3809E+05  0.000E+00  0.000E+00  0.000E+00  3.98225E+01  1.975E-01  2.000E+01  2.000E+04 -1.643E+00
   1    9   27     2     4    1.3809E+05 -4.6346E+04   1.8444E+05  0.000E+00  0.000E+00  0.000E+00  3.96089E+01  2.339E-01  2.000E+01  2.000E+04 -2.317E+00
   1   10   26     2     5    1.8444E+05 -3.2358E+04   2.1680E+05  0.000E+00  0.000E+00  0.000E+00  3.93917E+01  2.667E-01  2.000E+01  2.000E+04 -1.618E+00
   1   11   25     2     6    2.1680E+05 -2.4119E+04   2.4092E+05  0.000E+00  0.000E+00  0.000E+00  3.91636E+01  2.886E-01  2.000E+01  2.000E+04 -1.206E+00
   1   12   24     2     7    2.4092E+05 -1.7766E+04   2.5868E+05  0.000E+00  0.000E+00  0.000E+00  3.89292E+01  3.042E-01  2.000E+01  2.000E+04 -8.883E-01
   1   13   23     2     8    2.5868E+05 -1.2700E+04   2.7138E+05  0.000E+00  0.000E+00  0.000E+00  3.86902E+01  3.152E-01  2.000E+01  2.000E+04 -6.350E-01
   1   14   22     2     9    2.7138E+05 -7.2986E+03   2.7868E+05  0.000E+00  0.000E+00  0.000E+00  3.84473E+01  3.223E-01  2.000E+01  2.000E+04 -3.649E-01
   1   14   22     3     1    1.0632E+06 -1.5175E+04   1.0783E+06  0.000E+00  0.000E+00  0.000E+00  3.80534E+01  4.979E-01  2.000E+01  2.000E+04 -7.588E-01
   1   15   23     3     2    1.0783E+06 -2.3234E+04   1.1016E+06  0.000E+00  0.000E+00  0.000E+00  3.71699E+01  5.032E-01  2.000E+01  2.000E+04 -1.162E+00
   1   15   24     3     3    1.1016E+06 -1.9426E+04   1.1210E+06  0.000E+00  0.000E+00  0.000E+00  3.62869E+01  5.091E-01  2.000E+01  2.000E+04 -9.713E-01
   1   15   25     3     4    1.1210E+06 -1.9152E+04   1.1402E+06  0.000E+00  0.000E+00  0.000E+00  3.54033E+01  5.144E-01  2.000E+01  2.000E+04 -9.576E-01
   1   15   26     3     5    1.1402E+06 -2.2073E+04   1.1622E+06  0.000E+00  0.000E+00  0.000E+00  3.45200E+01  5.200E-01  2.000E+01  2.000E+04 -1.104E+00
   1   16   27     3     6    1.1622E+06 -2.9159E+04   1.1914E+06  0.000E+00  0.000E+00  0.000E+00  3.36380E+01  5.269E-01  2.000E+01  2.000E+04 -1.458E+00
   1   17   28     3     7    1.1914E+06 -3.6191E+04   1.2276E+06  0.000E+00  0.000E+00  0.000E+00  3.27578E+01  5.356E-01  2.000E+01  2.000E+04 -1.810E+00
   1   18   29     3     8    1.2276E+06 -4.7157E+04   1.2747E+06  0.000E+00  0.000E+00  0.000E+00  3.18800E+01  5.466E-01  2.000E+01  2.000E+04 -2.358E+00
   1   18   30     3     9    1.2747E+06 -4.3741E+04   1.3185E+06  0.000E+00  0.000E+00  0.000E+00  3.10029E+01  5.585E-01  2.000E+01  2.000E+04 -2.187E+00



1
              HEAD IN LAYER   1 AT END OF TIME STEP   1 IN STRESS PERIOD    2
  ---------------------------------------------------------------------------

          1      2      3      4      5      6      7      8      9     10
         11     12     13     14     15     16     17     18     19     20
         21     22     23     24     25     26     27     28     29     30
 .........................................................................
   1  ****** ****** ****** ****** ****** ****** ****** ****** ****** ******
      ****** ****** ****** ****** ****** ****** ****** ****** ****** ******
      ****** ****** ****** ****** ****** ****** ****** ****** ****** ******
   2  ****** ****** ****** ****** ****** ****** ****** ****** ****** ******
      ****** ****** ****** ****** ****** ****** ****** ****** ****** ******
      ****** ****** ****** ****** ****** ****** ****** ****** ****** ******
   3  ****** ****** ****** ****** ****** ****** ****** ****** ****** ******
      ****** ****** ****** ****** ****** ****** ****** ****** ****** ******
      ****** ****** ****** ****** ****** ****** ****** ****** ****** ******
   4  ****** ****** ****** ****** ****** ****** ****** ****** ****** ******
      ****** ****** ****** ****** ****** ****** ****** ****** ****** ******
      ****** ****** ****** ****** ****** ****** ****** ****** ****** ******
   5  ****** ****** ****** ****** ****** ****** ****** ****** ****** ******
      ****** ****** ****** ****** ****** ****** ****** ****** ****** ******
      ****** ****** ****** ****** ****** ****** ****** ****** ****** ******
   6  ****** ****** ****** ****** ****** ****** ****** ****** ****** ******
      ****** ****** ****** ****** ****** ****** ****** ****** ****** ******
      ****** ****** ****** ****** ****** ****** ****** ****** ****** ******
   7  ****** ****** ****** ****** ****** ****** ****** ****** ****** ******
      ****** ****** ****** ****** ****** ****** ****** ****** ****** ******
      ****** ****** ****** ****** ****** ****** ****** ****** ****** ******
   8  ****** ****** ****** ****** ****** ****** ****** ****** ****** ******
      ****** ****** ****** ****** ****** ****** ****** ****** ****** ******
      ****** ****** ****** ****** ****** ****** ****** ****** ****** ******
   9  ****** ****** ****** ****** ****** ****** ****** ****** ****** ******
      ****** ****** ****** ****** ****** ****** ****** ****** ****** ******
      ****** ****** ****** ****** ****** ****** ****** ****** ****** ******
  10  ****** ****** ****** ****** ****** ****** ****** ****** ****** ******
      ****** ****** ****** ****** ****** ****** ****** ****** ****** ******
      ****** ****** ****** ****** ****** ****** ****** ****** ****** ******
  11  ****** ****** ****** ****** ****** ****** ****** ****** ****** ******
      ****** ****** ****** ****** ****** ****** ****** ****** ****** ******
      ****** ****** ****** ****** ****** ****** ****** ****** ****** ******
  12  ****** ****** ****** ****** ****** ****** ****** ****** ****** ******
      ****** ****** ****** ****** ****** ****** ****** ****** ****** ******
      ****** ****** ****** ****** ****** ****** ****** ****** ****** ******
  13  ****** ****** ****** ****** ****** ****** ****** ****** ****** ******
      ****** ****** ****** ****** ****** ****** ****** ****** ****** ******
      ****** ****** ****** ****** ****** ****** ****** ****** ****** ******
  14  ****** ****** ****** ****** ****** ****** ****** ****** ****** ******
      ****** ****** ****** ****** ****** ****** ****** ****** ****** ******
      ****** ****** ****** ****** ****** ****** ****** ****** ****** ******
  15  ****** ****** ****** ****** ****** ****** ****** ****** ****** ******
      ****** ****** ****** ****** ****** ****** ****** ****** ****** ******
      ****** ****** ****** ****** ****** ****** ****** ****** ****** ******
  16  ****** ****** ****** ****** ****** ****** ****** ****** ****** ******
      ****** ****** ****** ****** ****** ****** ****** ****** ****** ******
      ****** ****** ****** ****** ****** ****** ****** ****** ****** ******
  17  ****** ****** ****** ****** ****** ****** ****** ****** ****** ******
      ****** ****** ****** ****** ****** ****** ****** ****** ****** ******
      ****** ****** ****** ****** ****** ****** ****** ****** ****** ******
  18  ****** ****** ****** ****** ****** ****** ****** ****** ****** ******
      ****** ****** ****** ****** ****** ****** ****** ****** ****** ******
      ****** ****** ****** ****** ****** ****** ****** ****** ****** ******
  19  ****** ****** ****** ****** ****** ****** ****** ****** ****** ******
      ****** ****** ****** ****** ****** ****** ****** ****** ****** ******
      ****** ****** ****** ****** ****** ****** ****** ****** ****** ******
  20  ****** ****** ****** ****** ****** ****** ****** ****** ****** ******
      ****** ****** ****** ****** ****** ****** ****** ****** ****** ******
      ****** ****** ****** ****** ****** ****** ****** ****** ****** ******
  21  ****** ****** ****** ****** ****** ****** ****** ****** ****** ******
      ****** ****** ****** ****** ****** ****** ****** ****** ****** ******
      ****** ****** ****** ****** ****** ****** ****** ****** ****** ******
  22  ****** ****** ****** ****** ****** ****** ****** ****** ****** ******
      ****** ****** ****** ****** ****** ****** ****** ****** ****** ******
      ****** ****** ****** ****** ****** ****** ****** ****** ****** ******
  23  ****** ****** ****** ****** ****** ****** ****** ****** ****** ******
      ****** ****** ****** ****** ****** ****** ****** ****** ****** ******
      ****** ****** ****** ****** ****** ****** ****** ****** ****** ******
  24  ****** ****** ****** ****** ****** ****** ****** ****** ****** ******
      ****** ****** ****** ****** ****** ****** ****** ****** ****** ******
      ****** ****** ****** ****** ****** ****** ****** ****** ****** ******
  25  ****** ****** ****** ****** ****** ****** ****** ****** ****** ******
      ****** ****** ****** ****** ****** ****** ****** ****** ****** ******
      ****** ****** ****** ****** ****** ****** ****** ****** ****** ******

 HEAD WILL BE SAVED ON UNIT   51 AT END OF TIME STEP    1, STRESS PERIOD    2
1
  VOLUMETRIC BUDGET FOR ENTIRE MODEL AT END OF TIME STEP    1, STRESS PERIOD   2
  ------------------------------------------------------------------------------

     CUMULATIVE VOLUMES      L**3       RATES FOR THIS TIME STEP      L**3/T
     ------------------                 ------------------------

           IN:                                      IN:
           ---                                      ---
             STORAGE =    19981547.9201               STORAGE =        7085.9412
       CONSTANT HEAD =   217387272.9109         CONSTANT HEAD =     1186604.7196
               WELLS =           0.0000                 WELLS =           0.0000
            RECHARGE =     6292800.0000              RECHARGE =       55200.0000
      STREAM LEAKAGE =           0.0000        STREAM LEAKAGE =           0.0000

            TOTAL IN =   243661620.8310              TOTAL IN =     1248890.6609

          OUT:                                     OUT:
          ----                                     ----
             STORAGE =       37239.4391               STORAGE =         409.2246
       CONSTANT HEAD =           0.0000         CONSTANT HEAD =           0.0000
               WELLS =    19240000.0000                 WELLS =       80000.0000
            RECHARGE =           0.0000              RECHARGE =           0.0000
      STREAM LEAKAGE =   224384388.4704        STREAM LEAKAGE =     1168481.4958

           TOTAL OUT =   243661627.9095             TOTAL OUT =     1248890.7204

            IN - OUT =          -7.0785              IN - OUT =      -5.9582E-02

 PERCENT DISCREPANCY =          -0.00     PERCENT DISCREPANCY =          -0.00






         TIME SUMMARY AT END OF TIME STEP    1 IN STRESS PERIOD    2
                    SECONDS     MINUTES      HOURS       DAYS        YEARS
                    -----------------------------------------------------------
   TIME STEP LENGTH 7.86240E+06 1.31040E+05  2184.0      91.000     0.24914    
 STRESS PERIOD TIME 7.86240E+06 1.31040E+05  2184.0      91.000     0.24914    
         TOTAL TIME 1.58112E+07 2.63520E+05  4392.0      183.00     0.50103    
1
1
                            STRESS PERIOD NO.    3, LENGTH =   91.00000    
                            -----------------------------------------------

                              NUMBER OF TIME STEPS =     1

                               MULTIPLIER FOR DELT =     1.500

                            INITIAL TIME STEP SIZE =   91.00000    

 WELL NO.  LAYER   ROW   COL   STRESS RATE         
 --------------------------------------------------
      1      1     22     22     -0.3000E+05
      2      1      2     29     -0.5000E+05
      3      1      5     21     -0.5500E+05

      3 WELLS

                 RECHARGE =   0.00000    

 REUSING STREAM SEGMENT DATA FROM LAST STRESS PERIOD
 
 SOLVING FOR HEAD 


     6 CALLS TO PCG ROUTINE FOR TIME STEP   1 IN STRESS PERIOD    3
    23 TOTAL ITERATIONS

 OUTPUT CONTROL FOR STRESS PERIOD    3   TIME STEP    1
    SAVE BUDGET
    SAVE HEAD FOR ALL LAYERS
    PRINT HEAD FOR ALL LAYERS
 UBDSV2 SAVING "STREAMFLOW OUT  " ON UNIT  50 AT TIME STEP  1, STRESS PERIOD   3



 STREAM LISTING     PERIOD      3   STEP        1

 LAYER ROW COL. STREAM  RCH.  FLOW INTO     FLOW TO   FLOW OUT OF   OVRLND.     DIRECT     STREAM       STREAM     STREAM     STREAM   STREAMBED  STREAMBED
                SEG.NO.  NO.  STRM. RCH.    AQUIFER    STRM. RCH.    RUNOFF     PRECIP       ET          HEAD       DEPTH      WIDTH   CONDCTNC.   GRADIENT

   1   13    1     1     1    1.0000E+05 -2.7456E+04   1.2746E+05  0.000E+00  0.000E+00  0.000E+00  4.84176E+01  1.563E-01  2.000E+01  2.000E+04 -1.373E+00
   1   13    2     1     2    1.2746E+05 -3.7115E+04   1.6457E+05  0.000E+00  0.000E+00  0.000E+00  4.79656E+01  1.815E-01  2.000E+01  2.000E+04 -1.856E+00
   1   14    3     1     3    1.6457E+05 -3.2607E+04   1.9718E+05  0.000E+00  0.000E+00  0.000E+00  4.75132E+01  2.064E-01  2.000E+01  2.000E+04 -1.630E+00
   1   15    4     1     4    1.9718E+05 -3.1865E+04   2.2904E+05  0.000E+00  0.000E+00  0.000E+00  4.70573E+01  2.278E-01  2.000E+01  2.000E+04 -1.593E+00
   1   16    5     1     5    2.2904E+05 -3.3436E+04   2.6248E+05  0.000E+00  0.000E+00  0.000E+00  4.66004E+01  2.481E-01  2.000E+01  2.000E+04 -1.672E+00
   1   16    6     1     6    2.6248E+05 -2.9204E+04   2.9168E+05  0.000E+00  0.000E+00  0.000E+00  4.61416E+01  2.666E-01  2.000E+01  2.000E+04 -1.460E+00
   1   16    7     1     7    2.9168E+05 -2.9021E+04   3.2070E+05  0.000E+00  0.000E+00  0.000E+00  4.56808E+01  2.831E-01  2.000E+01  2.000E+04 -1.451E+00
   1   16    8     1     8    3.2070E+05 -2.9194E+04   3.4990E+05  0.000E+00  0.000E+00  0.000E+00  4.52194E+01  2.989E-01  2.000E+01  2.000E+04 -1.460E+00
   1   16    9     1     9    3.4990E+05 -2.9264E+04   3.7916E+05  0.000E+00  0.000E+00  0.000E+00  4.47575E+01  3.143E-01  2.000E+01  2.000E+04 -1.463E+00
   1   16   10     1    10    3.7916E+05 -2.9278E+04   4.0844E+05  0.000E+00  0.000E+00  0.000E+00  4.42951E+01  3.292E-01  2.000E+01  2.000E+04 -1.464E+00
   1   16   11     1    11    4.0844E+05 -2.9853E+04   4.3829E+05  0.000E+00  0.000E+00  0.000E+00  4.38325E+01  3.438E-01  2.000E+01  2.000E+04 -1.493E+00
   1   16   12     1    12    4.3829E+05 -3.5240E+04   4.7353E+05  0.000E+00  0.000E+00  0.000E+00  4.33708E+01  3.595E-01  2.000E+01  2.000E+04 -1.762E+00
   1   15   13     1    13    4.7353E+05 -3.3842E+04   5.0737E+05  0.000E+00  0.000E+00  0.000E+00  4.29097E+01  3.756E-01  2.000E+01  2.000E+04 -1.692E+00
   1   14   14     1    14    5.0737E+05 -3.4287E+04   5.4166E+05  0.000E+00  0.000E+00  0.000E+00  4.24478E+01  3.910E-01  2.000E+01  2.000E+04 -1.714E+00
   1   13   15     1    15    5.4166E+05 -3.6303E+04   5.7796E+05  0.000E+00  0.000E+00  0.000E+00  4.19861E+01  4.066E-01  2.000E+01  2.000E+04 -1.815E+00
   1   12   16     1    16    5.7796E+05 -4.1900E+04   6.1986E+05  0.000E+00  0.000E+00  0.000E+00  4.15257E+01  4.234E-01  2.000E+01  2.000E+04 -2.095E+00
   1   12   17     1    17    6.1986E+05 -3.2475E+04   6.5234E+05  0.000E+00  0.000E+00  0.000E+00  4.10640E+01  4.390E-01  2.000E+01  2.000E+04 -1.624E+00
   1   12   18     1    18    6.5234E+05 -3.0638E+04   6.8298E+05  0.000E+00  0.000E+00  0.000E+00  4.05996E+01  4.519E-01  2.000E+01  2.000E+04 -1.532E+00
   1   12   19     1    19    6.8298E+05 -3.4151E+04   7.1713E+05  0.000E+00  0.000E+00  0.000E+00  4.01354E+01  4.649E-01  2.000E+01  2.000E+04 -1.708E+00
   1   13   20     1    20    7.1713E+05 -2.5086E+04   7.4221E+05  0.000E+00  0.000E+00  0.000E+00  3.96698E+01  4.767E-01  2.000E+01  2.000E+04 -1.254E+00
   1   14   21     1    21    7.4221E+05 -1.8461E+04   7.6067E+05  0.000E+00  0.000E+00  0.000E+00  3.92010E+01  4.851E-01  2.000E+01  2.000E+04 -9.231E-01
   1   14   22     1    22    7.6067E+05 -1.1969E+03   7.6187E+05  0.000E+00  0.000E+00  0.000E+00  3.87276E+01  4.889E-01  2.000E+01  2.000E+04 -5.985E-02
   1    9   30     2     1    5.0000E+04 -2.4738E+04   7.4738E+04  0.000E+00  0.000E+00  0.000E+00  4.02573E+01  1.323E-01  2.000E+01  2.000E+04 -1.237E+00
   1    9   29     2     2    7.4738E+04 -2.7158E+04   1.0190E+05  0.000E+00  0.000E+00  0.000E+00  4.00380E+01  1.630E-01  2.000E+01  2.000E+04 -1.358E+00
   1    9   28     2     3    1.0190E+05 -3.1236E+04   1.3313E+05  0.000E+00  0.000E+00  0.000E+00  3.98185E+01  1.935E-01  2.000E+01  2.000E+04 -1.562E+00
   1    9   27     2     4    1.3313E+05 -4.4467E+04   1.7760E+05  0.000E+00  0.000E+00  0.000E+00  3.96038E+01  2.288E-01  2.000E+01  2.000E+04 -2.223E+00
   1   10   26     2     5    1.7760E+05 -3.0875E+04   2.0847E+05  0.000E+00  0.000E+00  0.000E+00  3.93856E+01  2.606E-01  2.000E+01  2.000E+04 -1.544E+00
   1   11   25     2     6    2.0847E+05 -2.2876E+04   2.3135E+05  0.000E+00  0.000E+00  0.000E+00  3.91568E+01  2.818E-01  2.000E+01  2.000E+04 -1.144E+00
   1   12   24     2     7    2.3135E+05 -1.6752E+04   2.4810E+05  0.000E+00  0.000E+00  0.000E+00  3.89218E+01  2.968E-01  2.000E+01  2.000E+04 -8.376E-01
   1   13   23     2     8    2.4810E+05 -1.1945E+04   2.6005E+05  0.000E+00  0.000E+00  0.000E+00  3.86823E+01  3.073E-01  2.000E+01  2.000E+04 -5.972E-01
   1   14   22     2     9    2.6005E+05 -6.9662E+03   2.6701E+05  0.000E+00  0.000E+00  0.000E+00  3.84391E+01  3.141E-01  2.000E+01  2.000E+04 -3.483E-01
   1   14   22     3     1    1.0289E+06 -1.4873E+04   1.0438E+06  0.000E+00  0.000E+00  0.000E+00  3.80438E+01  4.882E-01  2.000E+01  2.000E+04 -7.437E-01
   1   15   23     3     2    1.0438E+06 -2.2512E+04   1.0663E+06  0.000E+00  0.000E+00  0.000E+00  3.71601E+01  4.935E-01  2.000E+01  2.000E+04 -1.126E+00
   1   15   24     3     3    1.0663E+06 -1.8828E+04   1.0851E+06  0.000E+00  0.000E+00  0.000E+00  3.62770E+01  4.992E-01  2.000E+01  2.000E+04 -9.414E-01
   1   15   25     3     4    1.0851E+06 -1.8554E+04   1.1037E+06  0.000E+00  0.000E+00  0.000E+00  3.53933E+01  5.044E-01  2.000E+01  2.000E+04 -9.277E-01
   1   15   26     3     5    1.1037E+06 -2.1367E+04   1.1250E+06  0.000E+00  0.000E+00  0.000E+00  3.45099E+01  5.099E-01  2.000E+01  2.000E+04 -1.068E+00
   1   16   27     3     6    1.1250E+06 -2.8323E+04   1.1533E+06  0.000E+00  0.000E+00  0.000E+00  3.36278E+01  5.167E-01  2.000E+01  2.000E+04 -1.416E+00
   1   17   28     3     7    1.1533E+06 -3.5347E+04   1.1887E+06  0.000E+00  0.000E+00  0.000E+00  3.27476E+01  5.253E-01  2.000E+01  2.000E+04 -1.767E+00
   1   18   29     3     8    1.1887E+06 -4.6379E+04   1.2351E+06  0.000E+00  0.000E+00  0.000E+00  3.18696E+01  5.363E-01  2.000E+01  2.000E+04 -2.319E+00
   1   18   30     3     9    1.2351E+06 -4.3092E+04   1.2782E+06  0.000E+00  0.000E+00  0.000E+00  3.09925E+01  5.481E-01  2.000E+01  2.000E+04 -2.155E+00



1
              HEAD IN LAYER   1 AT END OF TIME STEP   1 IN STRESS PERIOD    3
  ---------------------------------------------------------------------------

          1      2      3      4      5      6      7      8      9     10
         11     12     13     14     15     16     17     18     19     20
         21     22     23     24     25     26     27     28     29     30
 .........................................................................
   1  ****** ****** ****** ****** ****** ****** ****** ****** ****** ******
      ****** ****** ****** ****** ****** ****** ****** ****** ****** ******
      ****** ****** ****** ****** ****** ****** ****** ****** ****** ******
   2  ****** ****** ****** ****** ****** ****** ****** ****** ****** ******
      ****** ****** ****** ****** ****** ****** ****** ****** ****** ******
      ****** ****** ****** ****** ****** ****** ****** ****** ****** ******
   3  ****** ****** ****** ****** ****** ****** ****** ****** ****** ******
      ****** ****** ****** ****** ****** ****** ****** ****** ****** ******
      ****** ****** ****** ****** ****** ****** ****** ****** ****** ******
   4  ****** ****** ****** ****** ****** ****** ****** ****** ****** ******
      ****** ****** ****** ****** ****** ****** ****** ****** ****** ******
      ****** ****** ****** ****** ****** ****** ****** ****** ****** ******
   5  ****** ****** ****** ****** ****** ****** ****** ****** ****** ******
      ****** ****** ****** ****** ****** ****** ****** ****** ****** ******
      ****** ****** ****** ****** ****** ****** ****** ****** ****** ******
   6  ****** ****** ****** ****** ****** ****** ****** ****** ****** ******
      ****** ****** ****** ****** ****** ****** ****** ****** ****** ******
      ****** ****** ****** ****** ****** ****** ****** ****** ****** ******
   7  ****** ****** ****** ****** ****** ****** ****** ****** ****** ******
      ****** ****** ****** ****** ****** ****** ****** ****** ****** ******
      ****** ****** ****** ****** ****** ****** ****** ****** ****** ******
   8  ****** ****** ****** ****** ****** ****** ****** ****** ****** ******
      ****** ****** ****** ****** ****** ****** ****** ****** ****** ******
      ****** ****** ****** ****** ****** ****** ****** ****** ****** ******
   9  ****** ****** ****** ****** ****** ****** ****** ****** ****** ******
      ****** ****** ****** ****** ****** ****** ****** ****** ****** ******
      ****** ****** ****** ****** ****** ****** ****** ****** ****** ******
  10  ****** ****** ****** ****** ****** ****** ****** ****** ****** ******
      ****** ****** ****** ****** ****** ****** ****** ****** ****** ******
      ****** ****** ****** ****** ****** ****** ****** ****** ****** ******
  11  ****** ****** ****** ****** ****** ****** ****** ****** ****** ******
      ****** ****** ****** ****** ****** ****** ****** ****** ****** ******
      ****** ****** ****** ****** ****** ****** ****** ****** ****** ******
  12  ****** ****** ****** ****** ****** ****** ****** ****** ****** ******
      ****** ****** ****** ****** ****** ****** ****** ****** ****** ******
      ****** ****** ****** ****** ****** ****** ****** ****** ****** ******
  13  ****** ****** ****** ****** ****** ****** ****** ****** ****** ******
      ****** ****** ****** ****** ****** ****** ****** ****** ****** ******
      ****** ****** ****** ****** ****** ****** ****** ****** ****** ******
  14  ****** ****** ****** ****** ****** ****** ****** ****** ****** ******
      ****** ****** ****** ****** ****** ****** ****** ****** ****** ******
      ****** ****** ****** ****** ****** ****** ****** ****** ****** ******
  15  ****** ****** ****** ****** ****** ****** ****** ****** ****** ******
      ****** ****** ****** ****** ****** ****** ****** ****** ****** ******
      ****** ****** ****** ****** ****** ****** ****** ****** ****** ******
  16  ****** ****** ****** ****** ****** ****** ****** ****** ****** ******
      ****** ****** ****** ****** ****** ****** ****** ****** ****** ******
      ****** ****** ****** ****** ****** ****** ****** ****** ****** ******
  17  ****** ****** ****** ****** ****** ****** ****** ****** ****** ******
      ****** ****** ****** ****** ****** ****** ****** ****** ****** ******
      ****** ****** ****** ****** ****** ****** ****** ****** ****** ******
  18  ****** ****** ****** ****** ****** ****** ****** ****** ****** ******
      ****** ****** ****** ****** ****** ****** ****** ****** ****** ******
      ****** ****** ****** ****** ****** ****** ****** ****** ****** ******
  19  ****** ****** ****** ****** ****** ****** ****** ****** ****** ******
      ****** ****** ****** ****** ****** ****** ****** ****** ****** ******
      ****** ****** ****** ****** ****** ****** ****** ****** ****** ******
  20  ****** ****** ****** ****** ****** ****** ****** ****** ****** ******
      ****** ****** ****** ****** ****** ****** ****** ****** ****** ******
      ****** ****** ****** ****** ****** ****** ****** ****** ****** ******
  21  ****** ****** ****** ****** ****** ****** ****** ****** ****** ******
      ****** ****** ****** ****** ****** ****** ****** ****** ****** ******
      ****** ****** ****** ****** ****** ****** ****** ****** ****** ******
  22  ****** ****** ****** ****** ****** ****** ****** ****** ****** ******
      ****** ****** ****** ****** ****** ****** ****** ****** ****** ******
      ****** ****** ****** ****** ****** ****** ****** ****** ****** ******
  23  ****** ****** ****** ****** ****** ****** ****** ****** ****** ******
      ****** ****** ****** ****** ****** ****** ****** ****** ****** ******
      ****** ****** ****** ****** ****** ****** ****** ****** ****** ******
  24  ****** ****** ****** ****** ****** ****** ****** ****** ****** ******
      ****** ****** ****** ****** ****** ****** ****** ****** ****** ******
      ****** ****** ****** ****** ****** ****** ****** ****** ****** ******
  25  ****** ****** ****** ****** ****** ****** ****** ****** ****** ******
      ****** ****** ****** ****** ****** ****** ****** ****** ****** ******
      ****** ****** ****** ****** ****** ****** ****** ****** ****** ******

 HEAD WILL BE SAVED ON UNIT   51 AT END OF TIME STEP    1, STRESS PERIOD    3
1
  VOLUMETRIC BUDGET FOR ENTIRE MODEL AT END OF TIME STEP    1, STRESS PERIOD   3
  ------------------------------------------------------------------------------

     CUMULATIVE VOLUMES      L**3       RATES FOR THIS TIME STEP      L**3/T
     ------------------                 ------------------------

           IN:                                      IN:
           ---                                      ---
             STORAGE =    20364294.4120               STORAGE =        4206.0054
       CONSTANT HEAD =   331952096.1077         CONSTANT HEAD =     1258954.1011
               WELLS =           0.0000                 WELLS =           0.0000
            RECHARGE =     6292800.0000              RECHARGE =           0.0000
      STREAM LEAKAGE =           0.0000        STREAM LEAKAGE =           0.0000

            TOTAL IN =   358609190.5197              TOTAL IN =     1263160.1065

          OUT:                                     OUT:
          ----                                     ----
             STORAGE =       37239.4391               STORAGE =           0.0000
       CONSTANT HEAD =           0.0000         CONSTANT HEAD =           0.0000
               WELLS =    31525045.5000                 WELLS =      135000.5000
            RECHARGE =           0.0000              RECHARGE =           0.0000
      STREAM LEAKAGE =   327046916.9070        STREAM LEAKAGE =     1128159.6531

           TOTAL OUT =   358609201.8461             TOTAL OUT =     1263160.1531

            IN - OUT =         -11.3264              IN - OUT =      -4.6681E-02

 PERCENT DISCREPANCY =          -0.00     PERCENT DISCREPANCY =          -0.00






         TIME SUMMARY AT END OF TIME STEP    1 IN STRESS PERIOD    3
                    SECONDS     MINUTES      HOURS       DAYS        YEARS
                    -----------------------------------------------------------
   TIME STEP LENGTH 7.86240E+06 1.31040E+05  2184.0      91.000     0.24914    
 STRESS PERIOD TIME 7.86240E+06 1.31040E+05  2184.0      91.000     0.24914    
         TOTAL TIME 2.36736E+07 3.94560E+05  6576.0      274.00     0.75017    
1
1
                            STRESS PERIOD NO.    4, LENGTH =   91.00000    
                            -----------------------------------------------

                              NUMBER OF TIME STEPS =     1

                               MULTIPLIER FOR DELT =     1.500

                            INITIAL TIME STEP SIZE =   91.00000    

 WELL NO.  LAYER   ROW   COL   STRESS RATE         
 --------------------------------------------------
      1      1     22     22     -0.3000E+05
      2      1      2     29       0.000    
      3      1      5     21     -0.5500E+05

      3 WELLS

                 RECHARGE =  1.000000E-03

 REUSING STREAM SEGMENT DATA FROM LAST STRESS PERIOD
 
 SOLVING FOR HEAD 


     6 CALLS TO PCG ROUTINE FOR TIME STEP   1 IN STRESS PERIOD    4
    22 TOTAL ITERATIONS

 OUTPUT CONTROL FOR STRESS PERIOD    4   TIME STEP    1
    SAVE BUDGET
    SAVE HEAD FOR ALL LAYERS
    PRINT HEAD FOR ALL LAYERS
 UBDSV2 SAVING "STREAMFLOW OUT  " ON UNIT  50 AT TIME STEP  1, STRESS PERIOD   4



 STREAM LISTING     PERIOD      4   STEP        1

 LAYER ROW COL. STREAM  RCH.  FLOW INTO     FLOW TO   FLOW OUT OF   OVRLND.     DIRECT     STREAM       STREAM     STREAM     STREAM   STREAMBED  STREAMBED
                SEG.NO.  NO.  STRM. RCH.    AQUIFER    STRM. RCH.    RUNOFF     PRECIP       ET          HEAD       DEPTH      WIDTH   CONDCTNC.   GRADIENT

   1   13    1     1     1    1.0000E+05 -2.7836E+04   1.2784E+05  0.000E+00  0.000E+00  0.000E+00  4.84178E+01  1.564E-01  2.000E+01  2.000E+04 -1.392E+00
   1   13    2     1     2    1.2784E+05 -3.7566E+04   1.6540E+05  0.000E+00  0.000E+00  0.000E+00  4.79661E+01  1.820E-01  2.000E+01  2.000E+04 -1.878E+00
   1   14    3     1     3    1.6540E+05 -3.3056E+04   1.9846E+05  0.000E+00  0.000E+00  0.000E+00  4.75140E+01  2.071E-01  2.000E+01  2.000E+04 -1.653E+00
   1   15    4     1     4    1.9846E+05 -3.2301E+04   2.3076E+05  0.000E+00  0.000E+00  0.000E+00  4.70583E+01  2.287E-01  2.000E+01  2.000E+04 -1.615E+00
   1   16    5     1     5    2.3076E+05 -3.3833E+04   2.6459E+05  0.000E+00  0.000E+00  0.000E+00  4.66015E+01  2.493E-01  2.000E+01  2.000E+04 -1.692E+00
   1   16    6     1     6    2.6459E+05 -2.9549E+04   2.9414E+05  0.000E+00  0.000E+00  0.000E+00  4.61429E+01  2.679E-01  2.000E+01  2.000E+04 -1.477E+00
   1   16    7     1     7    2.9414E+05 -2.9361E+04   3.2350E+05  0.000E+00  0.000E+00  0.000E+00  4.56823E+01  2.845E-01  2.000E+01  2.000E+04 -1.468E+00
   1   16    8     1     8    3.2350E+05 -2.9535E+04   3.5304E+05  0.000E+00  0.000E+00  0.000E+00  4.52210E+01  3.005E-01  2.000E+01  2.000E+04 -1.477E+00
   1   16    9     1     9    3.5304E+05 -2.9605E+04   3.8264E+05  0.000E+00  0.000E+00  0.000E+00  4.47592E+01  3.160E-01  2.000E+01  2.000E+04 -1.480E+00
   1   16   10     1    10    3.8264E+05 -2.9619E+04   4.1226E+05  0.000E+00  0.000E+00  0.000E+00  4.42970E+01  3.311E-01  2.000E+01  2.000E+04 -1.481E+00
   1   16   11     1    11    4.1226E+05 -3.0199E+04   4.4246E+05  0.000E+00  0.000E+00  0.000E+00  4.38344E+01  3.458E-01  2.000E+01  2.000E+04 -1.510E+00
   1   16   12     1    12    4.4246E+05 -3.5645E+04   4.7810E+05  0.000E+00  0.000E+00  0.000E+00  4.33729E+01  3.615E-01  2.000E+01  2.000E+04 -1.782E+00
   1   15   13     1    13    4.7810E+05 -3.4287E+04   5.1239E+05  0.000E+00  0.000E+00  0.000E+00  4.29119E+01  3.778E-01  2.000E+01  2.000E+04 -1.714E+00
   1   14   14     1    14    5.1239E+05 -3.4748E+04   5.4714E+05  0.000E+00  0.000E+00  0.000E+00  4.24502E+01  3.933E-01  2.000E+01  2.000E+04 -1.737E+00
   1   13   15     1    15    5.4714E+05 -3.6764E+04   5.8390E+05  0.000E+00  0.000E+00  0.000E+00  4.19886E+01  4.091E-01  2.000E+01  2.000E+04 -1.838E+00
   1   12   16     1    16    5.8390E+05 -4.2356E+04   6.2626E+05  0.000E+00  0.000E+00  0.000E+00  4.15283E+01  4.260E-01  2.000E+01  2.000E+04 -2.118E+00
   1   12   17     1    17    6.2626E+05 -3.2856E+04   6.5912E+05  0.000E+00  0.000E+00  0.000E+00  4.10667E+01  4.417E-01  2.000E+01  2.000E+04 -1.643E+00
   1   12   18     1    18    6.5912E+05 -3.1017E+04   6.9013E+05  0.000E+00  0.000E+00  0.000E+00  4.06025E+01  4.547E-01  2.000E+01  2.000E+04 -1.551E+00
   1   12   19     1    19    6.9013E+05 -3.4591E+04   7.2472E+05  0.000E+00  0.000E+00  0.000E+00  4.01383E+01  4.679E-01  2.000E+01  2.000E+04 -1.730E+00
   1   13   20     1    20    7.2472E+05 -2.5487E+04   7.5021E+05  0.000E+00  0.000E+00  0.000E+00  3.96729E+01  4.797E-01  2.000E+01  2.000E+04 -1.274E+00
   1   14   21     1    21    7.5021E+05 -1.8793E+04   7.6900E+05  0.000E+00  0.000E+00  0.000E+00  3.92042E+01  4.883E-01  2.000E+01  2.000E+04 -9.397E-01
   1   14   22     1    22    7.6900E+05 -1.3442E+03   7.7035E+05  0.000E+00  0.000E+00  0.000E+00  3.87308E+01  4.922E-01  2.000E+01  2.000E+04 -6.721E-02
   1    9   30     2     1    5.0000E+04 -2.5980E+04   7.5980E+04  0.000E+00  0.000E+00  0.000E+00  4.02581E+01  1.331E-01  2.000E+01  2.000E+04 -1.299E+00
   1    9   29     2     2    7.5980E+04 -2.8348E+04   1.0433E+05  0.000E+00  0.000E+00  0.000E+00  4.00400E+01  1.650E-01  2.000E+01  2.000E+04 -1.417E+00
   1    9   28     2     3    1.0433E+05 -3.2365E+04   1.3669E+05  0.000E+00  0.000E+00  0.000E+00  3.98214E+01  1.964E-01  2.000E+01  2.000E+04 -1.618E+00
   1    9   27     2     4    1.3669E+05 -4.5671E+04   1.8236E+05  0.000E+00  0.000E+00  0.000E+00  3.96074E+01  2.324E-01  2.000E+01  2.000E+04 -2.284E+00
   1   10   26     2     5    1.8236E+05 -3.1661E+04   2.1403E+05  0.000E+00  0.000E+00  0.000E+00  3.93897E+01  2.647E-01  2.000E+01  2.000E+04 -1.583E+00
   1   11   25     2     6    2.1403E+05 -2.3453E+04   2.3748E+05  0.000E+00  0.000E+00  0.000E+00  3.91613E+01  2.863E-01  2.000E+01  2.000E+04 -1.173E+00
   1   12   24     2     7    2.3748E+05 -1.7185E+04   2.5466E+05  0.000E+00  0.000E+00  0.000E+00  3.89264E+01  3.014E-01  2.000E+01  2.000E+04 -8.593E-01
   1   13   23     2     8    2.5466E+05 -1.2252E+04   2.6691E+05  0.000E+00  0.000E+00  0.000E+00  3.86871E+01  3.121E-01  2.000E+01  2.000E+04 -6.126E-01
   1   14   22     2     9    2.6691E+05 -7.0796E+03   2.7399E+05  0.000E+00  0.000E+00  0.000E+00  3.84440E+01  3.190E-01  2.000E+01  2.000E+04 -3.540E-01
   1   14   22     3     1    1.0443E+06 -1.4998E+04   1.0593E+06  0.000E+00  0.000E+00  0.000E+00  3.80481E+01  4.926E-01  2.000E+01  2.000E+04 -7.499E-01
   1   15   23     3     2    1.0593E+06 -2.2804E+04   1.0821E+06  0.000E+00  0.000E+00  0.000E+00  3.71645E+01  4.979E-01  2.000E+01  2.000E+04 -1.140E+00
   1   15   24     3     3    1.0821E+06 -1.9077E+04   1.1012E+06  0.000E+00  0.000E+00  0.000E+00  3.62815E+01  5.037E-01  2.000E+01  2.000E+04 -9.539E-01
   1   15   25     3     4    1.1012E+06 -1.8809E+04   1.1200E+06  0.000E+00  0.000E+00  0.000E+00  3.53978E+01  5.089E-01  2.000E+01  2.000E+04 -9.405E-01
   1   15   26     3     5    1.1200E+06 -2.1674E+04   1.1417E+06  0.000E+00  0.000E+00  0.000E+00  3.45145E+01  5.145E-01  2.000E+01  2.000E+04 -1.084E+00
   1   16   27     3     6    1.1417E+06 -2.8678E+04   1.1704E+06  0.000E+00  0.000E+00  0.000E+00  3.36324E+01  5.213E-01  2.000E+01  2.000E+04 -1.434E+00
   1   17   28     3     7    1.1704E+06 -3.5703E+04   1.2061E+06  0.000E+00  0.000E+00  0.000E+00  3.27522E+01  5.300E-01  2.000E+01  2.000E+04 -1.785E+00
   1   18   29     3     8    1.2061E+06 -4.6705E+04   1.2528E+06  0.000E+00  0.000E+00  0.000E+00  3.18742E+01  5.409E-01  2.000E+01  2.000E+04 -2.335E+00
   1   18   30     3     9    1.2528E+06 -4.3367E+04   1.2962E+06  0.000E+00  0.000E+00  0.000E+00  3.09972E+01  5.527E-01  2.000E+01  2.000E+04 -2.168E+00



1
              HEAD IN LAYER   1 AT END OF TIME STEP   1 IN STRESS PERIOD    4
  ---------------------------------------------------------------------------

          1      2      3      4      5      6      7      8      9     10
         11     12     13     14     15     16     17     18     19     20
         21     22     23     24     25     26     27     28     29     30
 .........................................................................
   1  ****** ****** ****** ****** ****** ****** ****** ****** ****** ******
      ****** ****** ****** ****** ****** ****** ****** ****** ****** ******
      ****** ****** ****** ****** ****** ****** ****** ****** ****** ******
   2  ****** ****** ****** ****** ****** ****** ****** ****** ****** ******
      ****** ****** ****** ****** ****** ****** ****** ****** ****** ******
      ****** ****** ****** ****** ****** ****** ****** ****** ****** ******
   3  ****** ****** ****** ****** ****** ****** ****** ****** ****** ******
      ****** ****** ****** ****** ****** ****** ****** ****** ****** ******
      ****** ****** ****** ****** ****** ****** ****** ****** ****** ******
   4  ****** ****** ****** ****** ****** ****** ****** ****** ****** ******
      ****** ****** ****** ****** ****** ****** ****** ****** ****** ******
      ****** ****** ****** ****** ****** ****** ****** ****** ****** ******
   5  ****** ****** ****** ****** ****** ****** ****** ****** ****** ******
      ****** ****** ****** ****** ****** ****** ****** ****** ****** ******
      ****** ****** ****** ****** ****** ****** ****** ****** ****** ******
   6  ****** ****** ****** ****** ****** ****** ****** ****** ****** ******
      ****** ****** ****** ****** ****** ****** ****** ****** ****** ******
      ****** ****** ****** ****** ****** ****** ****** ****** ****** ******
   7  ****** ****** ****** ****** ****** ****** ****** ****** ****** ******
      ****** ****** ****** ****** ****** ****** ****** ****** ****** ******
      ****** ****** ****** ****** ****** ****** ****** ****** ****** ******
   8  ****** ****** ****** ****** ****** ****** ****** ****** ****** ******
      ****** ****** ****** ****** ****** ****** ****** ****** ****** ******
      ****** ****** ****** ****** ****** ****** ****** ****** ****** ******
   9  ****** ****** ****** ****** ****** ****** ****** ****** ****** ******
      ****** ****** ****** ****** ****** ****** ****** ****** ****** ******
      ****** ****** ****** ****** ****** ****** ****** ****** ****** ******
  10  ****** ****** ****** ****** ****** ****** ****** ****** ****** ******
      ****** ****** ****** ****** ****** ****** ****** ****** ****** ******
      ****** ****** ****** ****** ****** ****** ****** ****** ****** ******
  11  ****** ****** ****** ****** ****** ****** ****** ****** ****** ******
      ****** ****** ****** ****** ****** ****** ****** ****** ****** ******
      ****** ****** ****** ****** ****** ****** ****** ****** ****** ******
  12  ****** ****** ****** ****** ****** ****** ****** ****** ****** ******
      ****** ****** ****** ****** ****** ****** ****** ****** ****** ******
      ****** ****** ****** ****** ****** ****** ****** ****** ****** ******
  13  ****** ****** ****** ****** ****** ****** ****** ****** ****** ******
      ****** ****** ****** ****** ****** ****** ****** ****** ****** ******
      ****** ****** ****** ****** ****** ****** ****** ****** ****** ******
  14  ****** ****** ****** ****** ****** ****** ****** ****** ****** ******
      ****** ****** ****** ****** ****** ****** ****** ****** ****** ******
      ****** ****** ****** ****** ****** ****** ****** ****** ****** ******
  15  ****** ****** ****** ****** ****** ****** ****** ****** ****** ******
      ****** ****** ****** ****** ****** ****** ****** ****** ****** ******
      ****** ****** ****** ****** ****** ****** ****** ****** ****** ******
  16  ****** ****** ****** ****** ****** ****** ****** ****** ****** ******
      ****** ****** ****** ****** ****** ****** ****** ****** ****** ******
      ****** ****** ****** ****** ****** ****** ****** ****** ****** ******
  17  ****** ****** ****** ****** ****** ****** ****** ****** ****** ******
      ****** ****** ****** ****** ****** ****** ****** ****** ****** ******
      ****** ****** ****** ****** ****** ****** ****** ****** ****** ******
  18  ****** ****** ****** ****** ****** ****** ****** ****** ****** ******
      ****** ****** ****** ****** ****** ****** ****** ****** ****** ******
      ****** ****** ****** ****** ****** ****** ****** ****** ****** ******
  19  ****** ****** ****** ****** ****** ****** ****** ****** ****** ******
      ****** ****** ****** ****** ****** ****** ****** ****** ****** ******
      ****** ****** ****** ****** ****** ****** ****** ****** ****** ******
  20  ****** ****** ****** ****** ****** ****** ****** ****** ****** ******
      ****** ****** ****** ****** ****** ****** ****** ****** ****** ******
      ****** ****** ****** ****** ****** ****** ****** ****** ****** ******
  21  ****** ****** ****** ****** ****** ****** ****** ****** ****** ******
      ****** ****** ****** ****** ****** ****** ****** ****** ****** ******
      ****** ****** ****** ****** ****** ****** ****** ****** ****** ******
  22  ****** ****** ****** ****** ****** ****** ****** ****** ****** ******
      ****** ****** ****** ****** ****** ****** ****** ****** ****** ******
      ****** ****** ****** ****** ****** ****** ****** ****** ****** ******
  23  ****** ****** ****** ****** ****** ****** ****** ****** ****** ******
      ****** ****** ****** ****** ****** ****** ****** ****** ****** ******
      ****** ****** ****** ****** ****** ****** ****** ****** ****** ******
  24  ****** ****** ****** ****** ****** ****** ****** ****** ****** ******
      ****** ****** ****** ****** ****** ****** ****** ****** ****** ******
      ****** ****** ****** ****** ****** ****** ****** ****** ****** ******
  25  ****** ****** ****** ****** ****** ****** ****** ****** ****** ******
      ****** ****** ****** ****** ****** ****** ****** ****** ****** ******
      ****** ****** ****** ****** ****** ****** ****** ****** ****** ******

 HEAD WILL BE SAVED ON UNIT   51 AT END OF TIME STEP    1, STRESS PERIOD    4
1
  VOLUMETRIC BUDGET FOR ENTIRE MODEL AT END OF TIME STEP    1, STRESS PERIOD   4
  ------------------------------------------------------------------------------

     CUMULATIVE VOLUMES      L**3       RATES FOR THIS TIME STEP      L**3/T
     ------------------                 ------------------------

           IN:                                      IN:
           ---                                      ---
             STORAGE =    20364294.4120               STORAGE =           0.0000
       CONSTANT HEAD =   441654771.4124         CONSTANT HEAD =     1205523.9044
               WELLS =           0.0000                 WELLS =           0.0000
            RECHARGE =     8804400.0000              RECHARGE =       27600.0000
      STREAM LEAKAGE =           0.0000        STREAM LEAKAGE =           0.0000

            TOTAL IN =   470823465.8244              TOTAL IN =     1233123.9044

          OUT:                                     OUT:
          ----                                     ----
             STORAGE =      216221.8346               STORAGE =        1966.8395
       CONSTANT HEAD =           0.0000         CONSTANT HEAD =           0.0000
               WELLS =    39260091.0000                 WELLS =       85000.5000
            RECHARGE =           0.0000              RECHARGE =           0.0000
      STREAM LEAKAGE =   431347162.0682        STREAM LEAKAGE =     1146156.5402

           TOTAL OUT =   470823474.9028             TOTAL OUT =     1233123.8797

            IN - OUT =          -9.0784              IN - OUT =       2.4703E-02

 PERCENT DISCREPANCY =          -0.00     PERCENT DISCREPANCY =           0.00






         TIME SUMMARY AT END OF TIME STEP    1 IN STRESS PERIOD    4
                    SECONDS     MINUTES      HOURS       DAYS        YEARS
                    -----------------------------------------------------------
   TIME STEP LENGTH 7.86240E+06 1.31040E+05  2184.0      91.000     0.24914    
 STRESS PERIOD TIME 7.86240E+06 1.31040E+05  2184.0      91.000     0.24914    
         TOTAL TIME 3.15360E+07 5.25600E+05  8760.0      365.00     0.99932    
1
1
                            STRESS PERIOD NO.    5, LENGTH =   92.00000    
                            -----------------------------------------------

                              NUMBER OF TIME STEPS =     1

                               MULTIPLIER FOR DELT =     1.500

                            INITIAL TIME STEP SIZE =   92.00000    

 WELL NO.  LAYER   ROW   COL   STRESS RATE         
 --------------------------------------------------
      1      1     22     22     -0.3000E+05
      2      1      2     29     -0.5000E+05
      3      1      5     21     -0.5000E+05

      3 WELLS

                 RECHARGE =  5.000000E-04

 REUSING STREAM SEGMENT DATA FROM LAST STRESS PERIOD
 
 SOLVING FOR HEAD 


     6 CALLS TO PCG ROUTINE FOR TIME STEP   1 IN STRESS PERIOD    5
    22 TOTAL ITERATIONS

 OUTPUT CONTROL FOR STRESS PERIOD    5   TIME STEP    1
    SAVE BUDGET
    SAVE HEAD FOR ALL LAYERS
    PRINT HEAD FOR ALL LAYERS
 UBDSV2 SAVING "STREAMFLOW OUT  " ON UNIT  50 AT TIME STEP  1, STRESS PERIOD   5



 STREAM LISTING     PERIOD      5   STEP        1

 LAYER ROW COL. STREAM  RCH.  FLOW INTO     FLOW TO   FLOW OUT OF   OVRLND.     DIRECT     STREAM       STREAM     STREAM     STREAM   STREAMBED  STREAMBED
                SEG.NO.  NO.  STRM. RCH.    AQUIFER    STRM. RCH.    RUNOFF     PRECIP       ET          HEAD       DEPTH      WIDTH   CONDCTNC.   GRADIENT

   1   13    1     1     1    1.0000E+05 -2.7640E+04   1.2764E+05  0.000E+00  0.000E+00  0.000E+00  4.84177E+01  1.563E-01  2.000E+01  2.000E+04 -1.382E+00
   1   13    2     1     2    1.2764E+05 -3.7334E+04   1.6497E+05  0.000E+00  0.000E+00  0.000E+00  4.79658E+01  1.818E-01  2.000E+01  2.000E+04 -1.867E+00
   1   14    3     1     3    1.6497E+05 -3.2826E+04   1.9780E+05  0.000E+00  0.000E+00  0.000E+00  4.75136E+01  2.068E-01  2.000E+01  2.000E+04 -1.641E+00
   1   15    4     1     4    1.9780E+05 -3.2078E+04   2.2988E+05  0.000E+00  0.000E+00  0.000E+00  4.70578E+01  2.282E-01  2.000E+01  2.000E+04 -1.604E+00
   1   16    5     1     5    2.2988E+05 -3.3630E+04   2.6351E+05  0.000E+00  0.000E+00  0.000E+00  4.66009E+01  2.487E-01  2.000E+01  2.000E+04 -1.682E+00
   1   16    6     1     6    2.6351E+05 -2.9374E+04   2.9288E+05  0.000E+00  0.000E+00  0.000E+00  4.61423E+01  2.673E-01  2.000E+01  2.000E+04 -1.469E+00
   1   16    7     1     7    2.9288E+05 -2.9189E+04   3.2207E+05  0.000E+00  0.000E+00  0.000E+00  4.56815E+01  2.838E-01  2.000E+01  2.000E+04 -1.459E+00
   1   16    8     1     8    3.2207E+05 -2.9363E+04   3.5144E+05  0.000E+00  0.000E+00  0.000E+00  4.52202E+01  2.997E-01  2.000E+01  2.000E+04 -1.468E+00
   1   16    9     1     9    3.5144E+05 -2.9434E+04   3.8087E+05  0.000E+00  0.000E+00  0.000E+00  4.47583E+01  3.152E-01  2.000E+01  2.000E+04 -1.472E+00
   1   16   10     1    10    3.8087E+05 -2.9448E+04   4.1032E+05  0.000E+00  0.000E+00  0.000E+00  4.42960E+01  3.301E-01  2.000E+01  2.000E+04 -1.472E+00
   1   16   11     1    11    4.1032E+05 -3.0026E+04   4.4034E+05  0.000E+00  0.000E+00  0.000E+00  4.38334E+01  3.448E-01  2.000E+01  2.000E+04 -1.501E+00
   1   16   12     1    12    4.4034E+05 -3.5442E+04   4.7579E+05  0.000E+00  0.000E+00  0.000E+00  4.33718E+01  3.605E-01  2.000E+01  2.000E+04 -1.772E+00
   1   15   13     1    13    4.7579E+05 -3.4069E+04   5.0985E+05  0.000E+00  0.000E+00  0.000E+00  4.29107E+01  3.766E-01  2.000E+01  2.000E+04 -1.703E+00
   1   14   14     1    14    5.0985E+05 -3.4531E+04   5.4439E+05  0.000E+00  0.000E+00  0.000E+00  4.24490E+01  3.922E-01  2.000E+01  2.000E+04 -1.727E+00
   1   13   15     1    15    5.4439E+05 -3.6562E+04   5.8095E+05  0.000E+00  0.000E+00  0.000E+00  4.19874E+01  4.078E-01  2.000E+01  2.000E+04 -1.828E+00
   1   12   16     1    16    5.8095E+05 -4.2191E+04   6.2314E+05  0.000E+00  0.000E+00  0.000E+00  4.15270E+01  4.247E-01  2.000E+01  2.000E+04 -2.110E+00
   1   12   17     1    17    6.2314E+05 -3.2731E+04   6.5587E+05  0.000E+00  0.000E+00  0.000E+00  4.10654E+01  4.404E-01  2.000E+01  2.000E+04 -1.637E+00
   1   12   18     1    18    6.5587E+05 -3.0905E+04   6.8677E+05  0.000E+00  0.000E+00  0.000E+00  4.06011E+01  4.534E-01  2.000E+01  2.000E+04 -1.545E+00
   1   12   19     1    19    6.8677E+05 -3.4476E+04   7.2125E+05  0.000E+00  0.000E+00  0.000E+00  4.01370E+01  4.665E-01  2.000E+01  2.000E+04 -1.724E+00
   1   13   20     1    20    7.2125E+05 -2.5341E+04   7.4659E+05  0.000E+00  0.000E+00  0.000E+00  3.96715E+01  4.783E-01  2.000E+01  2.000E+04 -1.267E+00
   1   14   21     1    21    7.4659E+05 -1.8644E+04   7.6524E+05  0.000E+00  0.000E+00  0.000E+00  3.92028E+01  4.869E-01  2.000E+01  2.000E+04 -9.322E-01
   1   14   22     1    22    7.6524E+05 -1.2688E+03   7.6650E+05  0.000E+00  0.000E+00  0.000E+00  3.87293E+01  4.907E-01  2.000E+01  2.000E+04 -6.344E-02
   1    9   30     2     1    5.0000E+04 -2.4920E+04   7.4920E+04  0.000E+00  0.000E+00  0.000E+00  4.02574E+01  1.324E-01  2.000E+01  2.000E+04 -1.246E+00
   1    9   29     2     2    7.4920E+04 -2.7348E+04   1.0227E+05  0.000E+00  0.000E+00  0.000E+00  4.00383E+01  1.633E-01  2.000E+01  2.000E+04 -1.367E+00
   1    9   28     2     3    1.0227E+05 -3.1453E+04   1.3372E+05  0.000E+00  0.000E+00  0.000E+00  3.98189E+01  1.939E-01  2.000E+01  2.000E+04 -1.573E+00
   1    9   27     2     4    1.3372E+05 -4.4780E+04   1.7850E+05  0.000E+00  0.000E+00  0.000E+00  3.96044E+01  2.294E-01  2.000E+01  2.000E+04 -2.239E+00
   1   10   26     2     5    1.7850E+05 -3.1196E+04   2.0970E+05  0.000E+00  0.000E+00  0.000E+00  3.93864E+01  2.614E-01  2.000E+01  2.000E+04 -1.560E+00
   1   11   25     2     6    2.0970E+05 -2.3180E+04   2.3288E+05  0.000E+00  0.000E+00  0.000E+00  3.91578E+01  2.828E-01  2.000E+01  2.000E+04 -1.159E+00
   1   12   24     2     7    2.3288E+05 -1.7013E+04   2.4989E+05  0.000E+00  0.000E+00  0.000E+00  3.89230E+01  2.980E-01  2.000E+01  2.000E+04 -8.506E-01
   1   13   23     2     8    2.4989E+05 -1.2139E+04   2.6203E+05  0.000E+00  0.000E+00  0.000E+00  3.86837E+01  3.087E-01  2.000E+01  2.000E+04 -6.070E-01
   1   14   22     2     9    2.6203E+05 -7.0447E+03   2.6907E+05  0.000E+00  0.000E+00  0.000E+00  3.84405E+01  3.155E-01  2.000E+01  2.000E+04 -3.522E-01
   1   14   22     3     1    1.0356E+06 -1.4943E+04   1.0505E+06  0.000E+00  0.000E+00  0.000E+00  3.80457E+01  4.901E-01  2.000E+01  2.000E+04 -7.471E-01
   1   15   23     3     2    1.0505E+06 -2.2658E+04   1.0732E+06  0.000E+00  0.000E+00  0.000E+00  3.71620E+01  4.954E-01  2.000E+01  2.000E+04 -1.133E+00
   1   15   24     3     3    1.0732E+06 -1.8952E+04   1.0921E+06  0.000E+00  0.000E+00  0.000E+00  3.62790E+01  5.012E-01  2.000E+01  2.000E+04 -9.476E-01
   1   15   25     3     4    1.0921E+06 -1.8678E+04   1.1108E+06  0.000E+00  0.000E+00  0.000E+00  3.53953E+01  5.064E-01  2.000E+01  2.000E+04 -9.339E-01
   1   15   26     3     5    1.1108E+06 -2.1511E+04   1.1323E+06  0.000E+00  0.000E+00  0.000E+00  3.45119E+01  5.119E-01  2.000E+01  2.000E+04 -1.076E+00
   1   16   27     3     6    1.1323E+06 -2.8491E+04   1.1608E+06  0.000E+00  0.000E+00  0.000E+00  3.36298E+01  5.187E-01  2.000E+01  2.000E+04 -1.425E+00
   1   17   28     3     7    1.1608E+06 -3.5517E+04   1.1963E+06  0.000E+00  0.000E+00  0.000E+00  3.27496E+01  5.274E-01  2.000E+01  2.000E+04 -1.776E+00
   1   18   29     3     8    1.1963E+06 -4.6537E+04   1.2429E+06  0.000E+00  0.000E+00  0.000E+00  3.18716E+01  5.383E-01  2.000E+01  2.000E+04 -2.327E+00
   1   18   30     3     9    1.2429E+06 -4.3224E+04   1.2861E+06  0.000E+00  0.000E+00  0.000E+00  3.09946E+01  5.501E-01  2.000E+01  2.000E+04 -2.161E+00



1
              HEAD IN LAYER   1 AT END OF TIME STEP   1 IN STRESS PERIOD    5
  ---------------------------------------------------------------------------

          1      2      3      4      5      6      7      8      9     10
         11     12     13     14     15     16     17     18     19     20
         21     22     23     24     25     26     27     28     29     30
 .........................................................................
   1  ****** ****** ****** ****** ****** ****** ****** ****** ****** ******
      ****** ****** ****** ****** ****** ****** ****** ****** ****** ******
      ****** ****** ****** ****** ****** ****** ****** ****** ****** ******
   2  ****** ****** ****** ****** ****** ****** ****** ****** ****** ******
      ****** ****** ****** ****** ****** ****** ****** ****** ****** ******
      ****** ****** ****** ****** ****** ****** ****** ****** ****** ******
   3  ****** ****** ****** ****** ****** ****** ****** ****** ****** ******
      ****** ****** ****** ****** ****** ****** ****** ****** ****** ******
      ****** ****** ****** ****** ****** ****** ****** ****** ****** ******
   4  ****** ****** ****** ****** ****** ****** ****** ****** ****** ******
      ****** ****** ****** ****** ****** ****** ****** ****** ****** ******
      ****** ****** ****** ****** ****** ****** ****** ****** ****** ******
   5  ****** ****** ****** ****** ****** ****** ****** ****** ****** ******
      ****** ****** ****** ****** ****** ****** ****** ****** ****** ******
      ****** ****** ****** ****** ****** ****** ****** ****** ****** ******
   6  ****** ****** ****** ****** ****** ****** ****** ****** ****** ******
      ****** ****** ****** ****** ****** ****** ****** ****** ****** ******
      ****** ****** ****** ****** ****** ****** ****** ****** ****** ******
   7  ****** ****** ****** ****** ****** ****** ****** ****** ****** ******
      ****** ****** ****** ****** ****** ****** ****** ****** ****** ******
      ****** ****** ****** ****** ****** ****** ****** ****** ****** ******
   8  ****** ****** ****** ****** ****** ****** ****** ****** ****** ******
      ****** ****** ****** ****** ****** ****** ****** ****** ****** ******
      ****** ****** ****** ****** ****** ****** ****** ****** ****** ******
   9  ****** ****** ****** ****** ****** ****** ****** ****** ****** ******
      ****** ****** ****** ****** ****** ****** ****** ****** ****** ******
      ****** ****** ****** ****** ****** ****** ****** ****** ****** ******
  10  ****** ****** ****** ****** ****** ****** ****** ****** ****** ******
      ****** ****** ****** ****** ****** ****** ****** ****** ****** ******
      ****** ****** ****** ****** ****** ****** ****** ****** ****** ******
  11  ****** ****** ****** ****** ****** ****** ****** ****** ****** ******
      ****** ****** ****** ****** ****** ****** ****** ****** ****** ******
      ****** ****** ****** ****** ****** ****** ****** ****** ****** ******
  12  ****** ****** ****** ****** ****** ****** ****** ****** ****** ******
      ****** ****** ****** ****** ****** ****** ****** ****** ****** ******
      ****** ****** ****** ****** ****** ****** ****** ****** ****** ******
  13  ****** ****** ****** ****** ****** ****** ****** ****** ****** ******
      ****** ****** ****** ****** ****** ****** ****** ****** ****** ******
      ****** ****** ****** ****** ****** ****** ****** ****** ****** ******
  14  ****** ****** ****** ****** ****** ****** ****** ****** ****** ******
      ****** ****** ****** ****** ****** ****** ****** ****** ****** ******
      ****** ****** ****** ****** ****** ****** ****** ****** ****** ******
  15  ****** ****** ****** ****** ****** ****** ****** ****** ****** ******
      ****** ****** ****** ****** ****** ****** ****** ****** ****** ******
      ****** ****** ****** ****** ****** ****** ****** ****** ****** ******
  16  ****** ****** ****** ****** ****** ****** ****** ****** ****** ******
      ****** ****** ****** ****** ****** ****** ****** ****** ****** ******
      ****** ****** ****** ****** ****** ****** ****** ****** ****** ******
  17  ****** ****** ****** ****** ****** ****** ****** ****** ****** ******
      ****** ****** ****** ****** ****** ****** ****** ****** ****** ******
      ****** ****** ****** ****** ****** ****** ****** ****** ****** ******
  18  ****** ****** ****** ****** ****** ****** ****** ****** ****** ******
      ****** ****** ****** ****** ****** ****** ****** ****** ****** ******
      ****** ****** ****** ****** ****** ****** ****** ****** ****** ******
  19  ****** ****** ****** ****** ****** ****** ****** ****** ****** ******
      ****** ****** ****** ****** ****** ****** ****** ****** ****** ******
      ****** ****** ****** ****** ****** ****** ****** ****** ****** ******
  20  ****** ****** ****** ****** ****** ****** ****** ****** ****** ******
      ****** ****** ****** ****** ****** ****** ****** ****** ****** ******
      ****** ****** ****** ****** ****** ****** ****** ****** ****** ******
  21  ****** ****** ****** ****** ****** ****** ****** ****** ****** ******
      ****** ****** ****** ****** ****** ****** ****** ****** ****** ******
      ****** ****** ****** ****** ****** ****** ****** ****** ****** ******
  22  ****** ****** ****** ****** ****** ****** ****** ****** ****** ******
      ****** ****** ****** ****** ****** ****** ****** ****** ****** ******
      ****** ****** ****** ****** ****** ****** ****** ****** ****** ******
  23  ****** ****** ****** ****** ****** ****** ****** ****** ****** ******
      ****** ****** ****** ****** ****** ****** ****** ****** ****** ******
      ****** ****** ****** ****** ****** ****** ****** ****** ****** ******
  24  ****** ****** ****** ****** ****** ****** ****** ****** ****** ******
      ****** ****** ****** ****** ****** ****** ****** ****** ****** ******
      ****** ****** ****** ****** ****** ****** ****** ****** ****** ******
  25  ****** ****** ****** ****** ****** ****** ****** ****** ****** ******
      ****** ****** ****** ****** ****** ****** ****** ****** ****** ******
      ****** ****** ****** ****** ****** ****** ****** ****** ****** ******

 HEAD WILL BE SAVED ON UNIT   51 AT END OF TIME STEP    1, STRESS PERIOD    5
1
  VOLUMETRIC BUDGET FOR ENTIRE MODEL AT END OF TIME STEP    1, STRESS PERIOD   5
  ------------------------------------------------------------------------------

     CUMULATIVE VOLUMES      L**3       RATES FOR THIS TIME STEP      L**3/T
     ------------------                 ------------------------

           IN:                                      IN:
           ---                                      ---
             STORAGE =    20472662.3858               STORAGE =        1177.9128
       CONSTANT HEAD =   556761629.7005         CONSTANT HEAD =     1251161.5031
               WELLS =           0.0000                 WELLS =           0.0000
            RECHARGE =    10074000.0000              RECHARGE =       13800.0000
      STREAM LEAKAGE =           0.0000        STREAM LEAKAGE =           0.0000

            TOTAL IN =   587308292.0863              TOTAL IN =     1266139.4159

          OUT:                                     OUT:
          ----                                     ----
             STORAGE =      220883.0756               STORAGE =          50.6657
       CONSTANT HEAD =           0.0000         CONSTANT HEAD =           0.0000
               WELLS =    51220091.0000                 WELLS =      130000.0000
            RECHARGE =           0.0000              RECHARGE =           0.0000
      STREAM LEAKAGE =   535867328.5892        STREAM LEAKAGE =     1136088.7665

           TOTAL OUT =   587308302.6648             TOTAL OUT =     1266139.4322

            IN - OUT =         -10.5785              IN - OUT =      -1.6305E-02

 PERCENT DISCREPANCY =          -0.00     PERCENT DISCREPANCY =          -0.00






         TIME SUMMARY AT END OF TIME STEP    1 IN STRESS PERIOD    5
                    SECONDS     MINUTES      HOURS       DAYS        YEARS
                    -----------------------------------------------------------
   TIME STEP LENGTH 7.94880E+06 1.32480E+05  2208.0      92.000     0.25188    
 STRESS PERIOD TIME 7.94880E+06 1.32480E+05  2208.0      92.000     0.25188    
         TOTAL TIME 3.94848E+07 6.58080E+05  10968.      457.00      1.2512    
1
1
                            STRESS PERIOD NO.    6, LENGTH =   91.00000    
                            -----------------------------------------------

                              NUMBER OF TIME STEPS =     1

                               MULTIPLIER FOR DELT =     1.500

                            INITIAL TIME STEP SIZE =   91.00000    

 WELL NO.  LAYER   ROW   COL   STRESS RATE         
 --------------------------------------------------
      1      1     22     22     -0.3000E+05
      2      1      2     29       0.000    
      3      1      5     21     -0.5000E+05

      3 WELLS

                 RECHARGE =  2.000000E-03

 REUSING STREAM SEGMENT DATA FROM LAST STRESS PERIOD
 
 SOLVING FOR HEAD 


     6 CALLS TO PCG ROUTINE FOR TIME STEP   1 IN STRESS PERIOD    6
    22 TOTAL ITERATIONS

 OUTPUT CONTROL FOR STRESS PERIOD    6   TIME STEP    1
    SAVE BUDGET
    SAVE HEAD FOR ALL LAYERS
    PRINT HEAD FOR ALL LAYERS
 UBDSV2 SAVING "STREAMFLOW OUT  " ON UNIT  50 AT TIME STEP  1, STRESS PERIOD   6



 STREAM LISTING     PERIOD      6   STEP        1

 LAYER ROW COL. STREAM  RCH.  FLOW INTO     FLOW TO   FLOW OUT OF   OVRLND.     DIRECT     STREAM       STREAM     STREAM     STREAM   STREAMBED  STREAMBED
                SEG.NO.  NO.  STRM. RCH.    AQUIFER    STRM. RCH.    RUNOFF     PRECIP       ET          HEAD       DEPTH      WIDTH   CONDCTNC.   GRADIENT

   1   13    1     1     1    1.0000E+05 -2.8295E+04   1.2829E+05  0.000E+00  0.000E+00  0.000E+00  4.84180E+01  1.566E-01  2.000E+01  2.000E+04 -1.415E+00
   1   13    2     1     2    1.2829E+05 -3.8117E+04   1.6641E+05  0.000E+00  0.000E+00  0.000E+00  4.79666E+01  1.825E-01  2.000E+01  2.000E+04 -1.906E+00
   1   14    3     1     3    1.6641E+05 -3.3591E+04   2.0000E+05  0.000E+00  0.000E+00  0.000E+00  4.75148E+01  2.080E-01  2.000E+01  2.000E+04 -1.680E+00
   1   15    4     1     4    2.0000E+05 -3.2813E+04   2.3282E+05  0.000E+00  0.000E+00  0.000E+00  4.70594E+01  2.299E-01  2.000E+01  2.000E+04 -1.641E+00
   1   16    5     1     5    2.3282E+05 -3.4293E+04   2.6711E+05  0.000E+00  0.000E+00  0.000E+00  4.66029E+01  2.506E-01  2.000E+01  2.000E+04 -1.715E+00
   1   16    6     1     6    2.6711E+05 -2.9950E+04   2.9706E+05  0.000E+00  0.000E+00  0.000E+00  4.61445E+01  2.695E-01  2.000E+01  2.000E+04 -1.498E+00
   1   16    7     1     7    2.9706E+05 -2.9761E+04   3.2682E+05  0.000E+00  0.000E+00  0.000E+00  4.56840E+01  2.863E-01  2.000E+01  2.000E+04 -1.488E+00
   1   16    8     1     8    3.2682E+05 -2.9937E+04   3.5676E+05  0.000E+00  0.000E+00  0.000E+00  4.52229E+01  3.024E-01  2.000E+01  2.000E+04 -1.497E+00
   1   16    9     1     9    3.5676E+05 -3.0007E+04   3.8676E+05  0.000E+00  0.000E+00  0.000E+00  4.47612E+01  3.180E-01  2.000E+01  2.000E+04 -1.500E+00
   1   16   10     1    10    3.8676E+05 -3.0020E+04   4.1679E+05  0.000E+00  0.000E+00  0.000E+00  4.42991E+01  3.332E-01  2.000E+01  2.000E+04 -1.501E+00
   1   16   11     1    11    4.1679E+05 -3.0607E+04   4.4739E+05  0.000E+00  0.000E+00  0.000E+00  4.38367E+01  3.481E-01  2.000E+01  2.000E+04 -1.530E+00
   1   16   12     1    12    4.4739E+05 -3.6119E+04   4.8351E+05  0.000E+00  0.000E+00  0.000E+00  4.33753E+01  3.640E-01  2.000E+01  2.000E+04 -1.806E+00
   1   15   13     1    13    4.8351E+05 -3.4819E+04   5.1833E+05  0.000E+00  0.000E+00  0.000E+00  4.29144E+01  3.804E-01  2.000E+01  2.000E+04 -1.741E+00
   1   14   14     1    14    5.1833E+05 -3.5311E+04   5.5364E+05  0.000E+00  0.000E+00  0.000E+00  4.24529E+01  3.961E-01  2.000E+01  2.000E+04 -1.766E+00
   1   13   15     1    15    5.5364E+05 -3.7345E+04   5.9099E+05  0.000E+00  0.000E+00  0.000E+00  4.19916E+01  4.120E-01  2.000E+01  2.000E+04 -1.867E+00
   1   12   16     1    16    5.9099E+05 -4.2968E+04   6.3395E+05  0.000E+00  0.000E+00  0.000E+00  4.15314E+01  4.291E-01  2.000E+01  2.000E+04 -2.148E+00
   1   12   17     1    17    6.3395E+05 -3.3367E+04   6.6732E+05  0.000E+00  0.000E+00  0.000E+00  4.10700E+01  4.450E-01  2.000E+01  2.000E+04 -1.668E+00
   1   12   18     1    18    6.6732E+05 -3.1527E+04   6.9885E+05  0.000E+00  0.000E+00  0.000E+00  4.06059E+01  4.582E-01  2.000E+01  2.000E+04 -1.576E+00
   1   12   19     1    19    6.9885E+05 -3.5183E+04   7.3403E+05  0.000E+00  0.000E+00  0.000E+00  4.01419E+01  4.714E-01  2.000E+01  2.000E+04 -1.759E+00
   1   13   20     1    20    7.3403E+05 -2.5982E+04   7.6001E+05  0.000E+00  0.000E+00  0.000E+00  3.96766E+01  4.834E-01  2.000E+01  2.000E+04 -1.299E+00
   1   14   21     1    21    7.6001E+05 -1.9175E+04   7.7919E+05  0.000E+00  0.000E+00  0.000E+00  3.92080E+01  4.921E-01  2.000E+01  2.000E+04 -9.588E-01
   1   14   22     1    22    7.7919E+05 -1.4849E+03   7.8067E+05  0.000E+00  0.000E+00  0.000E+00  3.87347E+01  4.961E-01  2.000E+01  2.000E+04 -7.424E-02
   1    9   30     2     1    5.0000E+04 -2.6338E+04   7.6338E+04  0.000E+00  0.000E+00  0.000E+00  4.02583E+01  1.333E-01  2.000E+01  2.000E+04 -1.317E+00
   1    9   29     2     2    7.6338E+04 -2.8715E+04   1.0505E+05  0.000E+00  0.000E+00  0.000E+00  4.00406E+01  1.656E-01  2.000E+01  2.000E+04 -1.436E+00
   1    9   28     2     3    1.0505E+05 -3.2768E+04   1.3782E+05  0.000E+00  0.000E+00  0.000E+00  3.98223E+01  1.973E-01  2.000E+01  2.000E+04 -1.638E+00
   1    9   27     2     4    1.3782E+05 -4.6221E+04   1.8404E+05  0.000E+00  0.000E+00  0.000E+00  3.96086E+01  2.336E-01  2.000E+01  2.000E+04 -2.311E+00
   1   10   26     2     5    1.8404E+05 -3.2226E+04   2.1627E+05  0.000E+00  0.000E+00  0.000E+00  3.93913E+01  2.663E-01  2.000E+01  2.000E+04 -1.611E+00
   1   11   25     2     6    2.1627E+05 -2.3991E+04   2.4026E+05  0.000E+00  0.000E+00  0.000E+00  3.91632E+01  2.882E-01  2.000E+01  2.000E+04 -1.200E+00
   1   12   24     2     7    2.4026E+05 -1.7654E+04   2.5791E+05  0.000E+00  0.000E+00  0.000E+00  3.89287E+01  3.037E-01  2.000E+01  2.000E+04 -8.827E-01
   1   13   23     2     8    2.5791E+05 -1.2613E+04   2.7053E+05  0.000E+00  0.000E+00  0.000E+00  3.86896E+01  3.146E-01  2.000E+01  2.000E+04 -6.306E-01
   1   14   22     2     9    2.7053E+05 -7.2466E+03   2.7777E+05  0.000E+00  0.000E+00  0.000E+00  3.84466E+01  3.216E-01  2.000E+01  2.000E+04 -3.623E-01
   1   14   22     3     1    1.0584E+06 -1.5137E+04   1.0736E+06  0.000E+00  0.000E+00  0.000E+00  3.80521E+01  4.965E-01  2.000E+01  2.000E+04 -7.569E-01
   1   15   23     3     2    1.0736E+06 -2.3130E+04   1.0967E+06  0.000E+00  0.000E+00  0.000E+00  3.71685E+01  5.019E-01  2.000E+01  2.000E+04 -1.157E+00
   1   15   24     3     3    1.0967E+06 -1.9347E+04   1.1161E+06  0.000E+00  0.000E+00  0.000E+00  3.62855E+01  5.077E-01  2.000E+01  2.000E+04 -9.674E-01
   1   15   25     3     4    1.1161E+06 -1.9076E+04   1.1351E+06  0.000E+00  0.000E+00  0.000E+00  3.54019E+01  5.130E-01  2.000E+01  2.000E+04 -9.538E-01
   1   15   26     3     5    1.1351E+06 -2.1984E+04   1.1571E+06  0.000E+00  0.000E+00  0.000E+00  3.45186E+01  5.186E-01  2.000E+01  2.000E+04 -1.099E+00
   1   16   27     3     6    1.1571E+06 -2.9047E+04   1.1862E+06  0.000E+00  0.000E+00  0.000E+00  3.36366E+01  5.255E-01  2.000E+01  2.000E+04 -1.452E+00
   1   17   28     3     7    1.1862E+06 -3.6079E+04   1.2222E+06  0.000E+00  0.000E+00  0.000E+00  3.27564E+01  5.342E-01  2.000E+01  2.000E+04 -1.804E+00
   1   18   29     3     8    1.2222E+06 -4.7057E+04   1.2693E+06  0.000E+00  0.000E+00  0.000E+00  3.18785E+01  5.452E-01  2.000E+01  2.000E+04 -2.353E+00
   1   18   30     3     9    1.2693E+06 -4.3660E+04   1.3130E+06  0.000E+00  0.000E+00  0.000E+00  3.10015E+01  5.570E-01  2.000E+01  2.000E+04 -2.183E+00



1
              HEAD IN LAYER   1 AT END OF TIME STEP   1 IN STRESS PERIOD    6
  ---------------------------------------------------------------------------

          1      2      3      4      5      6      7      8      9     10
         11     12     13     14     15     16     17     18     19     20
         21     22     23     24     25     26     27     28     29     30
 .........................................................................
   1  ****** ****** ****** ****** ****** ****** ****** ****** ****** ******
      ****** ****** ****** ****** ****** ****** ****** ****** ****** ******
      ****** ****** ****** ****** ****** ****** ****** ****** ****** ******
   2  ****** ****** ****** ****** ****** ****** ****** ****** ****** ******
      ****** ****** ****** ****** ****** ****** ****** ****** ****** ******
      ****** ****** ****** ****** ****** ****** ****** ****** ****** ******
   3  ****** ****** ****** ****** ****** ****** ****** ****** ****** ******
      ****** ****** ****** ****** ****** ****** ****** ****** ****** ******
      ****** ****** ****** ****** ****** ****** ****** ****** ****** ******
   4  ****** ****** ****** ****** ****** ****** ****** ****** ****** ******
      ****** ****** ****** ****** ****** ****** ****** ****** ****** ******
      ****** ****** ****** ****** ****** ****** ****** ****** ****** ******
   5  ****** ****** ****** ****** ****** ****** ****** ****** ****** ******
      ****** ****** ****** ****** ****** ****** ****** ****** ****** ******
      ****** ****** ****** ****** ****** ****** ****** ****** ****** ******
   6  ****** ****** ****** ****** ****** ****** ****** ****** ****** ******
      ****** ****** ****** ****** ****** ****** ****** ****** ****** ******
      ****** ****** ****** ****** ****** ****** ****** ****** ****** ******
   7  ****** ****** ****** ****** ****** ****** ****** ****** ****** ******
      ****** ****** ****** ****** ****** ****** ****** ****** ****** ******
      ****** ****** ****** ****** ****** ****** ****** ****** ****** ******
   8  ****** ****** ****** ****** ****** ****** ****** ****** ****** ******
      ****** ****** ****** ****** ****** ****** ****** ****** ****** ******
      ****** ****** ****** ****** ****** ****** ****** ****** ****** ******
   9  ****** ****** ****** ****** ****** ****** ****** ****** ****** ******
      ****** ****** ****** ****** ****** ****** ****** ****** ****** ******
      ****** ****** ****** ****** ****** ****** ****** ****** ****** ******
  10  ****** ****** ****** ****** ****** ****** ****** ****** ****** ******
      ****** ****** ****** ****** ****** ****** ****** ****** ****** ******
      ****** ****** ****** ****** ****** ****** ****** ****** ****** ******
  11  ****** ****** ****** ****** ****** ****** ****** ****** ****** ******
      ****** ****** ****** ****** ****** ****** ****** ****** ****** ******
      ****** ****** ****** ****** ****** ****** ****** ****** ****** ******
  12  ****** ****** ****** ****** ****** ****** ****** ****** ****** ******
      ****** ****** ****** ****** ****** ****** ****** ****** ****** ******
      ****** ****** ****** ****** ****** ****** ****** ****** ****** ******
  13  ****** ****** ****** ****** ****** ****** ****** ****** ****** ******
      ****** ****** ****** ****** ****** ****** ****** ****** ****** ******
      ****** ****** ****** ****** ****** ****** ****** ****** ****** ******
  14  ****** ****** ****** ****** ****** ****** ****** ****** ****** ******
      ****** ****** ****** ****** ****** ****** ****** ****** ****** ******
      ****** ****** ****** ****** ****** ****** ****** ****** ****** ******
  15  ****** ****** ****** ****** ****** ****** ****** ****** ****** ******
      ****** ****** ****** ****** ****** ****** ****** ****** ****** ******
      ****** ****** ****** ****** ****** ****** ****** ****** ****** ******
  16  ****** ****** ****** ****** ****** ****** ****** ****** ****** ******
      ****** ****** ****** ****** ****** ****** ****** ****** ****** ******
      ****** ****** ****** ****** ****** ****** ****** ****** ****** ******
  17  ****** ****** ****** ****** ****** ****** ****** ****** ****** ******
      ****** ****** ****** ****** ****** ****** ****** ****** ****** ******
      ****** ****** ****** ****** ****** ****** ****** ****** ****** ******
  18  ****** ****** ****** ****** ****** ****** ****** ****** ****** ******
      ****** ****** ****** ****** ****** ****** ****** ****** ****** ******
      ****** ****** ****** ****** ****** ****** ****** ****** ****** ******
  19  ****** ****** ****** ****** ****** ****** ****** ****** ****** ******
      ****** ****** ****** ****** ****** ****** ****** ****** ****** ******
      ****** ****** ****** ****** ****** ****** ****** ****** ****** ******
  20  ****** ****** ****** ****** ****** ****** ****** ****** ****** ******
      ****** ****** ****** ****** ****** ****** ****** ****** ****** ******
      ****** ****** ****** ****** ****** ****** ****** ****** ****** ******
  21  ****** ****** ****** ****** ****** ****** ****** ****** ****** ******
      ****** ****** ****** ****** ****** ****** ****** ****** ****** ******
      ****** ****** ****** ****** ****** ****** ****** ****** ****** ******
  22  ****** ****** ****** ****** ****** ****** ****** ****** ****** ******
      ****** ****** ****** ****** ****** ****** ****** ****** ****** ******
      ****** ****** ****** ****** ****** ****** ****** ****** ****** ******
  23  ****** ****** ****** ****** ****** ****** ****** ****** ****** ******
      ****** ****** ****** ****** ****** ****** ****** ****** ****** ******
      ****** ****** ****** ****** ****** ****** ****** ****** ****** ******
  24  ****** ****** ****** ****** ****** ****** ****** ****** ****** ******
      ****** ****** ****** ****** ****** ****** ****** ****** ****** ******
      ****** ****** ****** ****** ****** ****** ****** ****** ****** ******
  25  ****** ****** ****** ****** ****** ****** ****** ****** ****** ******
      ****** ****** ****** ****** ****** ****** ****** ****** ****** ******
      ****** ****** ****** ****** ****** ****** ****** ****** ****** ******

 HEAD WILL BE SAVED ON UNIT   51 AT END OF TIME STEP    1, STRESS PERIOD    6
1
  VOLUMETRIC BUDGET FOR ENTIRE MODEL AT END OF TIME STEP    1, STRESS PERIOD   6
  ------------------------------------------------------------------------------

     CUMULATIVE VOLUMES      L**3       RATES FOR THIS TIME STEP      L**3/T
     ------------------                 ------------------------

           IN:                                      IN:
           ---                                      ---
             STORAGE =    20472662.3858               STORAGE =           0.0000
       CONSTANT HEAD =   665103254.0695         CONSTANT HEAD =     1190567.3008
               WELLS =           0.0000                 WELLS =           0.0000
            RECHARGE =    15097200.0000              RECHARGE =       55200.0000
      STREAM LEAKAGE =           0.0000        STREAM LEAKAGE =           0.0000

            TOTAL IN =   700673116.4553              TOTAL IN =     1245767.3008

          OUT:                                     OUT:
          ----                                     ----
             STORAGE =      475983.6177               STORAGE =        2803.3027
       CONSTANT HEAD =           0.0000         CONSTANT HEAD =           0.0000
               WELLS =    58500091.0000                 WELLS =       80000.0000
            RECHARGE =           0.0000              RECHARGE =           0.0000
      STREAM LEAKAGE =   641697048.8984        STREAM LEAKAGE =     1162963.9594

           TOTAL OUT =   700673123.5161             TOTAL OUT =     1245767.2621

            IN - OUT =          -7.0607              IN - OUT =       3.8657E-02

 PERCENT DISCREPANCY =          -0.00     PERCENT DISCREPANCY =           0.00






         TIME SUMMARY AT END OF TIME STEP    1 IN STRESS PERIOD    6
                    SECONDS     MINUTES      HOURS       DAYS        YEARS
                    -----------------------------------------------------------
   TIME STEP LENGTH 7.86240E+06 1.31040E+05  2184.0      91.000     0.24914    
 STRESS PERIOD TIME 7.86240E+06 1.31040E+05  2184.0      91.000     0.24914    
         TOTAL TIME 4.73472E+07 7.89120E+05  13152.      548.00      1.5003    
1
1
                            STRESS PERIOD NO.    7, LENGTH =   91.00000    
                            -----------------------------------------------

                              NUMBER OF TIME STEPS =     1

                               MULTIPLIER FOR DELT =     1.500

                            INITIAL TIME STEP SIZE =   91.00000    

 WELL NO.  LAYER   ROW   COL   STRESS RATE         
 --------------------------------------------------
      1      1     22     22     -0.3000E+05
      2      1      2     29     -0.5000E+05
      3      1      5     21     -0.5500E+05

      3 WELLS

                 RECHARGE =   0.00000    

 REUSING STREAM SEGMENT DATA FROM LAST STRESS PERIOD
 
 SOLVING FOR HEAD 


     6 CALLS TO PCG ROUTINE FOR TIME STEP   1 IN STRESS PERIOD    7
    23 TOTAL ITERATIONS

 OUTPUT CONTROL FOR STRESS PERIOD    7   TIME STEP    1
    SAVE BUDGET
    SAVE HEAD FOR ALL LAYERS
    PRINT HEAD FOR ALL LAYERS
 UBDSV2 SAVING "STREAMFLOW OUT  " ON UNIT  50 AT TIME STEP  1, STRESS PERIOD   7



 STREAM LISTING     PERIOD      7   STEP        1

 LAYER ROW COL. STREAM  RCH.  FLOW INTO     FLOW TO   FLOW OUT OF   OVRLND.     DIRECT     STREAM       STREAM     STREAM     STREAM   STREAMBED  STREAMBED
                SEG.NO.  NO.  STRM. RCH.    AQUIFER    STRM. RCH.    RUNOFF     PRECIP       ET          HEAD       DEPTH      WIDTH   CONDCTNC.   GRADIENT

   1   13    1     1     1    1.0000E+05 -2.7442E+04   1.2744E+05  0.000E+00  0.000E+00  0.000E+00  4.84176E+01  1.563E-01  2.000E+01  2.000E+04 -1.372E+00
   1   13    2     1     2    1.2744E+05 -3.7098E+04   1.6454E+05  0.000E+00  0.000E+00  0.000E+00  4.79656E+01  1.815E-01  2.000E+01  2.000E+04 -1.855E+00
   1   14    3     1     3    1.6454E+05 -3.2593E+04   1.9713E+05  0.000E+00  0.000E+00  0.000E+00  4.75132E+01  2.064E-01  2.000E+01  2.000E+04 -1.630E+00
   1   15    4     1     4    1.9713E+05 -3.1853E+04   2.2899E+05  0.000E+00  0.000E+00  0.000E+00  4.70573E+01  2.277E-01  2.000E+01  2.000E+04 -1.593E+00
   1   16    5     1     5    2.2899E+05 -3.3426E+04   2.6241E+05  0.000E+00  0.000E+00  0.000E+00  4.66003E+01  2.481E-01  2.000E+01  2.000E+04 -1.671E+00
   1   16    6     1     6    2.6241E+05 -2.9196E+04   2.9161E+05  0.000E+00  0.000E+00  0.000E+00  4.61416E+01  2.666E-01  2.000E+01  2.000E+04 -1.460E+00
   1   16    7     1     7    2.9161E+05 -2.9012E+04   3.2062E+05  0.000E+00  0.000E+00  0.000E+00  4.56808E+01  2.830E-01  2.000E+01  2.000E+04 -1.451E+00
   1   16    8     1     8    3.2062E+05 -2.9185E+04   3.4980E+05  0.000E+00  0.000E+00  0.000E+00  4.52193E+01  2.989E-01  2.000E+01  2.000E+04 -1.459E+00
   1   16    9     1     9    3.4980E+05 -2.9255E+04   3.7906E+05  0.000E+00  0.000E+00  0.000E+00  4.47574E+01  3.143E-01  2.000E+01  2.000E+04 -1.463E+00
   1   16   10     1    10    3.7906E+05 -2.9269E+04   4.0833E+05  0.000E+00  0.000E+00  0.000E+00  4.42951E+01  3.292E-01  2.000E+01  2.000E+04 -1.463E+00
   1   16   11     1    11    4.0833E+05 -2.9844E+04   4.3817E+05  0.000E+00  0.000E+00  0.000E+00  4.38324E+01  3.438E-01  2.000E+01  2.000E+04 -1.492E+00
   1   16   12     1    12    4.3817E+05 -3.5231E+04   4.7340E+05  0.000E+00  0.000E+00  0.000E+00  4.33708E+01  3.594E-01  2.000E+01  2.000E+04 -1.762E+00
   1   15   13     1    13    4.7340E+05 -3.3829E+04   5.0723E+05  0.000E+00  0.000E+00  0.000E+00  4.29096E+01  3.755E-01  2.000E+01  2.000E+04 -1.691E+00
   1   14   14     1    14    5.0723E+05 -3.4274E+04   5.4151E+05  0.000E+00  0.000E+00  0.000E+00  4.24478E+01  3.909E-01  2.000E+01  2.000E+04 -1.714E+00
   1   13   15     1    15    5.4151E+05 -3.6289E+04   5.7780E+05  0.000E+00  0.000E+00  0.000E+00  4.19861E+01  4.065E-01  2.000E+01  2.000E+04 -1.814E+00
   1   12   16     1    16    5.7780E+05 -4.1886E+04   6.1968E+05  0.000E+00  0.000E+00  0.000E+00  4.15256E+01  4.233E-01  2.000E+01  2.000E+04 -2.094E+00
   1   12   17     1    17    6.1968E+05 -3.2465E+04   6.5215E+05  0.000E+00  0.000E+00  0.000E+00  4.10639E+01  4.389E-01  2.000E+01  2.000E+04 -1.623E+00
   1   12   18     1    18    6.5215E+05 -3.0629E+04   6.8278E+05  0.000E+00  0.000E+00  0.000E+00  4.05996E+01  4.518E-01  2.000E+01  2.000E+04 -1.531E+00
   1   12   19     1    19    6.8278E+05 -3.4142E+04   7.1692E+05  0.000E+00  0.000E+00  0.000E+00  4.01353E+01  4.649E-01  2.000E+01  2.000E+04 -1.707E+00
   1   13   20     1    20    7.1692E+05 -2.5079E+04   7.4200E+05  0.000E+00  0.000E+00  0.000E+00  3.96697E+01  4.766E-01  2.000E+01  2.000E+04 -1.254E+00
   1   14   21     1    21    7.4200E+05 -1.8456E+04   7.6045E+05  0.000E+00  0.000E+00  0.000E+00  3.92010E+01  4.850E-01  2.000E+01  2.000E+04 -9.228E-01
   1   14   22     1    22    7.6045E+05 -1.1955E+03   7.6165E+05  0.000E+00  0.000E+00  0.000E+00  3.87275E+01  4.888E-01  2.000E+01  2.000E+04 -5.977E-02
   1    9   30     2     1    5.0000E+04 -2.4735E+04   7.4735E+04  0.000E+00  0.000E+00  0.000E+00  4.02573E+01  1.323E-01  2.000E+01  2.000E+04 -1.237E+00
   1    9   29     2     2    7.4735E+04 -2.7155E+04   1.0189E+05  0.000E+00  0.000E+00  0.000E+00  4.00380E+01  1.630E-01  2.000E+01  2.000E+04 -1.358E+00
   1    9   28     2     3    1.0189E+05 -3.1233E+04   1.3312E+05  0.000E+00  0.000E+00  0.000E+00  3.98185E+01  1.935E-01  2.000E+01  2.000E+04 -1.562E+00
   1    9   27     2     4    1.3312E+05 -4.4461E+04   1.7758E+05  0.000E+00  0.000E+00  0.000E+00  3.96038E+01  2.288E-01  2.000E+01  2.000E+04 -2.223E+00
   1   10   26     2     5    1.7758E+05 -3.0870E+04   2.0845E+05  0.000E+00  0.000E+00  0.000E+00  3.93856E+01  2.606E-01  2.000E+01  2.000E+04 -1.543E+00
   1   11   25     2     6    2.0845E+05 -2.2871E+04   2.3132E+05  0.000E+00  0.000E+00  0.000E+00  3.91568E+01  2.818E-01  2.000E+01  2.000E+04 -1.144E+00
   1   12   24     2     7    2.3132E+05 -1.6747E+04   2.4807E+05  0.000E+00  0.000E+00  0.000E+00  3.89217E+01  2.967E-01  2.000E+01  2.000E+04 -8.374E-01
   1   13   23     2     8    2.4807E+05 -1.1941E+04   2.6001E+05  0.000E+00  0.000E+00  0.000E+00  3.86823E+01  3.073E-01  2.000E+01  2.000E+04 -5.970E-01
   1   14   22     2     9    2.6001E+05 -6.9636E+03   2.6698E+05  0.000E+00  0.000E+00  0.000E+00  3.84391E+01  3.141E-01  2.000E+01  2.000E+04 -3.482E-01
   1   14   22     3     1    1.0286E+06 -1.4872E+04   1.0435E+06  0.000E+00  0.000E+00  0.000E+00  3.80437E+01  4.881E-01  2.000E+01  2.000E+04 -7.436E-01
   1   15   23     3     2    1.0435E+06 -2.2507E+04   1.0660E+06  0.000E+00  0.000E+00  0.000E+00  3.71601E+01  4.934E-01  2.000E+01  2.000E+04 -1.125E+00
   1   15   24     3     3    1.0660E+06 -1.8825E+04   1.0848E+06  0.000E+00  0.000E+00  0.000E+00  3.62769E+01  4.992E-01  2.000E+01  2.000E+04 -9.412E-01
   1   15   25     3     4    1.0848E+06 -1.8551E+04   1.1034E+06  0.000E+00  0.000E+00  0.000E+00  3.53932E+01  5.044E-01  2.000E+01  2.000E+04 -9.276E-01
   1   15   26     3     5    1.1034E+06 -2.1363E+04   1.1247E+06  0.000E+00  0.000E+00  0.000E+00  3.45099E+01  5.099E-01  2.000E+01  2.000E+04 -1.068E+00
   1   16   27     3     6    1.1247E+06 -2.8319E+04   1.1531E+06  0.000E+00  0.000E+00  0.000E+00  3.36278E+01  5.166E-01  2.000E+01  2.000E+04 -1.416E+00
   1   17   28     3     7    1.1531E+06 -3.5343E+04   1.1884E+06  0.000E+00  0.000E+00  0.000E+00  3.27475E+01  5.253E-01  2.000E+01  2.000E+04 -1.767E+00
   1   18   29     3     8    1.1884E+06 -4.6375E+04   1.2348E+06  0.000E+00  0.000E+00  0.000E+00  3.18695E+01  5.362E-01  2.000E+01  2.000E+04 -2.319E+00
   1   18   30     3     9    1.2348E+06 -4.3089E+04   1.2779E+06  0.000E+00  0.000E+00  0.000E+00  3.09924E+01  5.480E-01  2.000E+01  2.000E+04 -2.154E+00



1
              HEAD IN LAYER   1 AT END OF TIME STEP   1 IN STRESS PERIOD    7
  ---------------------------------------------------------------------------

          1      2      3      4      5      6      7      8      9     10
         11     12     13     14     15     16     17     18     19     20
         21     22     23     24     25     26     27     28     29     30
 .........................................................................
   1  ****** ****** ****** ****** ****** ****** ****** ****** ****** ******
      ****** ****** ****** ****** ****** ****** ****** ****** ****** ******
      ****** ****** ****** ****** ****** ****** ****** ****** ****** ******
   2  ****** ****** ****** ****** ****** ****** ****** ****** ****** ******
      ****** ****** ****** ****** ****** ****** ****** ****** ****** ******
      ****** ****** ****** ****** ****** ****** ****** ****** ****** ******
   3  ****** ****** ****** ****** ****** ****** ****** ****** ****** ******
      ****** ****** ****** ****** ****** ****** ****** ****** ****** ******
      ****** ****** ****** ****** ****** ****** ****** ****** ****** ******
   4  ****** ****** ****** ****** ****** ****** ****** ****** ****** ******
      ****** ****** ****** ****** ****** ****** ****** ****** ****** ******
      ****** ****** ****** ****** ****** ****** ****** ****** ****** ******
   5  ****** ****** ****** ****** ****** ****** ****** ****** ****** ******
      ****** ****** ****** ****** ****** ****** ****** ****** ****** ******
      ****** ****** ****** ****** ****** ****** ****** ****** ****** ******
   6  ****** ****** ****** ****** ****** ****** ****** ****** ****** ******
      ****** ****** ****** ****** ****** ****** ****** ****** ****** ******
      ****** ****** ****** ****** ****** ****** ****** ****** ****** ******
   7  ****** ****** ****** ****** ****** ****** ****** ****** ****** ******
      ****** ****** ****** ****** ****** ****** ****** ****** ****** ******
      ****** ****** ****** ****** ****** ****** ****** ****** ****** ******
   8  ****** ****** ****** ****** ****** ****** ****** ****** ****** ******
      ****** ****** ****** ****** ****** ****** ****** ****** ****** ******
      ****** ****** ****** ****** ****** ****** ****** ****** ****** ******
   9  ****** ****** ****** ****** ****** ****** ****** ****** ****** ******
      ****** ****** ****** ****** ****** ****** ****** ****** ****** ******
      ****** ****** ****** ****** ****** ****** ****** ****** ****** ******
  10  ****** ****** ****** ****** ****** ****** ****** ****** ****** ******
      ****** ****** ****** ****** ****** ****** ****** ****** ****** ******
      ****** ****** ****** ****** ****** ****** ****** ****** ****** ******
  11  ****** ****** ****** ****** ****** ****** ****** ****** ****** ******
      ****** ****** ****** ****** ****** ****** ****** ****** ****** ******
      ****** ****** ****** ****** ****** ****** ****** ****** ****** ******
  12  ****** ****** ****** ****** ****** ****** ****** ****** ****** ******
      ****** ****** ****** ****** ****** ****** ****** ****** ****** ******
      ****** ****** ****** ****** ****** ****** ****** ****** ****** ******
  13  ****** ****** ****** ****** ****** ****** ****** ****** ****** ******
      ****** ****** ****** ****** ****** ****** ****** ****** ****** ******
      ****** ****** ****** ****** ****** ****** ****** ****** ****** ******
  14  ****** ****** ****** ****** ****** ****** ****** ****** ****** ******
      ****** ****** ****** ****** ****** ****** ****** ****** ****** ******
      ****** ****** ****** ****** ****** ****** ****** ****** ****** ******
  15  ****** ****** ****** ****** ****** ****** ****** ****** ****** ******
      ****** ****** ****** ****** ****** ****** ****** ****** ****** ******
      ****** ****** ****** ****** ****** ****** ****** ****** ****** ******
  16  ****** ****** ****** ****** ****** ****** ****** ****** ****** ******
      ****** ****** ****** ****** ****** ****** ****** ****** ****** ******
      ****** ****** ****** ****** ****** ****** ****** ****** ****** ******
  17  ****** ****** ****** ****** ****** ****** ****** ****** ****** ******
      ****** ****** ****** ****** ****** ****** ****** ****** ****** ******
      ****** ****** ****** ****** ****** ****** ****** ****** ****** ******
  18  ****** ****** ****** ****** ****** ****** ****** ****** ****** ******
      ****** ****** ****** ****** ****** ****** ****** ****** ****** ******
      ****** ****** ****** ****** ****** ****** ****** ****** ****** ******
  19  ****** ****** ****** ****** ****** ****** ****** ****** ****** ******
      ****** ****** ****** ****** ****** ****** ****** ****** ****** ******
      ****** ****** ****** ****** ****** ****** ****** ****** ****** ******
  20  ****** ****** ****** ****** ****** ****** ****** ****** ****** ******
      ****** ****** ****** ****** ****** ****** ****** ****** ****** ******
      ****** ****** ****** ****** ****** ****** ****** ****** ****** ******
  21  ****** ****** ****** ****** ****** ****** ****** ****** ****** ******
      ****** ****** ****** ****** ****** ****** ****** ****** ****** ******
      ****** ****** ****** ****** ****** ****** ****** ****** ****** ******
  22  ****** ****** ****** ****** ****** ****** ****** ****** ****** ******
      ****** ****** ****** ****** ****** ****** ****** ****** ****** ******
      ****** ****** ****** ****** ****** ****** ****** ****** ****** ******
  23  ****** ****** ****** ****** ****** ****** ****** ****** ****** ******
      ****** ****** ****** ****** ****** ****** ****** ****** ****** ******
      ****** ****** ****** ****** ****** ****** ****** ****** ****** ******
  24  ****** ****** ****** ****** ****** ****** ****** ****** ****** ******
      ****** ****** ****** ****** ****** ****** ****** ****** ****** ******
      ****** ****** ****** ****** ****** ****** ****** ****** ****** ******
  25  ****** ****** ****** ****** ****** ****** ****** ****** ****** ******
      ****** ****** ****** ****** ****** ****** ****** ****** ****** ******
      ****** ****** ****** ****** ****** ****** ****** ****** ****** ******

 HEAD WILL BE SAVED ON UNIT   51 AT END OF TIME STEP    1, STRESS PERIOD    7
1
  VOLUMETRIC BUDGET FOR ENTIRE MODEL AT END OF TIME STEP    1, STRESS PERIOD   7
  ------------------------------------------------------------------------------

     CUMULATIVE VOLUMES      L**3       RATES FOR THIS TIME STEP      L**3/T
     ------------------                 ------------------------

           IN:                                      IN:
           ---                                      ---
             STORAGE =    20806280.1853               STORAGE =        3666.1297
       CONSTANT HEAD =   779690484.3245         CONSTANT HEAD =     1259200.3325
               WELLS =           0.0000                 WELLS =           0.0000
            RECHARGE =    15097200.0000              RECHARGE =           0.0000
      STREAM LEAKAGE =           0.0000        STREAM LEAKAGE =           0.0000

            TOTAL IN =   815593964.5097              TOTAL IN =     1262866.4621

          OUT:                                     OUT:
          ----                                     ----
             STORAGE =      475983.6177               STORAGE =           0.0000
       CONSTANT HEAD =           0.0000         CONSTANT HEAD =           0.0000
               WELLS =    70785136.5000                 WELLS =      135000.5000
            RECHARGE =           0.0000              RECHARGE =           0.0000
      STREAM LEAKAGE =   744332855.0441        STREAM LEAKAGE =     1127866.0016

           TOTAL OUT =   815593975.1618             TOTAL OUT =     1262866.5016

            IN - OUT =         -10.6520              IN - OUT =      -3.9465E-02

 PERCENT DISCREPANCY =          -0.00     PERCENT DISCREPANCY =          -0.00






         TIME SUMMARY AT END OF TIME STEP    1 IN STRESS PERIOD    7
                    SECONDS     MINUTES      HOURS       DAYS        YEARS
                    -----------------------------------------------------------
   TIME STEP LENGTH 7.86240E+06 1.31040E+05  2184.0      91.000     0.24914    
 STRESS PERIOD TIME 7.86240E+06 1.31040E+05  2184.0      91.000     0.24914    
         TOTAL TIME 5.52096E+07 9.20160E+05  15336.      639.00      1.7495    
1
1
                            STRESS PERIOD NO.    8, LENGTH =   91.00000    
                            -----------------------------------------------

                              NUMBER OF TIME STEPS =     1

                               MULTIPLIER FOR DELT =     1.500

                            INITIAL TIME STEP SIZE =   91.00000    

 WELL NO.  LAYER   ROW   COL   STRESS RATE         
 --------------------------------------------------
      1      1     22     22     -0.3000E+05
      2      1      2     29       0.000    
      3      1      5     21     -0.5500E+05

      3 WELLS

                 RECHARGE =  1.000000E-03

 REUSING STREAM SEGMENT DATA FROM LAST STRESS PERIOD
 
 SOLVING FOR HEAD 


     6 CALLS TO PCG ROUTINE FOR TIME STEP   1 IN STRESS PERIOD    8
    22 TOTAL ITERATIONS

 OUTPUT CONTROL FOR STRESS PERIOD    8   TIME STEP    1
    SAVE BUDGET
    SAVE HEAD FOR ALL LAYERS
    PRINT HEAD FOR ALL LAYERS
 UBDSV2 SAVING "STREAMFLOW OUT  " ON UNIT  50 AT TIME STEP  1, STRESS PERIOD   8



 STREAM LISTING     PERIOD      8   STEP        1

 LAYER ROW COL. STREAM  RCH.  FLOW INTO     FLOW TO   FLOW OUT OF   OVRLND.     DIRECT     STREAM       STREAM     STREAM     STREAM   STREAMBED  STREAMBED
                SEG.NO.  NO.  STRM. RCH.    AQUIFER    STRM. RCH.    RUNOFF     PRECIP       ET          HEAD       DEPTH      WIDTH   CONDCTNC.   GRADIENT

   1   13    1     1     1    1.0000E+05 -2.7835E+04   1.2783E+05  0.000E+00  0.000E+00  0.000E+00  4.84178E+01  1.564E-01  2.000E+01  2.000E+04 -1.392E+00
   1   13    2     1     2    1.2783E+05 -3.7565E+04   1.6540E+05  0.000E+00  0.000E+00  0.000E+00  4.79661E+01  1.820E-01  2.000E+01  2.000E+04 -1.878E+00
   1   14    3     1     3    1.6540E+05 -3.3055E+04   1.9846E+05  0.000E+00  0.000E+00  0.000E+00  4.75140E+01  2.071E-01  2.000E+01  2.000E+04 -1.653E+00
   1   15    4     1     4    1.9846E+05 -3.2300E+04   2.3075E+05  0.000E+00  0.000E+00  0.000E+00  4.70583E+01  2.287E-01  2.000E+01  2.000E+04 -1.615E+00
   1   16    5     1     5    2.3075E+05 -3.3832E+04   2.6459E+05  0.000E+00  0.000E+00  0.000E+00  4.66015E+01  2.493E-01  2.000E+01  2.000E+04 -1.692E+00
   1   16    6     1     6    2.6459E+05 -2.9548E+04   2.9414E+05  0.000E+00  0.000E+00  0.000E+00  4.61429E+01  2.679E-01  2.000E+01  2.000E+04 -1.477E+00
   1   16    7     1     7    2.9414E+05 -2.9361E+04   3.2350E+05  0.000E+00  0.000E+00  0.000E+00  4.56823E+01  2.845E-01  2.000E+01  2.000E+04 -1.468E+00
   1   16    8     1     8    3.2350E+05 -2.9535E+04   3.5303E+05  0.000E+00  0.000E+00  0.000E+00  4.52210E+01  3.005E-01  2.000E+01  2.000E+04 -1.477E+00
   1   16    9     1     9    3.5303E+05 -2.9604E+04   3.8264E+05  0.000E+00  0.000E+00  0.000E+00  4.47592E+01  3.160E-01  2.000E+01  2.000E+04 -1.480E+00
   1   16   10     1    10    3.8264E+05 -2.9618E+04   4.1225E+05  0.000E+00  0.000E+00  0.000E+00  4.42970E+01  3.310E-01  2.000E+01  2.000E+04 -1.481E+00
   1   16   11     1    11    4.1225E+05 -3.0198E+04   4.4245E+05  0.000E+00  0.000E+00  0.000E+00  4.38344E+01  3.458E-01  2.000E+01  2.000E+04 -1.510E+00
   1   16   12     1    12    4.4245E+05 -3.5644E+04   4.7810E+05  0.000E+00  0.000E+00  0.000E+00  4.33729E+01  3.615E-01  2.000E+01  2.000E+04 -1.782E+00
   1   15   13     1    13    4.7810E+05 -3.4286E+04   5.1238E+05  0.000E+00  0.000E+00  0.000E+00  4.29118E+01  3.778E-01  2.000E+01  2.000E+04 -1.714E+00
   1   14   14     1    14    5.1238E+05 -3.4747E+04   5.4713E+05  0.000E+00  0.000E+00  0.000E+00  4.24502E+01  3.933E-01  2.000E+01  2.000E+04 -1.737E+00
   1   13   15     1    15    5.4713E+05 -3.6763E+04   5.8389E+05  0.000E+00  0.000E+00  0.000E+00  4.19886E+01  4.091E-01  2.000E+01  2.000E+04 -1.838E+00
   1   12   16     1    16    5.8389E+05 -4.2355E+04   6.2625E+05  0.000E+00  0.000E+00  0.000E+00  4.15283E+01  4.260E-01  2.000E+01  2.000E+04 -2.118E+00
   1   12   17     1    17    6.2625E+05 -3.2855E+04   6.5910E+05  0.000E+00  0.000E+00  0.000E+00  4.10667E+01  4.417E-01  2.000E+01  2.000E+04 -1.643E+00
   1   12   18     1    18    6.5910E+05 -3.1016E+04   6.9012E+05  0.000E+00  0.000E+00  0.000E+00  4.06025E+01  4.547E-01  2.000E+01  2.000E+04 -1.551E+00
   1   12   19     1    19    6.9012E+05 -3.4590E+04   7.2471E+05  0.000E+00  0.000E+00  0.000E+00  4.01383E+01  4.679E-01  2.000E+01  2.000E+04 -1.730E+00
   1   13   20     1    20    7.2471E+05 -2.5487E+04   7.5020E+05  0.000E+00  0.000E+00  0.000E+00  3.96729E+01  4.797E-01  2.000E+01  2.000E+04 -1.274E+00
   1   14   21     1    21    7.5020E+05 -1.8793E+04   7.6899E+05  0.000E+00  0.000E+00  0.000E+00  3.92042E+01  4.883E-01  2.000E+01  2.000E+04 -9.396E-01
   1   14   22     1    22    7.6899E+05 -1.3441E+03   7.7033E+05  0.000E+00  0.000E+00  0.000E+00  3.87308E+01  4.922E-01  2.000E+01  2.000E+04 -6.720E-02
   1    9   30     2     1    5.0000E+04 -2.5980E+04   7.5980E+04  0.000E+00  0.000E+00  0.000E+00  4.02581E+01  1.331E-01  2.000E+01  2.000E+04 -1.299E+00
   1    9   29     2     2    7.5980E+04 -2.8348E+04   1.0433E+05  0.000E+00  0.000E+00  0.000E+00  4.00400E+01  1.650E-01  2.000E+01  2.000E+04 -1.417E+00
   1    9   28     2     3    1.0433E+05 -3.2365E+04   1.3669E+05  0.000E+00  0.000E+00  0.000E+00  3.98214E+01  1.964E-01  2.000E+01  2.000E+04 -1.618E+00
   1    9   27     2     4    1.3669E+05 -4.5671E+04   1.8236E+05  0.000E+00  0.000E+00  0.000E+00  3.96074E+01  2.324E-01  2.000E+01  2.000E+04 -2.284E+00
   1   10   26     2     5    1.8236E+05 -3.1660E+04   2.1402E+05  0.000E+00  0.000E+00  0.000E+00  3.93897E+01  2.647E-01  2.000E+01  2.000E+04 -1.583E+00
   1   11   25     2     6    2.1402E+05 -2.3452E+04   2.3748E+05  0.000E+00  0.000E+00  0.000E+00  3.91613E+01  2.863E-01  2.000E+01  2.000E+04 -1.173E+00
   1   12   24     2     7    2.3748E+05 -1.7185E+04   2.5466E+05  0.000E+00  0.000E+00  0.000E+00  3.89264E+01  3.014E-01  2.000E+01  2.000E+04 -8.592E-01
   1   13   23     2     8    2.5466E+05 -1.2251E+04   2.6691E+05  0.000E+00  0.000E+00  0.000E+00  3.86871E+01  3.121E-01  2.000E+01  2.000E+04 -6.126E-01
   1   14   22     2     9    2.6691E+05 -7.0794E+03   2.7399E+05  0.000E+00  0.000E+00  0.000E+00  3.84440E+01  3.190E-01  2.000E+01  2.000E+04 -3.540E-01
   1   14   22     3     1    1.0443E+06 -1.4998E+04   1.0593E+06  0.000E+00  0.000E+00  0.000E+00  3.80481E+01  4.926E-01  2.000E+01  2.000E+04 -7.499E-01
   1   15   23     3     2    1.0593E+06 -2.2803E+04   1.0821E+06  0.000E+00  0.000E+00  0.000E+00  3.71645E+01  4.979E-01  2.000E+01  2.000E+04 -1.140E+00
   1   15   24     3     3    1.0821E+06 -1.9077E+04   1.1012E+06  0.000E+00  0.000E+00  0.000E+00  3.62815E+01  5.037E-01  2.000E+01  2.000E+04 -9.539E-01
   1   15   25     3     4    1.1012E+06 -1.8809E+04   1.1200E+06  0.000E+00  0.000E+00  0.000E+00  3.53978E+01  5.089E-01  2.000E+01  2.000E+04 -9.404E-01
   1   15   26     3     5    1.1200E+06 -2.1673E+04   1.1417E+06  0.000E+00  0.000E+00  0.000E+00  3.45144E+01  5.144E-01  2.000E+01  2.000E+04 -1.084E+00
   1   16   27     3     6    1.1417E+06 -2.8678E+04   1.1704E+06  0.000E+00  0.000E+00  0.000E+00  3.36324E+01  5.213E-01  2.000E+01  2.000E+04 -1.434E+00
   1   17   28     3     7    1.1704E+06 -3.5703E+04   1.2061E+06  0.000E+00  0.000E+00  0.000E+00  3.27522E+01  5.300E-01  2.000E+01  2.000E+04 -1.785E+00
   1   18   29     3     8    1.2061E+06 -4.6705E+04   1.2528E+06  0.000E+00  0.000E+00  0.000E+00  3.18742E+01  5.409E-01  2.000E+01  2.000E+04 -2.335E+00
   1   18   30     3     9    1.2528E+06 -4.3367E+04   1.2961E+06  0.000E+00  0.000E+00  0.000E+00  3.09972E+01  5.527E-01  2.000E+01  2.000E+04 -2.168E+00



1
              HEAD IN LAYER   1 AT END OF TIME STEP   1 IN STRESS PERIOD    8
  ---------------------------------------------------------------------------

          1      2      3      4      5      6      7      8      9     10
         11     12     13     14     15     16     17     18     19     20
         21     22     23     24     25     26     27     28     29     30
 .........................................................................
   1  ****** ****** ****** ****** ****** ****** ****** ****** ****** ******
      ****** ****** ****** ****** ****** ****** ****** ****** ****** ******
      ****** ****** ****** ****** ****** ****** ****** ****** ****** ******
   2  ****** ****** ****** ****** ****** ****** ****** ****** ****** ******
      ****** ****** ****** ****** ****** ****** ****** ****** ****** ******
      ****** ****** ****** ****** ****** ****** ****** ****** ****** ******
   3  ****** ****** ****** ****** ****** ****** ****** ****** ****** ******
      ****** ****** ****** ****** ****** ****** ****** ****** ****** ******
      ****** ****** ****** ****** ****** ****** ****** ****** ****** ******
   4  ****** ****** ****** ****** ****** ****** ****** ****** ****** ******
      ****** ****** ****** ****** ****** ****** ****** ****** ****** ******
      ****** ****** ****** ****** ****** ****** ****** ****** ****** ******
   5  ****** ****** ****** ****** ****** ****** ****** ****** ****** ******
      ****** ****** ****** ****** ****** ****** ****** ****** ****** ******
      ****** ****** ****** ****** ****** ****** ****** ****** ****** ******
   6  ****** ****** ****** ****** ****** ****** ****** ****** ****** ******
      ****** ****** ****** ****** ****** ****** ****** ****** ****** ******
      ****** ****** ****** ****** ****** ****** ****** ****** ****** ******
   7  ****** ****** ****** ****** ****** ****** ****** ****** ****** ******
      ****** ****** ****** ****** ****** ****** ****** ****** ****** ******
      ****** ****** ****** ****** ****** ****** ****** ****** ****** ******
   8  ****** ****** ****** ****** ****** ****** ****** ****** ****** ******
      ****** ****** ****** ****** ****** ****** ****** ****** ****** ******
      ****** ****** ****** ****** ****** ****** ****** ****** ****** ******
   9  ****** ****** ****** ****** ****** ****** ****** ****** ****** ******
      ****** ****** ****** ****** ****** ****** ****** ****** ****** ******
      ****** ****** ****** ****** ****** ****** ****** ****** ****** ******
  10  ****** ****** ****** ****** ****** ****** ****** ****** ****** ******
      ****** ****** ****** ****** ****** ****** ****** ****** ****** ******
      ****** ****** ****** ****** ****** ****** ****** ****** ****** ******
  11  ****** ****** ****** ****** ****** ****** ****** ****** ****** ******
      ****** ****** ****** ****** ****** ****** ****** ****** ****** ******
      ****** ****** ****** ****** ****** ****** ****** ****** ****** ******
  12  ****** ****** ****** ****** ****** ****** ****** ****** ****** ******
      ****** ****** ****** ****** ****** ****** ****** ****** ****** ******
      ****** ****** ****** ****** ****** ****** ****** ****** ****** ******
  13  ****** ****** ****** ****** ****** ****** ****** ****** ****** ******
      ****** ****** ****** ****** ****** ****** ****** ****** ****** ******
      ****** ****** ****** ****** ****** ****** ****** ****** ****** ******
  14  ****** ****** ****** ****** ****** ****** ****** ****** ****** ******
      ****** ****** ****** ****** ****** ****** ****** ****** ****** ******
      ****** ****** ****** ****** ****** ****** ****** ****** ****** ******
  15  ****** ****** ****** ****** ****** ****** ****** ****** ****** ******
      ****** ****** ****** ****** ****** ****** ****** ****** ****** ******
      ****** ****** ****** ****** ****** ****** ****** ****** ****** ******
  16  ****** ****** ****** ****** ****** ****** ****** ****** ****** ******
      ****** ****** ****** ****** ****** ****** ****** ****** ****** ******
      ****** ****** ****** ****** ****** ****** ****** ****** ****** ******
  17  ****** ****** ****** ****** ****** ****** ****** ****** ****** ******
      ****** ****** ****** ****** ****** ****** ****** ****** ****** ******
      ****** ****** ****** ****** ****** ****** ****** ****** ****** ******
  18  ****** ****** ****** ****** ****** ****** ****** ****** ****** ******
      ****** ****** ****** ****** ****** ****** ****** ****** ****** ******
      ****** ****** ****** ****** ****** ****** ****** ****** ****** ******
  19  ****** ****** ****** ****** ****** ****** ****** ****** ****** ******
      ****** ****** ****** ****** ****** ****** ****** ****** ****** ******
      ****** ****** ****** ****** ****** ****** ****** ****** ****** ******
  20  ****** ****** ****** ****** ****** ****** ****** ****** ****** ******
      ****** ****** ****** ****** ****** ****** ****** ****** ****** ******
      ****** ****** ****** ****** ****** ****** ****** ****** ****** ******
  21  ****** ****** ****** ****** ****** ****** ****** ****** ****** ******
      ****** ****** ****** ****** ****** ****** ****** ****** ****** ******
      ****** ****** ****** ****** ****** ****** ****** ****** ****** ******
  22  ****** ****** ****** ****** ****** ****** ****** ****** ****** ******
      ****** ****** ****** ****** ****** ****** ****** ****** ****** ******
      ****** ****** ****** ****** ****** ****** ****** ****** ****** ******
  23  ****** ****** ****** ****** ****** ****** ****** ****** ****** ******
      ****** ****** ****** ****** ****** ****** ****** ****** ****** ******
      ****** ****** ****** ****** ****** ****** ****** ****** ****** ******
  24  ****** ****** ****** ****** ****** ****** ****** ****** ****** ******
      ****** ****** ****** ****** ****** ****** ****** ****** ****** ******
      ****** ****** ****** ****** ****** ****** ****** ****** ****** ******
  25  ****** ****** ****** ****** ****** ****** ****** ****** ****** ******
      ****** ****** ****** ****** ****** ****** ****** ****** ****** ******
      ****** ****** ****** ****** ****** ****** ****** ****** ****** ******

 HEAD WILL BE SAVED ON UNIT   51 AT END OF TIME STEP    1, STRESS PERIOD    8
1
  VOLUMETRIC BUDGET FOR ENTIRE MODEL AT END OF TIME STEP    1, STRESS PERIOD   8
  ------------------------------------------------------------------------------

     CUMULATIVE VOLUMES      L**3       RATES FOR THIS TIME STEP      L**3/T
     ------------------                 ------------------------

           IN:                                      IN:
           ---                                      ---
             STORAGE =    20806280.1853               STORAGE =           0.0000
       CONSTANT HEAD =   889394582.1703         CONSTANT HEAD =     1205539.5368
               WELLS =           0.0000                 WELLS =           0.0000
            RECHARGE =    17608800.0000              RECHARGE =       27600.0000
      STREAM LEAKAGE =           0.0000        STREAM LEAKAGE =           0.0000

            TOTAL IN =   927809662.3556              TOTAL IN =     1233139.5368

          OUT:                                     OUT:
          ----                                     ----
             STORAGE =      657997.3993               STORAGE =        2000.1514
       CONSTANT HEAD =           0.0000         CONSTANT HEAD =           0.0000
               WELLS =    78520182.0000                 WELLS =       85000.5000
            RECHARGE =           0.0000              RECHARGE =           0.0000
      STREAM LEAKAGE =   848631491.3096        STREAM LEAKAGE =     1146138.8601

           TOTAL OUT =   927809670.7088             TOTAL OUT =     1233139.5115

            IN - OUT =          -8.3532              IN - OUT =       2.5261E-02

 PERCENT DISCREPANCY =          -0.00     PERCENT DISCREPANCY =           0.00






         TIME SUMMARY AT END OF TIME STEP    1 IN STRESS PERIOD    8
                    SECONDS     MINUTES      HOURS       DAYS        YEARS
                    -----------------------------------------------------------
   TIME STEP LENGTH 7.86240E+06 1.31040E+05  2184.0      91.000     0.24914    
 STRESS PERIOD TIME 7.86240E+06 1.31040E+05  2184.0      91.000     0.24914    
         TOTAL TIME 6.30720E+07 1.05120E+06  17520.      730.00      1.9986    
1
1
                            STRESS PERIOD NO.    9, LENGTH =   92.00000    
                            -----------------------------------------------

                              NUMBER OF TIME STEPS =     1

                               MULTIPLIER FOR DELT =     1.500

                            INITIAL TIME STEP SIZE =   92.00000    

 WELL NO.  LAYER   ROW   COL   STRESS RATE         
 --------------------------------------------------
      1      1     22     22     -0.3000E+05
      2      1      2     29     -0.5000E+05
      3      1      5     21     -0.5000E+05

      3 WELLS

                 RECHARGE =  5.000000E-04

 REUSING STREAM SEGMENT DATA FROM LAST STRESS PERIOD
 
 SOLVING FOR HEAD 


     6 CALLS TO PCG ROUTINE FOR TIME STEP   1 IN STRESS PERIOD    9
    22 TOTAL ITERATIONS

 OUTPUT CONTROL FOR STRESS PERIOD    9   TIME STEP    1
    SAVE BUDGET
    SAVE HEAD FOR ALL LAYERS
    PRINT HEAD FOR ALL LAYERS
 UBDSV2 SAVING "STREAMFLOW OUT  " ON UNIT  50 AT TIME STEP  1, STRESS PERIOD   9



 STREAM LISTING     PERIOD      9   STEP        1

 LAYER ROW COL. STREAM  RCH.  FLOW INTO     FLOW TO   FLOW OUT OF   OVRLND.     DIRECT     STREAM       STREAM     STREAM     STREAM   STREAMBED  STREAMBED
                SEG.NO.  NO.  STRM. RCH.    AQUIFER    STRM. RCH.    RUNOFF     PRECIP       ET          HEAD       DEPTH      WIDTH   CONDCTNC.   GRADIENT

   1   13    1     1     1    1.0000E+05 -2.7640E+04   1.2764E+05  0.000E+00  0.000E+00  0.000E+00  4.84177E+01  1.563E-01  2.000E+01  2.000E+04 -1.382E+00
   1   13    2     1     2    1.2764E+05 -3.7334E+04   1.6497E+05  0.000E+00  0.000E+00  0.000E+00  4.79658E+01  1.818E-01  2.000E+01  2.000E+04 -1.867E+00
   1   14    3     1     3    1.6497E+05 -3.2826E+04   1.9780E+05  0.000E+00  0.000E+00  0.000E+00  4.75136E+01  2.068E-01  2.000E+01  2.000E+04 -1.641E+00
   1   15    4     1     4    1.9780E+05 -3.2078E+04   2.2988E+05  0.000E+00  0.000E+00  0.000E+00  4.70578E+01  2.282E-01  2.000E+01  2.000E+04 -1.604E+00
   1   16    5     1     5    2.2988E+05 -3.3630E+04   2.6351E+05  0.000E+00  0.000E+00  0.000E+00  4.66009E+01  2.487E-01  2.000E+01  2.000E+04 -1.682E+00
   1   16    6     1     6    2.6351E+05 -2.9374E+04   2.9288E+05  0.000E+00  0.000E+00  0.000E+00  4.61423E+01  2.673E-01  2.000E+01  2.000E+04 -1.469E+00
   1   16    7     1     7    2.9288E+05 -2.9189E+04   3.2207E+05  0.000E+00  0.000E+00  0.000E+00  4.56815E+01  2.838E-01  2.000E+01  2.000E+04 -1.459E+00
   1   16    8     1     8    3.2207E+05 -2.9363E+04   3.5143E+05  0.000E+00  0.000E+00  0.000E+00  4.52202E+01  2.997E-01  2.000E+01  2.000E+04 -1.468E+00
   1   16    9     1     9    3.5143E+05 -2.9433E+04   3.8087E+05  0.000E+00  0.000E+00  0.000E+00  4.47583E+01  3.152E-01  2.000E+01  2.000E+04 -1.472E+00
   1   16   10     1    10    3.8087E+05 -2.9448E+04   4.1032E+05  0.000E+00  0.000E+00  0.000E+00  4.42960E+01  3.301E-01  2.000E+01  2.000E+04 -1.472E+00
   1   16   11     1    11    4.1032E+05 -3.0026E+04   4.4034E+05  0.000E+00  0.000E+00  0.000E+00  4.38334E+01  3.448E-01  2.000E+01  2.000E+04 -1.501E+00
   1   16   12     1    12    4.4034E+05 -3.5442E+04   4.7578E+05  0.000E+00  0.000E+00  0.000E+00  4.33718E+01  3.605E-01  2.000E+01  2.000E+04 -1.772E+00
   1   15   13     1    13    4.7578E+05 -3.4069E+04   5.0985E+05  0.000E+00  0.000E+00  0.000E+00  4.29107E+01  3.766E-01  2.000E+01  2.000E+04 -1.703E+00
   1   14   14     1    14    5.0985E+05 -3.4531E+04   5.4438E+05  0.000E+00  0.000E+00  0.000E+00  4.24490E+01  3.922E-01  2.000E+01  2.000E+04 -1.727E+00
   1   13   15     1    15    5.4438E+05 -3.6562E+04   5.8095E+05  0.000E+00  0.000E+00  0.000E+00  4.19874E+01  4.078E-01  2.000E+01  2.000E+04 -1.828E+00
   1   12   16     1    16    5.8095E+05 -4.2191E+04   6.2314E+05  0.000E+00  0.000E+00  0.000E+00  4.15270E+01  4.247E-01  2.000E+01  2.000E+04 -2.110E+00
   1   12   17     1    17    6.2314E+05 -3.2731E+04   6.5587E+05  0.000E+00  0.000E+00  0.000E+00  4.10654E+01  4.404E-01  2.000E+01  2.000E+04 -1.637E+00
   1   12   18     1    18    6.5587E+05 -3.0905E+04   6.8677E+05  0.000E+00  0.000E+00  0.000E+00  4.06011E+01  4.534E-01  2.000E+01  2.000E+04 -1.545E+00
   1   12   19     1    19    6.8677E+05 -3.4476E+04   7.2125E+05  0.000E+00  0.000E+00  0.000E+00  4.01370E+01  4.665E-01  2.000E+01  2.000E+04 -1.724E+00
   1   13   20     1    20    7.2125E+05 -2.5341E+04   7.4659E+05  0.000E+00  0.000E+00  0.000E+00  3.96715E+01  4.783E-01  2.000E+01  2.000E+04 -1.267E+00
   1   14   21     1    21    7.4659E+05 -1.8644E+04   7.6524E+05  0.000E+00  0.000E+00  0.000E+00  3.92028E+01  4.869E-01  2.000E+01  2.000E+04 -9.322E-01
   1   14   22     1    22    7.6524E+05 -1.2688E+03   7.6650E+05  0.000E+00  0.000E+00  0.000E+00  3.87293E+01  4.907E-01  2.000E+01  2.000E+04 -6.344E-02
   1    9   30     2     1    5.0000E+04 -2.4920E+04   7.4920E+04  0.000E+00  0.000E+00  0.000E+00  4.02574E+01  1.324E-01  2.000E+01  2.000E+04 -1.246E+00
   1    9   29     2     2    7.4920E+04 -2.7348E+04   1.0227E+05  0.000E+00  0.000E+00  0.000E+00  4.00383E+01  1.633E-01  2.000E+01  2.000E+04 -1.367E+00
   1    9   28     2     3    1.0227E+05 -3.1453E+04   1.3372E+05  0.000E+00  0.000E+00  0.000E+00  3.98189E+01  1.939E-01  2.000E+01  2.000E+04 -1.573E+00
   1    9   27     2     4    1.3372E+05 -4.4780E+04   1.7850E+05  0.000E+00  0.000E+00  0.000E+00  3.96044E+01  2.294E-01  2.000E+01  2.000E+04 -2.239E+00
   1   10   26     2     5    1.7850E+05 -3.1196E+04   2.0970E+05  0.000E+00  0.000E+00  0.000E+00  3.93864E+01  2.614E-01  2.000E+01  2.000E+04 -1.560E+00
   1   11   25     2     6    2.0970E+05 -2.3180E+04   2.3288E+05  0.000E+00  0.000E+00  0.000E+00  3.91578E+01  2.828E-01  2.000E+01  2.000E+04 -1.159E+00
   1   12   24     2     7    2.3288E+05 -1.7013E+04   2.4989E+05  0.000E+00  0.000E+00  0.000E+00  3.89230E+01  2.980E-01  2.000E+01  2.000E+04 -8.506E-01
   1   13   23     2     8    2.4989E+05 -1.2139E+04   2.6203E+05  0.000E+00  0.000E+00  0.000E+00  3.86837E+01  3.087E-01  2.000E+01  2.000E+04 -6.070E-01
   1   14   22     2     9    2.6203E+05 -7.0447E+03   2.6907E+05  0.000E+00  0.000E+00  0.000E+00  3.84405E+01  3.155E-01  2.000E+01  2.000E+04 -3.522E-01
   1   14   22     3     1    1.0356E+06 -1.4943E+04   1.0505E+06  0.000E+00  0.000E+00  0.000E+00  3.80457E+01  4.901E-01  2.000E+01  2.000E+04 -7.471E-01
   1   15   23     3     2    1.0505E+06 -2.2658E+04   1.0732E+06  0.000E+00  0.000E+00  0.000E+00  3.71620E+01  4.954E-01  2.000E+01  2.000E+04 -1.133E+00
   1   15   24     3     3    1.0732E+06 -1.8952E+04   1.0921E+06  0.000E+00  0.000E+00  0.000E+00  3.62790E+01  5.012E-01  2.000E+01  2.000E+04 -9.476E-01
   1   15   25     3     4    1.0921E+06 -1.8678E+04   1.1108E+06  0.000E+00  0.000E+00  0.000E+00  3.53953E+01  5.064E-01  2.000E+01  2.000E+04 -9.339E-01
   1   15   26     3     5    1.1108E+06 -2.1511E+04   1.1323E+06  0.000E+00  0.000E+00  0.000E+00  3.45119E+01  5.119E-01  2.000E+01  2.000E+04 -1.076E+00
   1   16   27     3     6    1.1323E+06 -2.8491E+04   1.1608E+06  0.000E+00  0.000E+00  0.000E+00  3.36298E+01  5.187E-01  2.000E+01  2.000E+04 -1.425E+00
   1   17   28     3     7    1.1608E+06 -3.5517E+04   1.1963E+06  0.000E+00  0.000E+00  0.000E+00  3.27496E+01  5.274E-01  2.000E+01  2.000E+04 -1.776E+00
   1   18   29     3     8    1.1963E+06 -4.6537E+04   1.2429E+06  0.000E+00  0.000E+00  0.000E+00  3.18716E+01  5.383E-01  2.000E+01  2.000E+04 -2.327E+00
   1   18   30     3     9    1.2429E+06 -4.3224E+04   1.2861E+06  0.000E+00  0.000E+00  0.000E+00  3.09946E+01  5.501E-01  2.000E+01  2.000E+04 -2.161E+00



1
              HEAD IN LAYER   1 AT END OF TIME STEP   1 IN STRESS PERIOD    9
  ---------------------------------------------------------------------------

          1      2      3      4      5      6      7      8      9     10
         11     12     13     14     15     16     17     18     19     20
         21     22     23     24     25     26     27     28     29     30
 .........................................................................
   1  ****** ****** ****** ****** ****** ****** ****** ****** ****** ******
      ****** ****** ****** ****** ****** ****** ****** ****** ****** ******
      ****** ****** ****** ****** ****** ****** ****** ****** ****** ******
   2  ****** ****** ****** ****** ****** ****** ****** ****** ****** ******
      ****** ****** ****** ****** ****** ****** ****** ****** ****** ******
      ****** ****** ****** ****** ****** ****** ****** ****** ****** ******
   3  ****** ****** ****** ****** ****** ****** ****** ****** ****** ******
      ****** ****** ****** ****** ****** ****** ****** ****** ****** ******
      ****** ****** ****** ****** ****** ****** ****** ****** ****** ******
   4  ****** ****** ****** ****** ****** ****** ****** ****** ****** ******
      ****** ****** ****** ****** ****** ****** ****** ****** ****** ******
      ****** ****** ****** ****** ****** ****** ****** ****** ****** ******
   5  ****** ****** ****** ****** ****** ****** ****** ****** ****** ******
      ****** ****** ****** ****** ****** ****** ****** ****** ****** ******
      ****** ****** ****** ****** ****** ****** ****** ****** ****** ******
   6  ****** ****** ****** ****** ****** ****** ****** ****** ****** ******
      ****** ****** ****** ****** ****** ****** ****** ****** ****** ******
      ****** ****** ****** ****** ****** ****** ****** ****** ****** ******
   7  ****** ****** ****** ****** ****** ****** ****** ****** ****** ******
      ****** ****** ****** ****** ****** ****** ****** ****** ****** ******
      ****** ****** ****** ****** ****** ****** ****** ****** ****** ******
   8  ****** ****** ****** ****** ****** ****** ****** ****** ****** ******
      ****** ****** ****** ****** ****** ****** ****** ****** ****** ******
      ****** ****** ****** ****** ****** ****** ****** ****** ****** ******
   9  ****** ****** ****** ****** ****** ****** ****** ****** ****** ******
      ****** ****** ****** ****** ****** ****** ****** ****** ****** ******
      ****** ****** ****** ****** ****** ****** ****** ****** ****** ******
  10  ****** ****** ****** ****** ****** ****** ****** ****** ****** ******
      ****** ****** ****** ****** ****** ****** ****** ****** ****** ******
      ****** ****** ****** ****** ****** ****** ****** ****** ****** ******
  11  ****** ****** ****** ****** ****** ****** ****** ****** ****** ******
      ****** ****** ****** ****** ****** ****** ****** ****** ****** ******
      ****** ****** ****** ****** ****** ****** ****** ****** ****** ******
  12  ****** ****** ****** ****** ****** ****** ****** ****** ****** ******
      ****** ****** ****** ****** ****** ****** ****** ****** ****** ******
      ****** ****** ****** ****** ****** ****** ****** ****** ****** ******
  13  ****** ****** ****** ****** ****** ****** ****** ****** ****** ******
      ****** ****** ****** ****** ****** ****** ****** ****** ****** ******
      ****** ****** ****** ****** ****** ****** ****** ****** ****** ******
  14  ****** ****** ****** ****** ****** ****** ****** ****** ****** ******
      ****** ****** ****** ****** ****** ****** ****** ****** ****** ******
      ****** ****** ****** ****** ****** ****** ****** ****** ****** ******
  15  ****** ****** ****** ****** ****** ****** ****** ****** ****** ******
      ****** ****** ****** ****** ****** ****** ****** ****** ****** ******
      ****** ****** ****** ****** ****** ****** ****** ****** ****** ******
  16  ****** ****** ****** ****** ****** ****** ****** ****** ****** ******
      ****** ****** ****** ****** ****** ****** ****** ****** ****** ******
      ****** ****** ****** ****** ****** ****** ****** ****** ****** ******
  17  ****** ****** ****** ****** ****** ****** ****** ****** ****** ******
      ****** ****** ****** ****** ****** ****** ****** ****** ****** ******
      ****** ****** ****** ****** ****** ****** ****** ****** ****** ******
  18  ****** ****** ****** ****** ****** ****** ****** ****** ****** ******
      ****** ****** ****** ****** ****** ****** ****** ****** ****** ******
      ****** ****** ****** ****** ****** ****** ****** ****** ****** ******
  19  ****** ****** ****** ****** ****** ****** ****** ****** ****** ******
      ****** ****** ****** ****** ****** ****** ****** ****** ****** ******
      ****** ****** ****** ****** ****** ****** ****** ****** ****** ******
  20  ****** ****** ****** ****** ****** ****** ****** ****** ****** ******
      ****** ****** ****** ****** ****** ****** ****** ****** ****** ******
      ****** ****** ****** ****** ****** ****** ****** ****** ****** ******
  21  ****** ****** ****** ****** ****** ****** ****** ****** ****** ******
      ****** ****** ****** ****** ****** ****** ****** ****** ****** ******
      ****** ****** ****** ****** ****** ****** ****** ****** ****** ******
  22  ****** ****** ****** ****** ****** ****** ****** ****** ****** ******
      ****** ****** ****** ****** ****** ****** ****** ****** ****** ******
      ****** ****** ****** ****** ****** ****** ****** ****** ****** ******
  23  ****** ****** ****** ****** ****** ****** ****** ****** ****** ******
      ****** ****** ****** ****** ****** ****** ****** ****** ****** ******
      ****** ****** ****** ****** ****** ****** ****** ****** ****** ******
  24  ****** ****** ****** ****** ****** ****** ****** ****** ****** ******
      ****** ****** ****** ****** ****** ****** ****** ****** ****** ******
      ****** ****** ****** ****** ****** ****** ****** ****** ****** ******
  25  ****** ****** ****** ****** ****** ****** ****** ****** ****** ******
      ****** ****** ****** ****** ****** ****** ****** ****** ****** ******
      ****** ****** ****** ****** ****** ****** ****** ****** ****** ******

 HEAD WILL BE SAVED ON UNIT   51 AT END OF TIME STEP    1, STRESS PERIOD    9
1
  VOLUMETRIC BUDGET FOR ENTIRE MODEL AT END OF TIME STEP    1, STRESS PERIOD   9
  ------------------------------------------------------------------------------

     CUMULATIVE VOLUMES      L**3       RATES FOR THIS TIME STEP      L**3/T
     ------------------                 ------------------------

           IN:                                      IN:
           ---                                      ---
             STORAGE =    20914463.9925               STORAGE =        1175.9109
       CONSTANT HEAD =  1004501533.5661         CONSTANT HEAD =     1251162.5152
               WELLS =           0.0000                 WELLS =           0.0000
            RECHARGE =    18878400.0000              RECHARGE =       13800.0000
      STREAM LEAKAGE =           0.0000        STREAM LEAKAGE =           0.0000

            TOTAL IN =  1044294397.5586              TOTAL IN =     1266138.4261

          OUT:                                     OUT:
          ----                                     ----
             STORAGE =      662670.7634               STORAGE =          50.7974
       CONSTANT HEAD =           0.0000         CONSTANT HEAD =           0.0000
               WELLS =    90480182.0000                 WELLS =      130000.0000
            RECHARGE =           0.0000              RECHARGE =           0.0000
      STREAM LEAKAGE =   953151554.6443        STREAM LEAKAGE =     1136087.6449

           TOTAL OUT =  1044294407.4077             TOTAL OUT =     1266138.4424

            IN - OUT =          -9.8491              IN - OUT =      -1.6260E-02

 PERCENT DISCREPANCY =          -0.00     PERCENT DISCREPANCY =          -0.00






         TIME SUMMARY AT END OF TIME STEP    1 IN STRESS PERIOD    9
                    SECONDS     MINUTES      HOURS       DAYS        YEARS
                    -----------------------------------------------------------
   TIME STEP LENGTH 7.94880E+06 1.32480E+05  2208.0      92.000     0.25188    
 STRESS PERIOD TIME 7.94880E+06 1.32480E+05  2208.0      92.000     0.25188    
         TOTAL TIME 7.10208E+07 1.18368E+06  19728.      822.00      2.2505    
1
1
                            STRESS PERIOD NO.   10, LENGTH =   91.00000    
                            -----------------------------------------------

                              NUMBER OF TIME STEPS =     1

                               MULTIPLIER FOR DELT =     1.500

                            INITIAL TIME STEP SIZE =   91.00000    

 WELL NO.  LAYER   ROW   COL   STRESS RATE         
 --------------------------------------------------
      1      1     22     22     -0.3000E+05
      2      1      2     29       0.000    
      3      1      5     21     -0.5000E+05

      3 WELLS

                 RECHARGE =  2.000000E-03

 REUSING STREAM SEGMENT DATA FROM LAST STRESS PERIOD
 
 SOLVING FOR HEAD 


     6 CALLS TO PCG ROUTINE FOR TIME STEP   1 IN STRESS PERIOD   10
    22 TOTAL ITERATIONS

 OUTPUT CONTROL FOR STRESS PERIOD   10   TIME STEP    1
    SAVE BUDGET
    SAVE HEAD FOR ALL LAYERS
    PRINT HEAD FOR ALL LAYERS
 UBDSV2 SAVING "STREAMFLOW OUT  " ON UNIT  50 AT TIME STEP  1, STRESS PERIOD  10



 STREAM LISTING     PERIOD     10   STEP        1

 LAYER ROW COL. STREAM  RCH.  FLOW INTO     FLOW TO   FLOW OUT OF   OVRLND.     DIRECT     STREAM       STREAM     STREAM     STREAM   STREAMBED  STREAMBED
                SEG.NO.  NO.  STRM. RCH.    AQUIFER    STRM. RCH.    RUNOFF     PRECIP       ET          HEAD       DEPTH      WIDTH   CONDCTNC.   GRADIENT

   1   13    1     1     1    1.0000E+05 -2.8295E+04   1.2829E+05  0.000E+00  0.000E+00  0.000E+00  4.84180E+01  1.566E-01  2.000E+01  2.000E+04 -1.415E+00
   1   13    2     1     2    1.2829E+05 -3.8117E+04   1.6641E+05  0.000E+00  0.000E+00  0.000E+00  4.79666E+01  1.825E-01  2.000E+01  2.000E+04 -1.906E+00
   1   14    3     1     3    1.6641E+05 -3.3591E+04   2.0000E+05  0.000E+00  0.000E+00  0.000E+00  4.75148E+01  2.080E-01  2.000E+01  2.000E+04 -1.680E+00
   1   15    4     1     4    2.0000E+05 -3.2813E+04   2.3282E+05  0.000E+00  0.000E+00  0.000E+00  4.70594E+01  2.299E-01  2.000E+01  2.000E+04 -1.641E+00
   1   16    5     1     5    2.3282E+05 -3.4293E+04   2.6711E+05  0.000E+00  0.000E+00  0.000E+00  4.66029E+01  2.506E-01  2.000E+01  2.000E+04 -1.715E+00
   1   16    6     1     6    2.6711E+05 -2.9950E+04   2.9706E+05  0.000E+00  0.000E+00  0.000E+00  4.61445E+01  2.695E-01  2.000E+01  2.000E+04 -1.498E+00
   1   16    7     1     7    2.9706E+05 -2.9761E+04   3.2682E+05  0.000E+00  0.000E+00  0.000E+00  4.56840E+01  2.863E-01  2.000E+01  2.000E+04 -1.488E+00
   1   16    8     1     8    3.2682E+05 -2.9937E+04   3.5676E+05  0.000E+00  0.000E+00  0.000E+00  4.52229E+01  3.024E-01  2.000E+01  2.000E+04 -1.497E+00
   1   16    9     1     9    3.5676E+05 -3.0007E+04   3.8676E+05  0.000E+00  0.000E+00  0.000E+00  4.47612E+01  3.180E-01  2.000E+01  2.000E+04 -1.500E+00
   1   16   10     1    10    3.8676E+05 -3.0020E+04   4.1679E+05  0.000E+00  0.000E+00  0.000E+00  4.42991E+01  3.332E-01  2.000E+01  2.000E+04 -1.501E+00
   1   16   11     1    11    4.1679E+05 -3.0607E+04   4.4739E+05  0.000E+00  0.000E+00  0.000E+00  4.38367E+01  3.481E-01  2.000E+01  2.000E+04 -1.530E+00
   1   16   12     1    12    4.4739E+05 -3.6119E+04   4.8351E+05  0.000E+00  0.000E+00  0.000E+00  4.33753E+01  3.640E-01  2.000E+01  2.000E+04 -1.806E+00
   1   15   13     1    13    4.8351E+05 -3.4819E+04   5.1833E+05  0.000E+00  0.000E+00  0.000E+00  4.29144E+01  3.804E-01  2.000E+01  2.000E+04 -1.741E+00
   1   14   14     1    14    5.1833E+05 -3.5311E+04   5.5364E+05  0.000E+00  0.000E+00  0.000E+00  4.24529E+01  3.961E-01  2.000E+01  2.000E+04 -1.766E+00
   1   13   15     1    15    5.5364E+05 -3.7345E+04   5.9099E+05  0.000E+00  0.000E+00  0.000E+00  4.19916E+01  4.120E-01  2.000E+01  2.000E+04 -1.867E+00
   1   12   16     1    16    5.9099E+05 -4.2968E+04   6.3395E+05  0.000E+00  0.000E+00  0.000E+00  4.15314E+01  4.291E-01  2.000E+01  2.000E+04 -2.148E+00
   1   12   17     1    17    6.3395E+05 -3.3367E+04   6.6732E+05  0.000E+00  0.000E+00  0.000E+00  4.10700E+01  4.450E-01  2.000E+01  2.000E+04 -1.668E+00
   1   12   18     1    18    6.6732E+05 -3.1527E+04   6.9885E+05  0.000E+00  0.000E+00  0.000E+00  4.06059E+01  4.582E-01  2.000E+01  2.000E+04 -1.576E+00
   1   12   19     1    19    6.9885E+05 -3.5183E+04   7.3403E+05  0.000E+00  0.000E+00  0.000E+00  4.01419E+01  4.714E-01  2.000E+01  2.000E+04 -1.759E+00
   1   13   20     1    20    7.3403E+05 -2.5982E+04   7.6001E+05  0.000E+00  0.000E+00  0.000E+00  3.96766E+01  4.834E-01  2.000E+01  2.000E+04 -1.299E+00
   1   14   21     1    21    7.6001E+05 -1.9175E+04   7.7919E+05  0.000E+00  0.000E+00  0.000E+00  3.92080E+01  4.921E-01  2.000E+01  2.000E+04 -9.588E-01
   1   14   22     1    22    7.7919E+05 -1.4849E+03   7.8067E+05  0.000E+00  0.000E+00  0.000E+00  3.87347E+01  4.961E-01  2.000E+01  2.000E+04 -7.424E-02
   1    9   30     2     1    5.0000E+04 -2.6338E+04   7.6338E+04  0.000E+00  0.000E+00  0.000E+00  4.02583E+01  1.333E-01  2.000E+01  2.000E+04 -1.317E+00
   1    9   29     2     2    7.6338E+04 -2.8715E+04   1.0505E+05  0.000E+00  0.000E+00  0.000E+00  4.00406E+01  1.656E-01  2.000E+01  2.000E+04 -1.436E+00
   1    9   28     2     3    1.0505E+05 -3.2768E+04   1.3782E+05  0.000E+00  0.000E+00  0.000E+00  3.98223E+01  1.973E-01  2.000E+01  2.000E+04 -1.638E+00
   1    9   27     2     4    1.3782E+05 -4.6221E+04   1.8404E+05  0.000E+00  0.000E+00  0.000E+00  3.96086E+01  2.336E-01  2.000E+01  2.000E+04 -2.311E+00
   1   10   26     2     5    1.8404E+05 -3.2226E+04   2.1627E+05  0.000E+00  0.000E+00  0.000E+00  3.93913E+01  2.663E-01  2.000E+01  2.000E+04 -1.611E+00
   1   11   25     2     6    2.1627E+05 -2.3991E+04   2.4026E+05  0.000E+00  0.000E+00  0.000E+00  3.91632E+01  2.882E-01  2.000E+01  2.000E+04 -1.200E+00
   1   12   24     2     7    2.4026E+05 -1.7654E+04   2.5791E+05  0.000E+00  0.000E+00  0.000E+00  3.89287E+01  3.037E-01  2.000E+01  2.000E+04 -8.827E-01
   1   13   23     2     8    2.5791E+05 -1.2613E+04   2.7053E+05  0.000E+00  0.000E+00  0.000E+00  3.86896E+01  3.146E-01  2.000E+01  2.000E+04 -6.306E-01
   1   14   22     2     9    2.7053E+05 -7.2466E+03   2.7777E+05  0.000E+00  0.000E+00  0.000E+00  3.84466E+01  3.216E-01  2.000E+01  2.000E+04 -3.623E-01
   1   14   22     3     1    1.0584E+06 -1.5137E+04   1.0736E+06  0.000E+00  0.000E+00  0.000E+00  3.80521E+01  4.965E-01  2.000E+01  2.000E+04 -7.569E-01
   1   15   23     3     2    1.0736E+06 -2.3130E+04   1.0967E+06  0.000E+00  0.000E+00  0.000E+00  3.71685E+01  5.019E-01  2.000E+01  2.000E+04 -1.157E+00
   1   15   24     3     3    1.0967E+06 -1.9347E+04   1.1161E+06  0.000E+00  0.000E+00  0.000E+00  3.62855E+01  5.077E-01  2.000E+01  2.000E+04 -9.674E-01
   1   15   25     3     4    1.1161E+06 -1.9076E+04   1.1351E+06  0.000E+00  0.000E+00  0.000E+00  3.54019E+01  5.130E-01  2.000E+01  2.000E+04 -9.538E-01
   1   15   26     3     5    1.1351E+06 -2.1984E+04   1.1571E+06  0.000E+00  0.000E+00  0.000E+00  3.45186E+01  5.186E-01  2.000E+01  2.000E+04 -1.099E+00
   1   16   27     3     6    1.1571E+06 -2.9047E+04   1.1862E+06  0.000E+00  0.000E+00  0.000E+00  3.36366E+01  5.255E-01  2.000E+01  2.000E+04 -1.452E+00
   1   17   28     3     7    1.1862E+06 -3.6079E+04   1.2222E+06  0.000E+00  0.000E+00  0.000E+00  3.27564E+01  5.342E-01  2.000E+01  2.000E+04 -1.804E+00
   1   18   29     3     8    1.2222E+06 -4.7057E+04   1.2693E+06  0.000E+00  0.000E+00  0.000E+00  3.18785E+01  5.452E-01  2.000E+01  2.000E+04 -2.353E+00
   1   18   30     3     9    1.2693E+06 -4.3660E+04   1.3130E+06  0.000E+00  0.000E+00  0.000E+00  3.10015E+01  5.570E-01  2.000E+01  2.000E+04 -2.183E+00



1
              HEAD IN LAYER   1 AT END OF TIME STEP   1 IN STRESS PERIOD   10
  ---------------------------------------------------------------------------

          1      2      3      4      5      6      7      8      9     10
         11     12     13     14     15     16     17     18     19     20
         21     22     23     24     25     26     27     28     29     30
 .........................................................................
   1  ****** ****** ****** ****** ****** ****** ****** ****** ****** ******
      ****** ****** ****** ****** ****** ****** ****** ****** ****** ******
      ****** ****** ****** ****** ****** ****** ****** ****** ****** ******
   2  ****** ****** ****** ****** ****** ****** ****** ****** ****** ******
      ****** ****** ****** ****** ****** ****** ****** ****** ****** ******
      ****** ****** ****** ****** ****** ****** ****** ****** ****** ******
   3  ****** ****** ****** ****** ****** ****** ****** ****** ****** ******
      ****** ****** ****** ****** ****** ****** ****** ****** ****** ******
      ****** ****** ****** ****** ****** ****** ****** ****** ****** ******
   4  ****** ****** ****** ****** ****** ****** ****** ****** ****** ******
      ****** ****** ****** ****** ****** ****** ****** ****** ****** ******
      ****** ****** ****** ****** ****** ****** ****** ****** ****** ******
   5  ****** ****** ****** ****** ****** ****** ****** ****** ****** ******
      ****** ****** ****** ****** ****** ****** ****** ****** ****** ******
      ****** ****** ****** ****** ****** ****** ****** ****** ****** ******
   6  ****** ****** ****** ****** ****** ****** ****** ****** ****** ******
      ****** ****** ****** ****** ****** ****** ****** ****** ****** ******
      ****** ****** ****** ****** ****** ****** ****** ****** ****** ******
   7  ****** ****** ****** ****** ****** ****** ****** ****** ****** ******
      ****** ****** ****** ****** ****** ****** ****** ****** ****** ******
      ****** ****** ****** ****** ****** ****** ****** ****** ****** ******
   8  ****** ****** ****** ****** ****** ****** ****** ****** ****** ******
      ****** ****** ****** ****** ****** ****** ****** ****** ****** ******
      ****** ****** ****** ****** ****** ****** ****** ****** ****** ******
   9  ****** ****** ****** ****** ****** ****** ****** ****** ****** ******
      ****** ****** ****** ****** ****** ****** ****** ****** ****** ******
      ****** ****** ****** ****** ****** ****** ****** ****** ****** ******
  10  ****** ****** ****** ****** ****** ****** ****** ****** ****** ******
      ****** ****** ****** ****** ****** ****** ****** ****** ****** ******
      ****** ****** ****** ****** ****** ****** ****** ****** ****** ******
  11  ****** ****** ****** ****** ****** ****** ****** ****** ****** ******
      ****** ****** ****** ****** ****** ****** ****** ****** ****** ******
      ****** ****** ****** ****** ****** ****** ****** ****** ****** ******
  12  ****** ****** ****** ****** ****** ****** ****** ****** ****** ******
      ****** ****** ****** ****** ****** ****** ****** ****** ****** ******
      ****** ****** ****** ****** ****** ****** ****** ****** ****** ******
  13  ****** ****** ****** ****** ****** ****** ****** ****** ****** ******
      ****** ****** ****** ****** ****** ****** ****** ****** ****** ******
      ****** ****** ****** ****** ****** ****** ****** ****** ****** ******
  14  ****** ****** ****** ****** ****** ****** ****** ****** ****** ******
      ****** ****** ****** ****** ****** ****** ****** ****** ****** ******
      ****** ****** ****** ****** ****** ****** ****** ****** ****** ******
  15  ****** ****** ****** ****** ****** ****** ****** ****** ****** ******
      ****** ****** ****** ****** ****** ****** ****** ****** ****** ******
      ****** ****** ****** ****** ****** ****** ****** ****** ****** ******
  16  ****** ****** ****** ****** ****** ****** ****** ****** ****** ******
      ****** ****** ****** ****** ****** ****** ****** ****** ****** ******
      ****** ****** ****** ****** ****** ****** ****** ****** ****** ******
  17  ****** ****** ****** ****** ****** ****** ****** ****** ****** ******
      ****** ****** ****** ****** ****** ****** ****** ****** ****** ******
      ****** ****** ****** ****** ****** ****** ****** ****** ****** ******
  18  ****** ****** ****** ****** ****** ****** ****** ****** ****** ******
      ****** ****** ****** ****** ****** ****** ****** ****** ****** ******
      ****** ****** ****** ****** ****** ****** ****** ****** ****** ******
  19  ****** ****** ****** ****** ****** ****** ****** ****** ****** ******
      ****** ****** ****** ****** ****** ****** ****** ****** ****** ******
      ****** ****** ****** ****** ****** ****** ****** ****** ****** ******
  20  ****** ****** ****** ****** ****** ****** ****** ****** ****** ******
      ****** ****** ****** ****** ****** ****** ****** ****** ****** ******
      ****** ****** ****** ****** ****** ****** ****** ****** ****** ******
  21  ****** ****** ****** ****** ****** ****** ****** ****** ****** ******
      ****** ****** ****** ****** ****** ****** ****** ****** ****** ******
      ****** ****** ****** ****** ****** ****** ****** ****** ****** ******
  22  ****** ****** ****** ****** ****** ****** ****** ****** ****** ******
      ****** ****** ****** ****** ****** ****** ****** ****** ****** ******
      ****** ****** ****** ****** ****** ****** ****** ****** ****** ******
  23  ****** ****** ****** ****** ****** ****** ****** ****** ****** ******
      ****** ****** ****** ****** ****** ****** ****** ****** ****** ******
      ****** ****** ****** ****** ****** ****** ****** ****** ****** ******
  24  ****** ****** ****** ****** ****** ****** ****** ****** ****** ******
      ****** ****** ****** ****** ****** ****** ****** ****** ****** ******
      ****** ****** ****** ****** ****** ****** ****** ****** ****** ******
  25  ****** ****** ****** ****** ****** ****** ****** ****** ****** ******
      ****** ****** ****** ****** ****** ****** ****** ****** ****** ******
      ****** ****** ****** ****** ****** ****** ****** ****** ****** ******

 HEAD WILL BE SAVED ON UNIT   51 AT END OF TIME STEP    1, STRESS PERIOD   10
1
  VOLUMETRIC BUDGET FOR ENTIRE MODEL AT END OF TIME STEP    1, STRESS PERIOD  10
  ------------------------------------------------------------------------------

     CUMULATIVE VOLUMES      L**3       RATES FOR THIS TIME STEP      L**3/T
     ------------------                 ------------------------

           IN:                                      IN:
           ---                                      ---
             STORAGE =    20914463.9925               STORAGE =           0.0000
       CONSTANT HEAD =  1112843164.1145         CONSTANT HEAD =     1190567.3687
               WELLS =           0.0000                 WELLS =           0.0000
            RECHARGE =    23901600.0000              RECHARGE =       55200.0000
      STREAM LEAKAGE =           0.0000        STREAM LEAKAGE =           0.0000

            TOTAL IN =  1157659228.1070              TOTAL IN =     1245767.3687

          OUT:                                     OUT:
          ----                                     ----
             STORAGE =      917784.2737               STORAGE =        2803.4452
       CONSTANT HEAD =           0.0000         CONSTANT HEAD =           0.0000
               WELLS =    97760182.0000                 WELLS =       80000.0000
            RECHARGE =           0.0000              RECHARGE =           0.0000
      STREAM LEAKAGE =  1058981268.1644        STREAM LEAKAGE =     1162963.8848

           TOTAL OUT =  1157659234.4381             TOTAL OUT =     1245767.3300

            IN - OUT =          -6.3311              IN - OUT =       3.8660E-02

 PERCENT DISCREPANCY =          -0.00     PERCENT DISCREPANCY =           0.00






         TIME SUMMARY AT END OF TIME STEP    1 IN STRESS PERIOD   10
                    SECONDS     MINUTES      HOURS       DAYS        YEARS
                    -----------------------------------------------------------
   TIME STEP LENGTH 7.86240E+06 1.31040E+05  2184.0      91.000     0.24914    
 STRESS PERIOD TIME 7.86240E+06 1.31040E+05  2184.0      91.000     0.24914    
         TOTAL TIME 7.88832E+07 1.31472E+06  21912.      913.00      2.4997    
1
1
                            STRESS PERIOD NO.   11, LENGTH =   91.00000    
                            -----------------------------------------------

                              NUMBER OF TIME STEPS =     1

                               MULTIPLIER FOR DELT =     1.500

                            INITIAL TIME STEP SIZE =   91.00000    

 WELL NO.  LAYER   ROW   COL   STRESS RATE         
 --------------------------------------------------
      1      1     22     22     -0.3000E+05
      2      1      2     29     -0.5000E+05
      3      1      5     21     -0.5500E+05

      3 WELLS

                 RECHARGE =   0.00000    

 REUSING STREAM SEGMENT DATA FROM LAST STRESS PERIOD
 
 SOLVING FOR HEAD 


     6 CALLS TO PCG ROUTINE FOR TIME STEP   1 IN STRESS PERIOD   11
    23 TOTAL ITERATIONS

 OUTPUT CONTROL FOR STRESS PERIOD   11   TIME STEP    1
    SAVE BUDGET
    SAVE HEAD FOR ALL LAYERS
    PRINT HEAD FOR ALL LAYERS
 UBDSV2 SAVING "STREAMFLOW OUT  " ON UNIT  50 AT TIME STEP  1, STRESS PERIOD  11



 STREAM LISTING     PERIOD     11   STEP        1

 LAYER ROW COL. STREAM  RCH.  FLOW INTO     FLOW TO   FLOW OUT OF   OVRLND.     DIRECT     STREAM       STREAM     STREAM     STREAM   STREAMBED  STREAMBED
                SEG.NO.  NO.  STRM. RCH.    AQUIFER    STRM. RCH.    RUNOFF     PRECIP       ET          HEAD       DEPTH      WIDTH   CONDCTNC.   GRADIENT

   1   13    1     1     1    1.0000E+05 -2.7442E+04   1.2744E+05  0.000E+00  0.000E+00  0.000E+00  4.84176E+01  1.563E-01  2.000E+01  2.000E+04 -1.372E+00
   1   13    2     1     2    1.2744E+05 -3.7098E+04   1.6454E+05  0.000E+00  0.000E+00  0.000E+00  4.79656E+01  1.815E-01  2.000E+01  2.000E+04 -1.855E+00
   1   14    3     1     3    1.6454E+05 -3.2593E+04   1.9713E+05  0.000E+00  0.000E+00  0.000E+00  4.75132E+01  2.064E-01  2.000E+01  2.000E+04 -1.630E+00
   1   15    4     1     4    1.9713E+05 -3.1853E+04   2.2899E+05  0.000E+00  0.000E+00  0.000E+00  4.70573E+01  2.277E-01  2.000E+01  2.000E+04 -1.593E+00
   1   16    5     1     5    2.2899E+05 -3.3426E+04   2.6241E+05  0.000E+00  0.000E+00  0.000E+00  4.66003E+01  2.481E-01  2.000E+01  2.000E+04 -1.671E+00
   1   16    6     1     6    2.6241E+05 -2.9196E+04   2.9161E+05  0.000E+00  0.000E+00  0.000E+00  4.61416E+01  2.666E-01  2.000E+01  2.000E+04 -1.460E+00
   1   16    7     1     7    2.9161E+05 -2.9012E+04   3.2062E+05  0.000E+00  0.000E+00  0.000E+00  4.56808E+01  2.830E-01  2.000E+01  2.000E+04 -1.451E+00
   1   16    8     1     8    3.2062E+05 -2.9185E+04   3.4980E+05  0.000E+00  0.000E+00  0.000E+00  4.52193E+01  2.989E-01  2.000E+01  2.000E+04 -1.459E+00
   1   16    9     1     9    3.4980E+05 -2.9255E+04   3.7906E+05  0.000E+00  0.000E+00  0.000E+00  4.47574E+01  3.143E-01  2.000E+01  2.000E+04 -1.463E+00
   1   16   10     1    10    3.7906E+05 -2.9269E+04   4.0833E+05  0.000E+00  0.000E+00  0.000E+00  4.42951E+01  3.292E-01  2.000E+01  2.000E+04 -1.463E+00
   1   16   11     1    11    4.0833E+05 -2.9844E+04   4.3817E+05  0.000E+00  0.000E+00  0.000E+00  4.38324E+01  3.438E-01  2.000E+01  2.000E+04 -1.492E+00
   1   16   12     1    12    4.3817E+05 -3.5231E+04   4.7340E+05  0.000E+00  0.000E+00  0.000E+00  4.33708E+01  3.594E-01  2.000E+01  2.000E+04 -1.762E+00
   1   15   13     1    13    4.7340E+05 -3.3829E+04   5.0723E+05  0.000E+00  0.000E+00  0.000E+00  4.29096E+01  3.755E-01  2.000E+01  2.000E+04 -1.691E+00
   1   14   14     1    14    5.0723E+05 -3.4274E+04   5.4151E+05  0.000E+00  0.000E+00  0.000E+00  4.24478E+01  3.909E-01  2.000E+01  2.000E+04 -1.714E+00
   1   13   15     1    15    5.4151E+05 -3.6289E+04   5.7780E+05  0.000E+00  0.000E+00  0.000E+00  4.19861E+01  4.065E-01  2.000E+01  2.000E+04 -1.814E+00
   1   12   16     1    16    5.7780E+05 -4.1886E+04   6.1968E+05  0.000E+00  0.000E+00  0.000E+00  4.15256E+01  4.233E-01  2.000E+01  2.000E+04 -2.094E+00
   1   12   17     1    17    6.1968E+05 -3.2465E+04   6.5215E+05  0.000E+00  0.000E+00  0.000E+00  4.10639E+01  4.389E-01  2.000E+01  2.000E+04 -1.623E+00
   1   12   18     1    18    6.5215E+05 -3.0629E+04   6.8278E+05  0.000E+00  0.000E+00  0.000E+00  4.05996E+01  4.518E-01  2.000E+01  2.000E+04 -1.531E+00
   1   12   19     1    19    6.8278E+05 -3.4142E+04   7.1692E+05  0.000E+00  0.000E+00  0.000E+00  4.01353E+01  4.649E-01  2.000E+01  2.000E+04 -1.707E+00
   1   13   20     1    20    7.1692E+05 -2.5079E+04   7.4200E+05  0.000E+00  0.000E+00  0.000E+00  3.96697E+01  4.766E-01  2.000E+01  2.000E+04 -1.254E+00
   1   14   21     1    21    7.4200E+05 -1.8456E+04   7.6045E+05  0.000E+00  0.000E+00  0.000E+00  3.92010E+01  4.850E-01  2.000E+01  2.000E+04 -9.228E-01
   1   14   22     1    22    7.6045E+05 -1.1955E+03   7.6165E+05  0.000E+00  0.000E+00  0.000E+00  3.87275E+01  4.888E-01  2.000E+01  2.000E+04 -5.977E-02
   1    9   30     2     1    5.0000E+04 -2.4735E+04   7.4735E+04  0.000E+00  0.000E+00  0.000E+00  4.02573E+01  1.323E-01  2.000E+01  2.000E+04 -1.237E+00
   1    9   29     2     2    7.4735E+04 -2.7155E+04   1.0189E+05  0.000E+00  0.000E+00  0.000E+00  4.00380E+01  1.630E-01  2.000E+01  2.000E+04 -1.358E+00
   1    9   28     2     3    1.0189E+05 -3.1233E+04   1.3312E+05  0.000E+00  0.000E+00  0.000E+00  3.98185E+01  1.935E-01  2.000E+01  2.000E+04 -1.562E+00
   1    9   27     2     4    1.3312E+05 -4.4461E+04   1.7758E+05  0.000E+00  0.000E+00  0.000E+00  3.96038E+01  2.288E-01  2.000E+01  2.000E+04 -2.223E+00
   1   10   26     2     5    1.7758E+05 -3.0870E+04   2.0845E+05  0.000E+00  0.000E+00  0.000E+00  3.93856E+01  2.606E-01  2.000E+01  2.000E+04 -1.543E+00
   1   11   25     2     6    2.0845E+05 -2.2871E+04   2.3132E+05  0.000E+00  0.000E+00  0.000E+00  3.91568E+01  2.818E-01  2.000E+01  2.000E+04 -1.144E+00
   1   12   24     2     7    2.3132E+05 -1.6747E+04   2.4807E+05  0.000E+00  0.000E+00  0.000E+00  3.89217E+01  2.967E-01  2.000E+01  2.000E+04 -8.374E-01
   1   13   23     2     8    2.4807E+05 -1.1941E+04   2.6001E+05  0.000E+00  0.000E+00  0.000E+00  3.86823E+01  3.073E-01  2.000E+01  2.000E+04 -5.970E-01
   1   14   22     2     9    2.6001E+05 -6.9636E+03   2.6698E+05  0.000E+00  0.000E+00  0.000E+00  3.84391E+01  3.141E-01  2.000E+01  2.000E+04 -3.482E-01
   1   14   22     3     1    1.0286E+06 -1.4872E+04   1.0435E+06  0.000E+00  0.000E+00  0.000E+00  3.80437E+01  4.881E-01  2.000E+01  2.000E+04 -7.436E-01
   1   15   23     3     2    1.0435E+06 -2.2507E+04   1.0660E+06  0.000E+00  0.000E+00  0.000E+00  3.71601E+01  4.934E-01  2.000E+01  2.000E+04 -1.125E+00
   1   15   24     3     3    1.0660E+06 -1.8825E+04   1.0848E+06  0.000E+00  0.000E+00  0.000E+00  3.62769E+01  4.992E-01  2.000E+01  2.000E+04 -9.412E-01
   1   15   25     3     4    1.0848E+06 -1.8551E+04   1.1034E+06  0.000E+00  0.000E+00  0.000E+00  3.53932E+01  5.044E-01  2.000E+01  2.000E+04 -9.276E-01
   1   15   26     3     5    1.1034E+06 -2.1363E+04   1.1247E+06  0.000E+00  0.000E+00  0.000E+00  3.45099E+01  5.099E-01  2.000E+01  2.000E+04 -1.068E+00
   1   16   27     3     6    1.1247E+06 -2.8319E+04   1.1531E+06  0.000E+00  0.000E+00  0.000E+00  3.36278E+01  5.166E-01  2.000E+01  2.000E+04 -1.416E+00
   1   17   28     3     7    1.1531E+06 -3.5343E+04   1.1884E+06  0.000E+00  0.000E+00  0.000E+00  3.27475E+01  5.253E-01  2.000E+01  2.000E+04 -1.767E+00
   1   18   29     3     8    1.1884E+06 -4.6375E+04   1.2348E+06  0.000E+00  0.000E+00  0.000E+00  3.18695E+01  5.362E-01  2.000E+01  2.000E+04 -2.319E+00
   1   18   30     3     9    1.2348E+06 -4.3089E+04   1.2779E+06  0.000E+00  0.000E+00  0.000E+00  3.09924E+01  5.480E-01  2.000E+01  2.000E+04 -2.154E+00



1
              HEAD IN LAYER   1 AT END OF TIME STEP   1 IN STRESS PERIOD   11
  ---------------------------------------------------------------------------

          1      2      3      4      5      6      7      8      9     10
         11     12     13     14     15     16     17     18     19     20
         21     22     23     24     25     26     27     28     29     30
 .........................................................................
   1  ****** ****** ****** ****** ****** ****** ****** ****** ****** ******
      ****** ****** ****** ****** ****** ****** ****** ****** ****** ******
      ****** ****** ****** ****** ****** ****** ****** ****** ****** ******
   2  ****** ****** ****** ****** ****** ****** ****** ****** ****** ******
      ****** ****** ****** ****** ****** ****** ****** ****** ****** ******
      ****** ****** ****** ****** ****** ****** ****** ****** ****** ******
   3  ****** ****** ****** ****** ****** ****** ****** ****** ****** ******
      ****** ****** ****** ****** ****** ****** ****** ****** ****** ******
      ****** ****** ****** ****** ****** ****** ****** ****** ****** ******
   4  ****** ****** ****** ****** ****** ****** ****** ****** ****** ******
      ****** ****** ****** ****** ****** ****** ****** ****** ****** ******
      ****** ****** ****** ****** ****** ****** ****** ****** ****** ******
   5  ****** ****** ****** ****** ****** ****** ****** ****** ****** ******
      ****** ****** ****** ****** ****** ****** ****** ****** ****** ******
      ****** ****** ****** ****** ****** ****** ****** ****** ****** ******
   6  ****** ****** ****** ****** ****** ****** ****** ****** ****** ******
      ****** ****** ****** ****** ****** ****** ****** ****** ****** ******
      ****** ****** ****** ****** ****** ****** ****** ****** ****** ******
   7  ****** ****** ****** ****** ****** ****** ****** ****** ****** ******
      ****** ****** ****** ****** ****** ****** ****** ****** ****** ******
      ****** ****** ****** ****** ****** ****** ****** ****** ****** ******
   8  ****** ****** ****** ****** ****** ****** ****** ****** ****** ******
      ****** ****** ****** ****** ****** ****** ****** ****** ****** ******
      ****** ****** ****** ****** ****** ****** ****** ****** ****** ******
   9  ****** ****** ****** ****** ****** ****** ****** ****** ****** ******
      ****** ****** ****** ****** ****** ****** ****** ****** ****** ******
      ****** ****** ****** ****** ****** ****** ****** ****** ****** ******
  10  ****** ****** ****** ****** ****** ****** ****** ****** ****** ******
      ****** ****** ****** ****** ****** ****** ****** ****** ****** ******
      ****** ****** ****** ****** ****** ****** ****** ****** ****** ******
  11  ****** ****** ****** ****** ****** ****** ****** ****** ****** ******
      ****** ****** ****** ****** ****** ****** ****** ****** ****** ******
      ****** ****** ****** ****** ****** ****** ****** ****** ****** ******
  12  ****** ****** ****** ****** ****** ****** ****** ****** ****** ******
      ****** ****** ****** ****** ****** ****** ****** ****** ****** ******
      ****** ****** ****** ****** ****** ****** ****** ****** ****** ******
  13  ****** ****** ****** ****** ****** ****** ****** ****** ****** ******
      ****** ****** ****** ****** ****** ****** ****** ****** ****** ******
      ****** ****** ****** ****** ****** ****** ****** ****** ****** ******
  14  ****** ****** ****** ****** ****** ****** ****** ****** ****** ******
      ****** ****** ****** ****** ****** ****** ****** ****** ****** ******
      ****** ****** ****** ****** ****** ****** ****** ****** ****** ******
  15  ****** ****** ****** ****** ****** ****** ****** ****** ****** ******
      ****** ****** ****** ****** ****** ****** ****** ****** ****** ******
      ****** ****** ****** ****** ****** ****** ****** ****** ****** ******
  16  ****** ****** ****** ****** ****** ****** ****** ****** ****** ******
      ****** ****** ****** ****** ****** ****** ****** ****** ****** ******
      ****** ****** ****** ****** ****** ****** ****** ****** ****** ******
  17  ****** ****** ****** ****** ****** ****** ****** ****** ****** ******
      ****** ****** ****** ****** ****** ****** ****** ****** ****** ******
      ****** ****** ****** ****** ****** ****** ****** ****** ****** ******
  18  ****** ****** ****** ****** ****** ****** ****** ****** ****** ******
      ****** ****** ****** ****** ****** ****** ****** ****** ****** ******
      ****** ****** ****** ****** ****** ****** ****** ****** ****** ******
  19  ****** ****** ****** ****** ****** ****** ****** ****** ****** ******
      ****** ****** ****** ****** ****** ****** ****** ****** ****** ******
      ****** ****** ****** ****** ****** ****** ****** ****** ****** ******
  20  ****** ****** ****** ****** ****** ****** ****** ****** ****** ******
      ****** ****** ****** ****** ****** ****** ****** ****** ****** ******
      ****** ****** ****** ****** ****** ****** ****** ****** ****** ******
  21  ****** ****** ****** ****** ****** ****** ****** ****** ****** ******
      ****** ****** ****** ****** ****** ****** ****** ****** ****** ******
      ****** ****** ****** ****** ****** ****** ****** ****** ****** ******
  22  ****** ****** ****** ****** ****** ****** ****** ****** ****** ******
      ****** ****** ****** ****** ****** ****** ****** ****** ****** ******
      ****** ****** ****** ****** ****** ****** ****** ****** ****** ******
  23  ****** ****** ****** ****** ****** ****** ****** ****** ****** ******
      ****** ****** ****** ****** ****** ****** ****** ****** ****** ******
      ****** ****** ****** ****** ****** ****** ****** ****** ****** ******
  24  ****** ****** ****** ****** ****** ****** ****** ****** ****** ******
      ****** ****** ****** ****** ****** ****** ****** ****** ****** ******
      ****** ****** ****** ****** ****** ****** ****** ****** ****** ******
  25  ****** ****** ****** ****** ****** ****** ****** ****** ****** ******
      ****** ****** ****** ****** ****** ****** ****** ****** ****** ******
      ****** ****** ****** ****** ****** ****** ****** ****** ****** ******

 HEAD WILL BE SAVED ON UNIT   51 AT END OF TIME STEP    1, STRESS PERIOD   11
1
  VOLUMETRIC BUDGET FOR ENTIRE MODEL AT END OF TIME STEP    1, STRESS PERIOD  11
  ------------------------------------------------------------------------------

     CUMULATIVE VOLUMES      L**3       RATES FOR THIS TIME STEP      L**3/T
     ------------------                 ------------------------

           IN:                                      IN:
           ---                                      ---
             STORAGE =    21248080.9072               STORAGE =        3666.1199
       CONSTANT HEAD =  1227430394.7920         CONSTANT HEAD =     1259200.3371
               WELLS =           0.0000                 WELLS =           0.0000
            RECHARGE =    23901600.0000              RECHARGE =           0.0000
      STREAM LEAKAGE =           0.0000        STREAM LEAKAGE =           0.0000

            TOTAL IN =  1272580075.6992              TOTAL IN =     1262866.4571

          OUT:                                     OUT:
          ----                                     ----
             STORAGE =      917784.2737               STORAGE =           0.0000
       CONSTANT HEAD =           0.0000         CONSTANT HEAD =           0.0000
               WELLS =   110045227.5000                 WELLS =      135000.5000
            RECHARGE =           0.0000              RECHARGE =           0.0000
      STREAM LEAKAGE =  1161617073.8479        STREAM LEAKAGE =     1127865.9965

           TOTAL OUT =  1272580085.6216             TOTAL OUT =     1262866.4965

            IN - OUT =          -9.9224              IN - OUT =      -3.9465E-02

 PERCENT DISCREPANCY =          -0.00     PERCENT DISCREPANCY =          -0.00






         TIME SUMMARY AT END OF TIME STEP    1 IN STRESS PERIOD   11
                    SECONDS     MINUTES      HOURS       DAYS        YEARS
                    -----------------------------------------------------------
   TIME STEP LENGTH 7.86240E+06 1.31040E+05  2184.0      91.000     0.24914    
 STRESS PERIOD TIME 7.86240E+06 1.31040E+05  2184.0      91.000     0.24914    
         TOTAL TIME 8.67456E+07 1.44576E+06  24096.      1004.0      2.7488    
1
1
                            STRESS PERIOD NO.   12, LENGTH =   91.00000    
                            -----------------------------------------------

                              NUMBER OF TIME STEPS =     1

                               MULTIPLIER FOR DELT =     1.500

                            INITIAL TIME STEP SIZE =   91.00000    

 WELL NO.  LAYER   ROW   COL   STRESS RATE         
 --------------------------------------------------
      1      1     22     22     -0.3000E+05
      2      1      2     29       0.000    
      3      1      5     21     -0.5500E+05

      3 WELLS

                 RECHARGE =  1.000000E-03

 REUSING STREAM SEGMENT DATA FROM LAST STRESS PERIOD
 
 SOLVING FOR HEAD 


     6 CALLS TO PCG ROUTINE FOR TIME STEP   1 IN STRESS PERIOD   12
    22 TOTAL ITERATIONS

 OUTPUT CONTROL FOR STRESS PERIOD   12   TIME STEP    1
    SAVE BUDGET
    SAVE HEAD FOR ALL LAYERS
    PRINT HEAD FOR ALL LAYERS
 UBDSV2 SAVING "STREAMFLOW OUT  " ON UNIT  50 AT TIME STEP  1, STRESS PERIOD  12



 STREAM LISTING     PERIOD     12   STEP        1

 LAYER ROW COL. STREAM  RCH.  FLOW INTO     FLOW TO   FLOW OUT OF   OVRLND.     DIRECT     STREAM       STREAM     STREAM     STREAM   STREAMBED  STREAMBED
                SEG.NO.  NO.  STRM. RCH.    AQUIFER    STRM. RCH.    RUNOFF     PRECIP       ET          HEAD       DEPTH      WIDTH   CONDCTNC.   GRADIENT

   1   13    1     1     1    1.0000E+05 -2.7835E+04   1.2783E+05  0.000E+00  0.000E+00  0.000E+00  4.84178E+01  1.564E-01  2.000E+01  2.000E+04 -1.392E+00
   1   13    2     1     2    1.2783E+05 -3.7565E+04   1.6540E+05  0.000E+00  0.000E+00  0.000E+00  4.79661E+01  1.820E-01  2.000E+01  2.000E+04 -1.878E+00
   1   14    3     1     3    1.6540E+05 -3.3055E+04   1.9846E+05  0.000E+00  0.000E+00  0.000E+00  4.75140E+01  2.071E-01  2.000E+01  2.000E+04 -1.653E+00
   1   15    4     1     4    1.9846E+05 -3.2300E+04   2.3075E+05  0.000E+00  0.000E+00  0.000E+00  4.70583E+01  2.287E-01  2.000E+01  2.000E+04 -1.615E+00
   1   16    5     1     5    2.3075E+05 -3.3832E+04   2.6459E+05  0.000E+00  0.000E+00  0.000E+00  4.66015E+01  2.493E-01  2.000E+01  2.000E+04 -1.692E+00
   1   16    6     1     6    2.6459E+05 -2.9548E+04   2.9414E+05  0.000E+00  0.000E+00  0.000E+00  4.61429E+01  2.679E-01  2.000E+01  2.000E+04 -1.477E+00
   1   16    7     1     7    2.9414E+05 -2.9361E+04   3.2350E+05  0.000E+00  0.000E+00  0.000E+00  4.56823E+01  2.845E-01  2.000E+01  2.000E+04 -1.468E+00
   1   16    8     1     8    3.2350E+05 -2.9535E+04   3.5303E+05  0.000E+00  0.000E+00  0.000E+00  4.52210E+01  3.005E-01  2.000E+01  2.000E+04 -1.477E+00
   1   16    9     1     9    3.5303E+05 -2.9604E+04   3.8264E+05  0.000E+00  0.000E+00  0.000E+00  4.47592E+01  3.160E-01  2.000E+01  2.000E+04 -1.480E+00
   1   16   10     1    10    3.8264E+05 -2.9618E+04   4.1225E+05  0.000E+00  0.000E+00  0.000E+00  4.42970E+01  3.310E-01  2.000E+01  2.000E+04 -1.481E+00
   1   16   11     1    11    4.1225E+05 -3.0198E+04   4.4245E+05  0.000E+00  0.000E+00  0.000E+00  4.38344E+01  3.458E-01  2.000E+01  2.000E+04 -1.510E+00
   1   16   12     1    12    4.4245E+05 -3.5644E+04   4.7810E+05  0.000E+00  0.000E+00  0.000E+00  4.33729E+01  3.615E-01  2.000E+01  2.000E+04 -1.782E+00
   1   15   13     1    13    4.7810E+05 -3.4286E+04   5.1238E+05  0.000E+00  0.000E+00  0.000E+00  4.29118E+01  3.778E-01  2.000E+01  2.000E+04 -1.714E+00
   1   14   14     1    14    5.1238E+05 -3.4747E+04   5.4713E+05  0.000E+00  0.000E+00  0.000E+00  4.24502E+01  3.933E-01  2.000E+01  2.000E+04 -1.737E+00
   1   13   15     1    15    5.4713E+05 -3.6763E+04   5.8389E+05  0.000E+00  0.000E+00  0.000E+00  4.19886E+01  4.091E-01  2.000E+01  2.000E+04 -1.838E+00
   1   12   16     1    16    5.8389E+05 -4.2355E+04   6.2625E+05  0.000E+00  0.000E+00  0.000E+00  4.15283E+01  4.260E-01  2.000E+01  2.000E+04 -2.118E+00
   1   12   17     1    17    6.2625E+05 -3.2855E+04   6.5910E+05  0.000E+00  0.000E+00  0.000E+00  4.10667E+01  4.417E-01  2.000E+01  2.000E+04 -1.643E+00
   1   12   18     1    18    6.5910E+05 -3.1016E+04   6.9012E+05  0.000E+00  0.000E+00  0.000E+00  4.06025E+01  4.547E-01  2.000E+01  2.000E+04 -1.551E+00
   1   12   19     1    19    6.9012E+05 -3.4590E+04   7.2471E+05  0.000E+00  0.000E+00  0.000E+00  4.01383E+01  4.679E-01  2.000E+01  2.000E+04 -1.730E+00
   1   13   20     1    20    7.2471E+05 -2.5487E+04   7.5020E+05  0.000E+00  0.000E+00  0.000E+00  3.96729E+01  4.797E-01  2.000E+01  2.000E+04 -1.274E+00
   1   14   21     1    21    7.5020E+05 -1.8793E+04   7.6899E+05  0.000E+00  0.000E+00  0.000E+00  3.92042E+01  4.883E-01  2.000E+01  2.000E+04 -9.396E-01
   1   14   22     1    22    7.6899E+05 -1.3441E+03   7.7033E+05  0.000E+00  0.000E+00  0.000E+00  3.87308E+01  4.922E-01  2.000E+01  2.000E+04 -6.720E-02
   1    9   30     2     1    5.0000E+04 -2.5980E+04   7.5980E+04  0.000E+00  0.000E+00  0.000E+00  4.02581E+01  1.331E-01  2.000E+01  2.000E+04 -1.299E+00
   1    9   29     2     2    7.5980E+04 -2.8348E+04   1.0433E+05  0.000E+00  0.000E+00  0.000E+00  4.00400E+01  1.650E-01  2.000E+01  2.000E+04 -1.417E+00
   1    9   28     2     3    1.0433E+05 -3.2365E+04   1.3669E+05  0.000E+00  0.000E+00  0.000E+00  3.98214E+01  1.964E-01  2.000E+01  2.000E+04 -1.618E+00
   1    9   27     2     4    1.3669E+05 -4.5671E+04   1.8236E+05  0.000E+00  0.000E+00  0.000E+00  3.96074E+01  2.324E-01  2.000E+01  2.000E+04 -2.284E+00
   1   10   26     2     5    1.8236E+05 -3.1660E+04   2.1402E+05  0.000E+00  0.000E+00  0.000E+00  3.93897E+01  2.647E-01  2.000E+01  2.000E+04 -1.583E+00
   1   11   25     2     6    2.1402E+05 -2.3452E+04   2.3748E+05  0.000E+00  0.000E+00  0.000E+00  3.91613E+01  2.863E-01  2.000E+01  2.000E+04 -1.173E+00
   1   12   24     2     7    2.3748E+05 -1.7185E+04   2.5466E+05  0.000E+00  0.000E+00  0.000E+00  3.89264E+01  3.014E-01  2.000E+01  2.000E+04 -8.592E-01
   1   13   23     2     8    2.5466E+05 -1.2251E+04   2.6691E+05  0.000E+00  0.000E+00  0.000E+00  3.86871E+01  3.121E-01  2.000E+01  2.000E+04 -6.126E-01
   1   14   22     2     9    2.6691E+05 -7.0794E+03   2.7399E+05  0.000E+00  0.000E+00  0.000E+00  3.84440E+01  3.190E-01  2.000E+01  2.000E+04 -3.540E-01
   1   14   22     3     1    1.0443E+06 -1.4998E+04   1.0593E+06  0.000E+00  0.000E+00  0.000E+00  3.80481E+01  4.926E-01  2.000E+01  2.000E+04 -7.499E-01
   1   15   23     3     2    1.0593E+06 -2.2803E+04   1.0821E+06  0.000E+00  0.000E+00  0.000E+00  3.71645E+01  4.979E-01  2.000E+01  2.000E+04 -1.140E+00
   1   15   24     3     3    1.0821E+06 -1.9077E+04   1.1012E+06  0.000E+00  0.000E+00  0.000E+00  3.62815E+01  5.037E-01  2.000E+01  2.000E+04 -9.539E-01
   1   15   25     3     4    1.1012E+06 -1.8809E+04   1.1200E+06  0.000E+00  0.000E+00  0.000E+00  3.53978E+01  5.089E-01  2.000E+01  2.000E+04 -9.404E-01
   1   15   26     3     5    1.1200E+06 -2.1673E+04   1.1417E+06  0.000E+00  0.000E+00  0.000E+00  3.45144E+01  5.144E-01  2.000E+01  2.000E+04 -1.084E+00
   1   16   27     3     6    1.1417E+06 -2.8678E+04   1.1704E+06  0.000E+00  0.000E+00  0.000E+00  3.36324E+01  5.213E-01  2.000E+01  2.000E+04 -1.434E+00
   1   17   28     3     7    1.1704E+06 -3.5703E+04   1.2061E+06  0.000E+00  0.000E+00  0.000E+00  3.27522E+01  5.300E-01  2.000E+01  2.000E+04 -1.785E+00
   1   18   29     3     8    1.2061E+06 -4.6705E+04   1.2528E+06  0.000E+00  0.000E+00  0.000E+00  3.18742E+01  5.409E-01  2.000E+01  2.000E+04 -2.335E+00
   1   18   30     3     9    1.2528E+06 -4.3367E+04   1.2961E+06  0.000E+00  0.000E+00  0.000E+00  3.09972E+01  5.527E-01  2.000E+01  2.000E+04 -2.168E+00



1
              HEAD IN LAYER   1 AT END OF TIME STEP   1 IN STRESS PERIOD   12
  ---------------------------------------------------------------------------

          1      2      3      4      5      6      7      8      9     10
         11     12     13     14     15     16     17     18     19     20
         21     22     23     24     25     26     27     28     29     30
 .........................................................................
   1  ****** ****** ****** ****** ****** ****** ****** ****** ****** ******
      ****** ****** ****** ****** ****** ****** ****** ****** ****** ******
      ****** ****** ****** ****** ****** ****** ****** ****** ****** ******
   2  ****** ****** ****** ****** ****** ****** ****** ****** ****** ******
      ****** ****** ****** ****** ****** ****** ****** ****** ****** ******
      ****** ****** ****** ****** ****** ****** ****** ****** ****** ******
   3  ****** ****** ****** ****** ****** ****** ****** ****** ****** ******
      ****** ****** ****** ****** ****** ****** ****** ****** ****** ******
      ****** ****** ****** ****** ****** ****** ****** ****** ****** ******
   4  ****** ****** ****** ****** ****** ****** ****** ****** ****** ******
      ****** ****** ****** ****** ****** ****** ****** ****** ****** ******
      ****** ****** ****** ****** ****** ****** ****** ****** ****** ******
   5  ****** ****** ****** ****** ****** ****** ****** ****** ****** ******
      ****** ****** ****** ****** ****** ****** ****** ****** ****** ******
      ****** ****** ****** ****** ****** ****** ****** ****** ****** ******
   6  ****** ****** ****** ****** ****** ****** ****** ****** ****** ******
      ****** ****** ****** ****** ****** ****** ****** ****** ****** ******
      ****** ****** ****** ****** ****** ****** ****** ****** ****** ******
   7  ****** ****** ****** ****** ****** ****** ****** ****** ****** ******
      ****** ****** ****** ****** ****** ****** ****** ****** ****** ******
      ****** ****** ****** ****** ****** ****** ****** ****** ****** ******
   8  ****** ****** ****** ****** ****** ****** ****** ****** ****** ******
      ****** ****** ****** ****** ****** ****** ****** ****** ****** ******
      ****** ****** ****** ****** ****** ****** ****** ****** ****** ******
   9  ****** ****** ****** ****** ****** ****** ****** ****** ****** ******
      ****** ****** ****** ****** ****** ****** ****** ****** ****** ******
      ****** ****** ****** ****** ****** ****** ****** ****** ****** ******
  10  ****** ****** ****** ****** ****** ****** ****** ****** ****** ******
      ****** ****** ****** ****** ****** ****** ****** ****** ****** ******
      ****** ****** ****** ****** ****** ****** ****** ****** ****** ******
  11  ****** ****** ****** ****** ****** ****** ****** ****** ****** ******
      ****** ****** ****** ****** ****** ****** ****** ****** ****** ******
      ****** ****** ****** ****** ****** ****** ****** ****** ****** ******
  12  ****** ****** ****** ****** ****** ****** ****** ****** ****** ******
      ****** ****** ****** ****** ****** ****** ****** ****** ****** ******
      ****** ****** ****** ****** ****** ****** ****** ****** ****** ******
  13  ****** ****** ****** ****** ****** ****** ****** ****** ****** ******
      ****** ****** ****** ****** ****** ****** ****** ****** ****** ******
      ****** ****** ****** ****** ****** ****** ****** ****** ****** ******
  14  ****** ****** ****** ****** ****** ****** ****** ****** ****** ******
      ****** ****** ****** ****** ****** ****** ****** ****** ****** ******
      ****** ****** ****** ****** ****** ****** ****** ****** ****** ******
  15  ****** ****** ****** ****** ****** ****** ****** ****** ****** ******
      ****** ****** ****** ****** ****** ****** ****** ****** ****** ******
      ****** ****** ****** ****** ****** ****** ****** ****** ****** ******
  16  ****** ****** ****** ****** ****** ****** ****** ****** ****** ******
      ****** ****** ****** ****** ****** ****** ****** ****** ****** ******
      ****** ****** ****** ****** ****** ****** ****** ****** ****** ******
  17  ****** ****** ****** ****** ****** ****** ****** ****** ****** ******
      ****** ****** ****** ****** ****** ****** ****** ****** ****** ******
      ****** ****** ****** ****** ****** ****** ****** ****** ****** ******
  18  ****** ****** ****** ****** ****** ****** ****** ****** ****** ******
      ****** ****** ****** ****** ****** ****** ****** ****** ****** ******
      ****** ****** ****** ****** ****** ****** ****** ****** ****** ******
  19  ****** ****** ****** ****** ****** ****** ****** ****** ****** ******
      ****** ****** ****** ****** ****** ****** ****** ****** ****** ******
      ****** ****** ****** ****** ****** ****** ****** ****** ****** ******
  20  ****** ****** ****** ****** ****** ****** ****** ****** ****** ******
      ****** ****** ****** ****** ****** ****** ****** ****** ****** ******
      ****** ****** ****** ****** ****** ****** ****** ****** ****** ******
  21  ****** ****** ****** ****** ****** ****** ****** ****** ****** ******
      ****** ****** ****** ****** ****** ****** ****** ****** ****** ******
      ****** ****** ****** ****** ****** ****** ****** ****** ****** ******
  22  ****** ****** ****** ****** ****** ****** ****** ****** ****** ******
      ****** ****** ****** ****** ****** ****** ****** ****** ****** ******
      ****** ****** ****** ****** ****** ****** ****** ****** ****** ******
  23  ****** ****** ****** ****** ****** ****** ****** ****** ****** ******
      ****** ****** ****** ****** ****** ****** ****** ****** ****** ******
      ****** ****** ****** ****** ****** ****** ****** ****** ****** ******
  24  ****** ****** ****** ****** ****** ****** ****** ****** ****** ******
      ****** ****** ****** ****** ****** ****** ****** ****** ****** ******
      ****** ****** ****** ****** ****** ****** ****** ****** ****** ******
  25  ****** ****** ****** ****** ****** ****** ****** ****** ****** ******
      ****** ****** ****** ****** ****** ****** ****** ****** ****** ******
      ****** ****** ****** ****** ****** ****** ****** ****** ****** ******

 HEAD WILL BE SAVED ON UNIT   51 AT END OF TIME STEP    1, STRESS PERIOD   12
1
  VOLUMETRIC BUDGET FOR ENTIRE MODEL AT END OF TIME STEP    1, STRESS PERIOD  12
  ------------------------------------------------------------------------------

     CUMULATIVE VOLUMES      L**3       RATES FOR THIS TIME STEP      L**3/T
     ------------------                 ------------------------

           IN:                                      IN:
           ---                                      ---
             STORAGE =    21248080.9072               STORAGE =           0.0000
       CONSTANT HEAD =  1337134492.6672         CONSTANT HEAD =     1205539.5371
               WELLS =           0.0000                 WELLS =           0.0000
            RECHARGE =    26413200.0000              RECHARGE =       27600.0000
      STREAM LEAKAGE =           0.0000        STREAM LEAKAGE =           0.0000

            TOTAL IN =  1384795773.5744              TOTAL IN =     1233139.5371

          OUT:                                     OUT:
          ----                                     ----
             STORAGE =     1099798.1166               STORAGE =        2000.1521
       CONSTANT HEAD =           0.0000         CONSTANT HEAD =           0.0000
               WELLS =   117780273.0000                 WELLS =       85000.5000
            RECHARGE =           0.0000              RECHARGE =           0.0000
      STREAM LEAKAGE =  1265915710.0814        STREAM LEAKAGE =     1146138.8597

           TOTAL OUT =  1384795781.1980             TOTAL OUT =     1233139.5118

            IN - OUT =          -7.6236              IN - OUT =       2.5261E-02

 PERCENT DISCREPANCY =          -0.00     PERCENT DISCREPANCY =           0.00






         TIME SUMMARY AT END OF TIME STEP    1 IN STRESS PERIOD   12
                    SECONDS     MINUTES      HOURS       DAYS        YEARS
                    -----------------------------------------------------------
   TIME STEP LENGTH 7.86240E+06 1.31040E+05  2184.0      91.000     0.24914    
 STRESS PERIOD TIME 7.86240E+06 1.31040E+05  2184.0      91.000     0.24914    
         TOTAL TIME 9.46080E+07 1.57680E+06  26280.      1095.0      2.9979    
1

 Run end date and time (yyyy/mm/dd hh:mm:ss): 2018/09/30 22:05:36
 Elapsed run time:  0.070 Seconds

