                                  MODFLOW-2005     
      U.S. GEOLOGICAL SURVEY MODULAR FINITE-DIFFERENCE GROUND-WATER FLOW MODEL
                            VERSION 1.11.00 8/8/2013

 LIST FILE: supply2.lst
                         UNIT   10

 OPENING ..\data\supply.dis
 FILE TYPE:DIS   UNIT   11   STATUS:OLD    
 FORMAT:FORMATTED              ACCESS:SEQUENTIAL          

 OPENING ..\data\supply.ba6
 FILE TYPE:BAS6   UNIT   12   STATUS:OLD    
 FORMAT:FORMATTED              ACCESS:SEQUENTIAL          

 OPENING ..\data\supply_het.bc6
 FILE TYPE:BCF6   UNIT   13   STATUS:OLD    
 FORMAT:FORMATTED              ACCESS:SEQUENTIAL          

 OPENING ..\data\supply.rch
 FILE TYPE:RCH   UNIT   15   STATUS:OLD    
 FORMAT:FORMATTED              ACCESS:SEQUENTIAL          

 OPENING ..\data\supply2.sfr
 FILE TYPE:SFR   UNIT   16   STATUS:OLD    
 FORMAT:FORMATTED              ACCESS:SEQUENTIAL          

 OPENING ..\data\supply.oc
 FILE TYPE:OC   UNIT   17   STATUS:OLD    
 FORMAT:FORMATTED              ACCESS:SEQUENTIAL          

 OPENING ..\data\supply.pcg
 FILE TYPE:PCG   UNIT   18   STATUS:OLD    
 FORMAT:FORMATTED              ACCESS:SEQUENTIAL          

 OPENING supply2.wel
 FILE TYPE:WEL   UNIT   19   STATUS:OLD    
 FORMAT:FORMATTED              ACCESS:SEQUENTIAL          

 OPENING supply2sf.cbc
 FILE TYPE:DATA(BINARY)   UNIT   50   STATUS:UNKNOWN
 FORMAT:BINARY                 ACCESS:SEQUENTIAL          

 OPENING supply2hd.bhd
 FILE TYPE:DATA(BINARY)   UNIT   51   STATUS:UNKNOWN
 FORMAT:BINARY                 ACCESS:SEQUENTIAL          

 BAS -- BASIC PACKAGE, VERSION 7, 5/2/2005 INPUT READ FROM UNIT   12
 
 MODFLOW was compiled using uniform precision
 Precision of REAL and DOUBLE PRECISION variables:          15

 DISCRETIZATION INPUT DATA READ FROM UNIT   11
    1 LAYERS        25 ROWS        30 COLUMNS
   12 STRESS PERIOD(S) IN SIMULATION
 MODEL TIME UNIT IS DAYS
 MODEL LENGTH UNIT IS UNDEFINED
  Confining bed flag for each layer:
   0

                     DELR =   200.000    

                     DELC =   200.000    

 TOP ELEVATION OF LAYER 1 =  100.0000    

   MODEL LAYER BOTTOM EL. =   0.00000     FOR LAYER   1


 STRESS PERIOD     LENGTH       TIME STEPS     MULTIPLIER FOR DELT    SS FLAG
 ----------------------------------------------------------------------------
        1         92.00000          1                    1.500         TR
        2         91.00000          1                    1.500         TR
        3         91.00000          1                    1.500         TR
        4         91.00000          1                    1.500         TR
        5         92.00000          1                    1.500         TR
        6         91.00000          1                    1.500         TR
        7         91.00000          1                    1.500         TR
        8         91.00000          1                    1.500         TR
        9         92.00000          1                    1.500         TR
       10         91.00000          1                    1.500         TR
       11         91.00000          1                    1.500         TR
       12         91.00000          1                    1.500         TR

 TRANSIENT SIMULATION



 
 #MODOFC transient water supply sample problem                                   
 #                                                                               
 THE FREE FORMAT OPTION HAS BEEN SELECTED



                     BOUNDARY ARRAY FOR LAYER   1
 READING ON UNIT   12 WITH FORMAT: (20I4)              

 AQUIFER HEAD WILL BE SET TO   0.0000     AT ALL NO-FLOW NODES (IBOUND=0).



                       INITIAL HEAD FOR LAYER   1
 READING ON UNIT   12 WITH FORMAT: (10F13.0)           

 OUTPUT CONTROL IS SPECIFIED ONLY AT TIME STEPS FOR WHICH OUTPUT IS DESIRED
 COMPACT CELL-BY-CELL BUDGET FILES WILL BE WRITTEN
 HEAD PRINT FORMAT CODE IS  18    DRAWDOWN PRINT FORMAT CODE IS   0
 HEADS WILL BE SAVED ON UNIT   51    DRAWDOWNS WILL BE SAVED ON UNIT    0

 BCF -- BLOCK-CENTERED FLOW PACKAGE, VERSION 7, 5/2/2005
         INPUT READ FROM UNIT 13
 TRANSIENT SIMULATION
 HEAD AT CELLS THAT CONVERT TO DRY=   0.0000    
 WETTING CAPABILITY IS NOT ACTIVE
      LAYER  LAYER-TYPE CODE     INTERBLOCK T
      --------------------------------------------
         1            0          0 -- HARMONIC    

 COLUMN TO ROW ANISOTROPY =  1.000000    

     PRIMARY STORAGE COEF =  5.000000E-02 FOR LAYER   1



               TRANSMIS. ALONG ROWS FOR LAYER   1
 READING ON UNIT   13 WITH FORMAT: (FREE)              

 WEL -- WELL PACKAGE, VERSION 7, 5/2/2005 INPUT READ FROM UNIT   19
 # Well package input file written by MMProc
 No named parameters
 MAXIMUM OF      4 ACTIVE WELLS AT ONE TIME


     0 Well parameters

 RCH -- RECHARGE PACKAGE, VERSION 7, 5/2/2005 INPUT READ FROM UNIT   15
 No named parameters
 OPTION 1 -- RECHARGE TO TOP LAYER


     0 Recharge parameters

 SFR7 -- STREAMFLOW ROUTING PACKAGE, VERSION 1.0.7, 2013-01-15
         INPUT READ FROM UNIT  16
 #  Supply2 test problem for GWM-VI
 #  The eighth entry in the first data line is ISTCB2 -
 #    Setting this to a negative number indicates that
 #    streamflows out of the reach will be saved to a
 #    binary file.  The absolute value of ISTCB2 is the
 #    unit to which unformatted flows will be written.
 #
 No named parameters
 Segment information will not be 
 read by reach
 No named parameters
 No specifed inflow files


 NUMBER OF STREAM REACHES IS   40

 NUMBER OF STREAM SEGMENTS IS    3

 NUMBER OF STREAM PARAMETERS IS    0

 NUMBER OF STREAM SEGMENTS DEFINED USING PARAMETERS IS              0

 MAXIMUM ERROR FOR STREAM LEAKAGE RATES IS  1.00E-04

 CONSTANT FOR MANNINGS EQUATION IS  1.2839E+05





   STREAM NETWORK DESCRIPTION: 

   LAYER    ROW    COL   SEGMENT   REACH     LENGTH
                          NUMBER   NUMBER    IN CELL        
   --------------------------------------------------
      1     13      1       1        1    2.0000E+02
      1     13      2       1        2    2.0000E+02
      1     14      3       1        3    2.0000E+02
      1     15      4       1        4    2.0000E+02
      1     16      5       1        5    2.0000E+02
      1     16      6       1        6    2.0000E+02
      1     16      7       1        7    2.0000E+02
      1     16      8       1        8    2.0000E+02
      1     16      9       1        9    2.0000E+02
      1     16     10       1       10    2.0000E+02
      1     16     11       1       11    2.0000E+02
      1     16     12       1       12    2.0000E+02
      1     15     13       1       13    2.0000E+02
      1     14     14       1       14    2.0000E+02
      1     13     15       1       15    2.0000E+02
      1     12     16       1       16    2.0000E+02
      1     12     17       1       17    2.0000E+02
      1     12     18       1       18    2.0000E+02
      1     12     19       1       19    2.0000E+02
      1     13     20       1       20    2.0000E+02
      1     14     21       1       21    2.0000E+02
      1     14     22       1       22    2.0000E+02
      1      9     30       2        1    2.0000E+02
      1      9     29       2        2    2.0000E+02
      1      9     28       2        3    2.0000E+02
      1      9     27       2        4    2.0000E+02
      1     10     26       2        5    2.0000E+02
      1     11     25       2        6    2.0000E+02
      1     12     24       2        7    2.0000E+02
      1     13     23       2        8    2.0000E+02
      1     14     22       2        9    2.0000E+02
      1     14     22       3        1    2.0000E+02
      1     15     23       3        2    2.0000E+02
      1     15     24       3        3    2.0000E+02
      1     15     25       3        4    2.0000E+02
      1     15     26       3        5    2.0000E+02
      1     16     27       3        6    2.0000E+02
      1     17     28       3        7    2.0000E+02
      1     18     29       3        8    2.0000E+02
      1     18     30       3        9    2.0000E+02




 PCG -- CONJUGATE-GRADIENT SOLUTION PACKAGE, VERSION 7, 5/2/2005
 MAXIMUM OF    500 CALLS OF SOLUTION ROUTINE
 MAXIMUM OF      5 INTERNAL ITERATIONS PER CALL TO SOLUTION ROUTINE
 MATRIX PRECONDITIONING TYPE :    1



                                    SOLUTION BY THE CONJUGATE-GRADIENT METHOD
                                   -------------------------------------------
                    MAXIMUM NUMBER OF CALLS TO PCG ROUTINE =      500
                        MAXIMUM ITERATIONS PER CALL TO PCG =        5
                               MATRIX PRECONDITIONING TYPE =        1
        RELAXATION FACTOR (ONLY USED WITH PRECOND. TYPE 1) =    0.10000E+01
 PARAMETER OF POLYNOMIAL PRECOND. = 2 (2) OR IS CALCULATED :        0
                         HEAD CHANGE CRITERION FOR CLOSURE =    0.10000E-05
                     RESIDUAL CHANGE CRITERION FOR CLOSURE =    0.10000E+01
            PCG HEAD AND RESIDUAL CHANGE PRINTOUT INTERVAL =        1
     PRINTING FROM SOLVER IS LIMITED(1) OR SUPPRESSED (>1) =        1
                            STEADY-STATE DAMPING PARAMETER =    0.10000E+01
                               TRANSIENT DAMPING PARAMETER =    0.10000E+01
1
                            STRESS PERIOD NO.    1, LENGTH =   92.00000    
                            -----------------------------------------------

                              NUMBER OF TIME STEPS =     1

                               MULTIPLIER FOR DELT =     1.500

                            INITIAL TIME STEP SIZE =   92.00000    

 WELL NO.  LAYER   ROW   COL   STRESS RATE         
 --------------------------------------------------
      1      1     10     17     -0.1009E+05
      2      1     11     19      -420.2    
      3      1     19     16     -0.1201E+05
      4      1      6     15      -7895.    

      4 WELLS

                 RECHARGE =  5.000000E-04



 CLASSIFICATION & COUNT OF STREAM SEGMENTS BASED ON SOURCE OF INFLOW:

                HEADWATER     DIVERSION     RECEIVES TRIBUTARY FLOW
                ---------     ---------     -----------------------
                     2              0               1



                    INPUT DATA FOR EACH STREAM SEGMENT
 ---------------------------------------------------------------------------------------------

 SEGMENT    SEG.     INFLOW   OVERLAND   STREAM    STREAM   ICALC  OUTFLOW  DIVERSION PRIORITY
    NO.    LENGTH     RATE     RUNOFF      ET       PPT.    METH.  TO SEG.  FROM SEG.    NO.

      1  4.400E+03 1.000E+05 0.000E+00 0.000E+00 0.000E+00    1        3        0        0
      2  1.800E+03 5.000E+04 0.000E+00 0.000E+00 0.000E+00    1        3        0        0
      3  1.800E+03 0.000E+00 0.000E+00 0.000E+00 0.000E+00    1        0        0        0


         STREAMBED PROPERTIES AND STREAM DIMENSIONS

 SEGMENT     BED HYD. COND.      BED THICKNESS     ELEV.-TOP OF BED     WIDTH OF STREAM     DEPTH OF STREAM    STREAM ROUGHNESS
    No.     UPPER     LOWER     UPPER     LOWER     UPPER     LOWER     UPPER     LOWER     UPPER     LOWER   CHANNEL      BANK

     1  5.000E+00 5.000E+00 1.000E+00 1.000E+00 4.850E+01 3.800E+01 2.000E+01 2.000E+01                     5.000E-02
     2  5.000E+00 5.000E+00 1.000E+00 1.000E+00 4.025E+01 3.800E+01 2.000E+01 2.000E+01                     5.000E-02
     3  5.000E+00 5.000E+00 1.000E+00 1.000E+00 3.800E+01 3.000E+01 2.000E+01 2.000E+01                     5.000E-02



 
 SOLVING FOR HEAD 


     9 CALLS TO PCG ROUTINE FOR TIME STEP   1 IN STRESS PERIOD    1
    36 TOTAL ITERATIONS

 OUTPUT CONTROL FOR STRESS PERIOD    1   TIME STEP    1
    SAVE BUDGET
    SAVE HEAD FOR ALL LAYERS
    PRINT HEAD FOR ALL LAYERS
 UBDSV2 SAVING "STREAMFLOW OUT  " ON UNIT  50 AT TIME STEP  1, STRESS PERIOD   1



 STREAM LISTING     PERIOD      1   STEP        1

 LAYER ROW COL. STREAM  RCH.  FLOW INTO     FLOW TO   FLOW OUT OF   OVRLND.     DIRECT     STREAM       STREAM     STREAM     STREAM   STREAMBED  STREAMBED
                SEG.NO.  NO.  STRM. RCH.    AQUIFER    STRM. RCH.    RUNOFF     PRECIP       ET          HEAD       DEPTH      WIDTH   CONDCTNC.   GRADIENT

   1   13    1     1     1    1.0000E+05 -6.0996E+03   1.0610E+05  0.000E+00  0.000E+00  0.000E+00  4.84086E+01  1.473E-01  2.000E+01  2.000E+04 -3.050E-01
   1   13    2     1     2    1.0610E+05 -7.5687E+03   1.1367E+05  0.000E+00  0.000E+00  0.000E+00  4.79372E+01  1.531E-01  2.000E+01  2.000E+04 -3.784E-01
   1   14    3     1     3    1.1367E+05 -2.1961E+03   1.1586E+05  0.000E+00  0.000E+00  0.000E+00  4.74639E+01  1.571E-01  2.000E+01  2.000E+04 -1.098E-01
   1   15    4     1     4    1.1586E+05 -2.2659E+03   1.1813E+05  0.000E+00  0.000E+00  0.000E+00  4.69885E+01  1.589E-01  2.000E+01  2.000E+04 -1.133E-01
   1   16    5     1     5    1.1813E+05 -7.1396E+03   1.2527E+05  0.000E+00  0.000E+00  0.000E+00  4.65150E+01  1.627E-01  2.000E+01  2.000E+04 -3.570E-01
   1   16    6     1     6    1.2527E+05 -4.2632E+03   1.2953E+05  0.000E+00  0.000E+00  0.000E+00  4.60423E+01  1.673E-01  2.000E+01  2.000E+04 -2.132E-01
   1   16    7     1     7    1.2953E+05 -4.0831E+03   1.3362E+05  0.000E+00  0.000E+00  0.000E+00  4.55683E+01  1.705E-01  2.000E+01  2.000E+04 -2.042E-01
   1   16    8     1     8    1.3362E+05 -4.0185E+03   1.3763E+05  0.000E+00  0.000E+00  0.000E+00  4.50941E+01  1.737E-01  2.000E+01  2.000E+04 -2.009E-01
   1   16    9     1     9    1.3763E+05 -3.9713E+03   1.4161E+05  0.000E+00  0.000E+00  0.000E+00  4.46199E+01  1.767E-01  2.000E+01  2.000E+04 -1.986E-01
   1   16   10     1    10    1.4161E+05 -3.9106E+03   1.4552E+05  0.000E+00  0.000E+00  0.000E+00  4.41456E+01  1.797E-01  2.000E+01  2.000E+04 -1.955E-01
   1   16   11     1    11    1.4552E+05 -3.8425E+03   1.4936E+05  0.000E+00  0.000E+00  0.000E+00  4.36712E+01  1.826E-01  2.000E+01  2.000E+04 -1.921E-01
   1   16   12     1    12    1.4936E+05 -6.2069E+03   1.5557E+05  0.000E+00  0.000E+00  0.000E+00  4.31977E+01  1.863E-01  2.000E+01  2.000E+04 -3.103E-01
   1   15   13     1    13    1.5557E+05 -6.5327E+03   1.6210E+05  0.000E+00  0.000E+00  0.000E+00  4.27250E+01  1.909E-01  2.000E+01  2.000E+04 -3.266E-01
   1   14   14     1    14    1.6210E+05 -7.0254E+03   1.6912E+05  0.000E+00  0.000E+00  0.000E+00  4.22526E+01  1.958E-01  2.000E+01  2.000E+04 -3.513E-01
   1   13   15     1    15    1.6912E+05 -7.2538E+03   1.7638E+05  0.000E+00  0.000E+00  0.000E+00  4.17804E+01  2.008E-01  2.000E+01  2.000E+04 -3.627E-01
   1   12   16     1    16    1.7638E+05 -7.0051E+03   1.8338E+05  0.000E+00  0.000E+00  0.000E+00  4.13080E+01  2.057E-01  2.000E+01  2.000E+04 -3.503E-01
   1   12   17     1    17    1.8338E+05 -4.3198E+03   1.8770E+05  0.000E+00  0.000E+00  0.000E+00  4.08346E+01  2.096E-01  2.000E+01  2.000E+04 -2.160E-01
   1   12   18     1    18    1.8770E+05 -4.7219E+03   1.9242E+05  0.000E+00  0.000E+00  0.000E+00  4.03604E+01  2.126E-01  2.000E+01  2.000E+04 -2.361E-01
   1   12   19     1    19    1.9242E+05 -6.5454E+03   1.9897E+05  0.000E+00  0.000E+00  0.000E+00  3.98869E+01  2.164E-01  2.000E+01  2.000E+04 -3.273E-01
   1   13   20     1    20    1.9897E+05 -6.3159E+03   2.0529E+05  0.000E+00  0.000E+00  0.000E+00  3.94138E+01  2.206E-01  2.000E+01  2.000E+04 -3.158E-01
   1   14   21     1    21    2.0529E+05 -5.9728E+03   2.1126E+05  0.000E+00  0.000E+00  0.000E+00  3.89406E+01  2.246E-01  2.000E+01  2.000E+04 -2.986E-01
   1   14   22     1    22    2.1126E+05  3.6790E+03   2.0758E+05  0.000E+00  0.000E+00  0.000E+00  3.84640E+01  2.254E-01  2.000E+01  2.000E+04  1.839E-01
   1    9   30     2     1    5.0000E+04 -4.8342E+03   5.4834E+04  0.000E+00  0.000E+00  0.000E+00  4.02442E+01  1.192E-01  2.000E+01  2.000E+04 -2.417E-01
   1    9   29     2     2    5.4834E+04 -5.1255E+03   5.9960E+04  0.000E+00  0.000E+00  0.000E+00  4.00009E+01  1.259E-01  2.000E+01  2.000E+04 -2.563E-01
   1    9   28     2     3    5.9960E+04 -5.3995E+03   6.5359E+04  0.000E+00  0.000E+00  0.000E+00  3.97577E+01  1.327E-01  2.000E+01  2.000E+04 -2.700E-01
   1    9   27     2     4    6.5359E+04 -8.1853E+03   7.3545E+04  0.000E+00  0.000E+00  0.000E+00  3.95161E+01  1.411E-01  2.000E+01  2.000E+04 -4.093E-01
   1   10   26     2     5    7.3545E+04 -7.2093E+03   8.0754E+04  0.000E+00  0.000E+00  0.000E+00  3.92753E+01  1.503E-01  2.000E+01  2.000E+04 -3.605E-01
   1   11   25     2     6    8.0754E+04 -6.6379E+03   8.7392E+04  0.000E+00  0.000E+00  0.000E+00  3.90333E+01  1.583E-01  2.000E+01  2.000E+04 -3.319E-01
   1   12   24     2     7    8.7392E+04 -6.1128E+03   9.3504E+04  0.000E+00  0.000E+00  0.000E+00  3.87904E+01  1.654E-01  2.000E+01  2.000E+04 -3.056E-01
   1   13   23     2     8    9.3504E+04 -1.6182E+03   9.5123E+04  0.000E+00  0.000E+00  0.000E+00  3.85446E+01  1.696E-01  2.000E+01  2.000E+04 -8.091E-02
   1   14   22     2     9    9.5123E+04  3.0377E+02   9.4819E+04  0.000E+00  0.000E+00  0.000E+00  3.82953E+01  1.703E-01  2.000E+01  2.000E+04  1.519E-02
   1   14   22     3     1    3.0240E+05 -9.7822E+03   3.1218E+05  0.000E+00  0.000E+00  0.000E+00  3.77910E+01  2.354E-01  2.000E+01  2.000E+04 -4.891E-01
   1   15   23     3     2    3.1218E+05 -1.9305E+03   3.1411E+05  0.000E+00  0.000E+00  0.000E+00  3.69048E+01  2.381E-01  2.000E+01  2.000E+04 -9.652E-02
   1   15   24     3     3    3.1411E+05 -1.5201E+03   3.1563E+05  0.000E+00  0.000E+00  0.000E+00  3.60167E+01  2.389E-01  2.000E+01  2.000E+04 -7.600E-02
   1   15   25     3     4    3.1563E+05 -1.5749E+03   3.1721E+05  0.000E+00  0.000E+00  0.000E+00  3.51285E+01  2.396E-01  2.000E+01  2.000E+04 -7.874E-02
   1   15   26     3     5    3.1721E+05 -1.8809E+03   3.1909E+05  0.000E+00  0.000E+00  0.000E+00  3.42404E+01  2.404E-01  2.000E+01  2.000E+04 -9.405E-02
   1   16   27     3     6    3.1909E+05 -2.1609E+03   3.2125E+05  0.000E+00  0.000E+00  0.000E+00  3.33524E+01  2.413E-01  2.000E+01  2.000E+04 -1.080E-01
   1   17   28     3     7    3.2125E+05 -6.5606E+03   3.2781E+05  0.000E+00  0.000E+00  0.000E+00  3.24655E+01  2.432E-01  2.000E+01  2.000E+04 -3.280E-01
   1   18   29     3     8    3.2781E+05 -7.9468E+03   3.3576E+05  0.000E+00  0.000E+00  0.000E+00  3.15798E+01  2.465E-01  2.000E+01  2.000E+04 -3.973E-01
   1   18   30     3     9    3.3576E+05 -7.1476E+03   3.4290E+05  0.000E+00  0.000E+00  0.000E+00  3.06943E+01  2.498E-01  2.000E+01  2.000E+04 -3.574E-01



1
              HEAD IN LAYER   1 AT END OF TIME STEP   1 IN STRESS PERIOD    1
  ---------------------------------------------------------------------------

          1      2      3      4      5      6      7      8      9     10
         11     12     13     14     15     16     17     18     19     20
         21     22     23     24     25     26     27     28     29     30
 .........................................................................
   1  ****** ****** ****** ****** ****** ****** ****** ****** ****** ******
      ****** ****** ****** ****** ****** ****** ****** ****** ****** ******
      ****** ****** ****** ****** ****** ****** ****** ****** ****** ******
   2  ****** ****** ****** ****** ****** ****** ****** ****** ****** ******
      ****** ****** ****** ****** ****** ****** ****** ****** ****** ******
      ****** ****** ****** ****** ****** ****** ****** ****** ****** ******
   3  ****** ****** ****** ****** ****** ****** ****** ****** ****** ******
      ****** ****** ****** ****** ****** ****** ****** ****** ****** ******
      ****** ****** ****** ****** ****** ****** ****** ****** ****** ******
   4  ****** ****** ****** ****** ****** ****** ****** ****** ****** ******
      ****** ****** ****** ****** ****** ****** ****** ****** ****** ******
      ****** ****** ****** ****** ****** ****** ****** ****** ****** ******
   5  ****** ****** ****** ****** ****** ****** ****** ****** ****** ******
      ****** ****** ****** ****** ****** ****** ****** ****** ****** ******
      ****** ****** ****** ****** ****** ****** ****** ****** ****** ******
   6  ****** ****** ****** ****** ****** ****** ****** ****** ****** ******
      ****** ****** ****** ****** ****** ****** ****** ****** ****** ******
      ****** ****** ****** ****** ****** ****** ****** ****** ****** ******
   7  ****** ****** ****** ****** ****** ****** ****** ****** ****** ******
      ****** ****** ****** ****** ****** ****** ****** ****** ****** ******
      ****** ****** ****** ****** ****** ****** ****** ****** ****** ******
   8  ****** ****** ****** ****** ****** ****** ****** ****** ****** ******
      ****** ****** ****** ****** ****** ****** ****** ****** ****** ******
      ****** ****** ****** ****** ****** ****** ****** ****** ****** ******
   9  ****** ****** ****** ****** ****** ****** ****** ****** ****** ******
      ****** ****** ****** ****** ****** ****** ****** ****** ****** ******
      ****** ****** ****** ****** ****** ****** ****** ****** ****** ******
  10  ****** ****** ****** ****** ****** ****** ****** ****** ****** ******
      ****** ****** ****** ****** ****** ****** ****** ****** ****** ******
      ****** ****** ****** ****** ****** ****** ****** ****** ****** ******
  11  ****** ****** ****** ****** ****** ****** ****** ****** ****** ******
      ****** ****** ****** ****** ****** ****** ****** ****** ****** ******
      ****** ****** ****** ****** ****** ****** ****** ****** ****** ******
  12  ****** ****** ****** ****** ****** ****** ****** ****** ****** ******
      ****** ****** ****** ****** ****** ****** ****** ****** ****** ******
      ****** ****** ****** ****** ****** ****** ****** ****** ****** ******
  13  ****** ****** ****** ****** ****** ****** ****** ****** ****** ******
      ****** ****** ****** ****** ****** ****** ****** ****** ****** ******
      ****** ****** ****** ****** ****** ****** ****** ****** ****** ******
  14  ****** ****** ****** ****** ****** ****** ****** ****** ****** ******
      ****** ****** ****** ****** ****** ****** ****** ****** ****** ******
      ****** ****** ****** ****** ****** ****** ****** ****** ****** ******
  15  ****** ****** ****** ****** ****** ****** ****** ****** ****** ******
      ****** ****** ****** ****** ****** ****** ****** ****** ****** ******
      ****** ****** ****** ****** ****** ****** ****** ****** ****** ******
  16  ****** ****** ****** ****** ****** ****** ****** ****** ****** ******
      ****** ****** ****** ****** ****** ****** ****** ****** ****** ******
      ****** ****** ****** ****** ****** ****** ****** ****** ****** ******
  17  ****** ****** ****** ****** ****** ****** ****** ****** ****** ******
      ****** ****** ****** ****** ****** ****** ****** ****** ****** ******
      ****** ****** ****** ****** ****** ****** ****** ****** ****** ******
  18  ****** ****** ****** ****** ****** ****** ****** ****** ****** ******
      ****** ****** ****** ****** ****** ****** ****** ****** ****** ******
      ****** ****** ****** ****** ****** ****** ****** ****** ****** ******
  19  ****** ****** ****** ****** ****** ****** ****** ****** ****** ******
      ****** ****** ****** ****** ****** ****** ****** ****** ****** ******
      ****** ****** ****** ****** ****** ****** ****** ****** ****** ******
  20  ****** ****** ****** ****** ****** ****** ****** ****** ****** ******
      ****** ****** ****** ****** ****** ****** ****** ****** ****** ******
      ****** ****** ****** ****** ****** ****** ****** ****** ****** ******
  21  ****** ****** ****** ****** ****** ****** ****** ****** ****** ******
      ****** ****** ****** ****** ****** ****** ****** ****** ****** ******
      ****** ****** ****** ****** ****** ****** ****** ****** ****** ******
  22  ****** ****** ****** ****** ****** ****** ****** ****** ****** ******
      ****** ****** ****** ****** ****** ****** ****** ****** ****** ******
      ****** ****** ****** ****** ****** ****** ****** ****** ****** ******
  23  ****** ****** ****** ****** ****** ****** ****** ****** ****** ******
      ****** ****** ****** ****** ****** ****** ****** ****** ****** ******
      ****** ****** ****** ****** ****** ****** ****** ****** ****** ******
  24  ****** ****** ****** ****** ****** ****** ****** ****** ****** ******
      ****** ****** ****** ****** ****** ****** ****** ****** ****** ******
      ****** ****** ****** ****** ****** ****** ****** ****** ****** ******
  25  ****** ****** ****** ****** ****** ****** ****** ****** ****** ******
      ****** ****** ****** ****** ****** ****** ****** ****** ****** ******
      ****** ****** ****** ****** ****** ****** ****** ****** ****** ******

 HEAD WILL BE SAVED ON UNIT   51 AT END OF TIME STEP    1, STRESS PERIOD    1
1
  VOLUMETRIC BUDGET FOR ENTIRE MODEL AT END OF TIME STEP    1, STRESS PERIOD   1
  ------------------------------------------------------------------------------

     CUMULATIVE VOLUMES      L**3       RATES FOR THIS TIME STEP      L**3/T
     ------------------                 ------------------------

           IN:                                      IN:
           ---                                      ---
             STORAGE =    18088830.2813               STORAGE =      196617.7204
       CONSTANT HEAD =     1186878.9286         CONSTANT HEAD =       12900.8579
               WELLS =           0.0000                 WELLS =           0.0000
            RECHARGE =     1269600.0000              RECHARGE =       13800.0000
      STREAM LEAKAGE =      366413.3189        STREAM LEAKAGE =        3982.7535

            TOTAL IN =    20911722.5287              TOTAL IN =      227301.3318

          OUT:                                     OUT:
          ----                                     ----
             STORAGE =           0.0000               STORAGE =           0.0000
       CONSTANT HEAD =           0.0000         CONSTANT HEAD =           0.0000
               WELLS =     2798230.5019                 WELLS =       30415.5489
            RECHARGE =           0.0000              RECHARGE =           0.0000
      STREAM LEAKAGE =    18113492.3386        STREAM LEAKAGE =      196885.7863

           TOTAL OUT =    20911722.8405             TOTAL OUT =      227301.3352

            IN - OUT =          -0.3118              IN - OUT =      -3.3892E-03

 PERCENT DISCREPANCY =          -0.00     PERCENT DISCREPANCY =          -0.00






         TIME SUMMARY AT END OF TIME STEP    1 IN STRESS PERIOD    1
                    SECONDS     MINUTES      HOURS       DAYS        YEARS
                    -----------------------------------------------------------
   TIME STEP LENGTH 7.94880E+06 1.32480E+05  2208.0      92.000     0.25188    
 STRESS PERIOD TIME 7.94880E+06 1.32480E+05  2208.0      92.000     0.25188    
         TOTAL TIME 7.94880E+06 1.32480E+05  2208.0      92.000     0.25188    
1
1
                            STRESS PERIOD NO.    2, LENGTH =   91.00000    
                            -----------------------------------------------

                              NUMBER OF TIME STEPS =     1

                               MULTIPLIER FOR DELT =     1.500

                            INITIAL TIME STEP SIZE =   91.00000    

 WELL NO.  LAYER   ROW   COL   STRESS RATE         
 --------------------------------------------------
      1      1     10     17     -0.1009E+05
      2      1     11     19      -420.2    
      3      1     19     16     -0.1201E+05
      4      1      6     15      -7895.    

      4 WELLS

                 RECHARGE =  2.000000E-03

 REUSING STREAM SEGMENT DATA FROM LAST STRESS PERIOD
 
 SOLVING FOR HEAD 


     7 CALLS TO PCG ROUTINE FOR TIME STEP   1 IN STRESS PERIOD    2
    27 TOTAL ITERATIONS

 OUTPUT CONTROL FOR STRESS PERIOD    2   TIME STEP    1
    SAVE BUDGET
    SAVE HEAD FOR ALL LAYERS
    PRINT HEAD FOR ALL LAYERS
 UBDSV2 SAVING "STREAMFLOW OUT  " ON UNIT  50 AT TIME STEP  1, STRESS PERIOD   2



 STREAM LISTING     PERIOD      2   STEP        1

 LAYER ROW COL. STREAM  RCH.  FLOW INTO     FLOW TO   FLOW OUT OF   OVRLND.     DIRECT     STREAM       STREAM     STREAM     STREAM   STREAMBED  STREAMBED
                SEG.NO.  NO.  STRM. RCH.    AQUIFER    STRM. RCH.    RUNOFF     PRECIP       ET          HEAD       DEPTH      WIDTH   CONDCTNC.   GRADIENT

   1   13    1     1     1    1.0000E+05 -3.9471E+03   1.0395E+05  0.000E+00  0.000E+00  0.000E+00  4.84077E+01  1.464E-01  2.000E+01  2.000E+04 -1.974E-01
   1   13    2     1     2    1.0395E+05 -5.2069E+03   1.0915E+05  0.000E+00  0.000E+00  0.000E+00  4.79344E+01  1.503E-01  2.000E+01  2.000E+04 -2.603E-01
   1   14    3     1     3    1.0915E+05 -1.1085E+03   1.1026E+05  0.000E+00  0.000E+00  0.000E+00  4.74597E+01  1.529E-01  2.000E+01  2.000E+04 -5.542E-02
   1   15    4     1     4    1.1026E+05 -1.1334E+03   1.1140E+05  0.000E+00  0.000E+00  0.000E+00  4.69834E+01  1.539E-01  2.000E+01  2.000E+04 -5.667E-02
   1   16    5     1     5    1.1140E+05 -4.1581E+03   1.1555E+05  0.000E+00  0.000E+00  0.000E+00  4.65083E+01  1.561E-01  2.000E+01  2.000E+04 -2.079E-01
   1   16    6     1     6    1.1555E+05 -2.4288E+03   1.1798E+05  0.000E+00  0.000E+00  0.000E+00  4.60338E+01  1.588E-01  2.000E+01  2.000E+04 -1.214E-01
   1   16    7     1     7    1.1798E+05 -2.3107E+03   1.2029E+05  0.000E+00  0.000E+00  0.000E+00  4.55584E+01  1.607E-01  2.000E+01  2.000E+04 -1.155E-01
   1   16    8     1     8    1.2029E+05 -2.2442E+03   1.2254E+05  0.000E+00  0.000E+00  0.000E+00  4.50830E+01  1.625E-01  2.000E+01  2.000E+04 -1.122E-01
   1   16    9     1     9    1.2254E+05 -2.1680E+03   1.2471E+05  0.000E+00  0.000E+00  0.000E+00  4.46075E+01  1.643E-01  2.000E+01  2.000E+04 -1.084E-01
   1   16   10     1    10    1.2471E+05 -2.0597E+03   1.2677E+05  0.000E+00  0.000E+00  0.000E+00  4.41319E+01  1.660E-01  2.000E+01  2.000E+04 -1.030E-01
   1   16   11     1    11    1.2677E+05 -1.9216E+03   1.2869E+05  0.000E+00  0.000E+00  0.000E+00  4.36562E+01  1.675E-01  2.000E+01  2.000E+04 -9.608E-02
   1   16   12     1    12    1.2869E+05 -2.9775E+03   1.3166E+05  0.000E+00  0.000E+00  0.000E+00  4.31808E+01  1.695E-01  2.000E+01  2.000E+04 -1.489E-01
   1   15   13     1    13    1.3166E+05 -2.9693E+03   1.3463E+05  0.000E+00  0.000E+00  0.000E+00  4.27059E+01  1.718E-01  2.000E+01  2.000E+04 -1.485E-01
   1   14   14     1    14    1.3463E+05 -3.3358E+03   1.3797E+05  0.000E+00  0.000E+00  0.000E+00  4.22310E+01  1.742E-01  2.000E+01  2.000E+04 -1.668E-01
   1   13   15     1    15    1.3797E+05 -3.5504E+03   1.4152E+05  0.000E+00  0.000E+00  0.000E+00  4.17564E+01  1.768E-01  2.000E+01  2.000E+04 -1.775E-01
   1   12   16     1    16    1.4152E+05 -3.3921E+03   1.4491E+05  0.000E+00  0.000E+00  0.000E+00  4.12817E+01  1.794E-01  2.000E+01  2.000E+04 -1.696E-01
   1   12   17     1    17    1.4491E+05 -1.4812E+03   1.4639E+05  0.000E+00  0.000E+00  0.000E+00  4.08063E+01  1.813E-01  2.000E+01  2.000E+04 -7.406E-02
   1   12   18     1    18    1.4639E+05 -1.9209E+03   1.4831E+05  0.000E+00  0.000E+00  0.000E+00  4.03303E+01  1.825E-01  2.000E+01  2.000E+04 -9.604E-02
   1   12   19     1    19    1.4831E+05 -3.1278E+03   1.5144E+05  0.000E+00  0.000E+00  0.000E+00  3.98549E+01  1.844E-01  2.000E+01  2.000E+04 -1.564E-01
   1   13   20     1    20    1.5144E+05 -2.9958E+03   1.5444E+05  0.000E+00  0.000E+00  0.000E+00  3.93798E+01  1.867E-01  2.000E+01  2.000E+04 -1.498E-01
   1   14   21     1    21    1.5444E+05 -3.0179E+03   1.5746E+05  0.000E+00  0.000E+00  0.000E+00  3.89048E+01  1.888E-01  2.000E+01  2.000E+04 -1.509E-01
   1   14   22     1    22    1.5746E+05  4.4580E+03   1.5300E+05  0.000E+00  0.000E+00  0.000E+00  3.84270E+01  1.883E-01  2.000E+01  2.000E+04  2.229E-01
   1    9   30     2     1    5.0000E+04 -2.1023E+03   5.2102E+04  0.000E+00  0.000E+00  0.000E+00  4.02423E+01  1.173E-01  2.000E+01  2.000E+04 -1.051E-01
   1    9   29     2     2    5.2102E+04 -2.4046E+03   5.4507E+04  0.000E+00  0.000E+00  0.000E+00  3.99954E+01  1.204E-01  2.000E+01  2.000E+04 -1.202E-01
   1    9   28     2     3    5.4507E+04 -2.6889E+03   5.7196E+04  0.000E+00  0.000E+00  0.000E+00  3.97488E+01  1.238E-01  2.000E+01  2.000E+04 -1.344E-01
   1    9   27     2     4    5.7196E+04 -4.6606E+03   6.1856E+04  0.000E+00  0.000E+00  0.000E+00  3.95036E+01  1.286E-01  2.000E+01  2.000E+04 -2.330E-01
   1   10   26     2     5    6.1856E+04 -3.5464E+03   6.5403E+04  0.000E+00  0.000E+00  0.000E+00  3.92589E+01  1.339E-01  2.000E+01  2.000E+04 -1.773E-01
   1   11   25     2     6    6.5403E+04 -3.1248E+03   6.8528E+04  0.000E+00  0.000E+00  0.000E+00  3.90131E+01  1.381E-01  2.000E+01  2.000E+04 -1.562E-01
   1   12   24     2     7    6.8528E+04 -2.9440E+03   7.1472E+04  0.000E+00  0.000E+00  0.000E+00  3.87668E+01  1.418E-01  2.000E+01  2.000E+04 -1.472E-01
   1   13   23     2     8    7.1472E+04 -5.6186E+02   7.2034E+04  0.000E+00  0.000E+00  0.000E+00  3.85189E+01  1.439E-01  2.000E+01  2.000E+04 -2.809E-02
   1   14   22     2     9    7.2034E+04  1.2882E+03   7.0745E+04  0.000E+00  0.000E+00  0.000E+00  3.82685E+01  1.435E-01  2.000E+01  2.000E+04  6.441E-02
   1   14   22     3     1    2.2374E+05 -9.0310E+03   2.3277E+05  0.000E+00  0.000E+00  0.000E+00  3.77525E+01  1.970E-01  2.000E+01  2.000E+04 -4.516E-01
   1   15   23     3     2    2.3277E+05 -9.5222E+02   2.3373E+05  0.000E+00  0.000E+00  0.000E+00  3.68662E+01  1.995E-01  2.000E+01  2.000E+04 -4.761E-02
   1   15   24     3     3    2.3373E+05 -6.4422E+02   2.3437E+05  0.000E+00  0.000E+00  0.000E+00  3.59777E+01  1.999E-01  2.000E+01  2.000E+04 -3.221E-02
   1   15   25     3     4    2.3437E+05 -6.6025E+02   2.3503E+05  0.000E+00  0.000E+00  0.000E+00  3.50892E+01  2.003E-01  2.000E+01  2.000E+04 -3.301E-02
   1   15   26     3     5    2.3503E+05 -7.6782E+02   2.3580E+05  0.000E+00  0.000E+00  0.000E+00  3.42006E+01  2.006E-01  2.000E+01  2.000E+04 -3.839E-02
   1   16   27     3     6    2.3580E+05 -8.8896E+02   2.3669E+05  0.000E+00  0.000E+00  0.000E+00  3.33122E+01  2.011E-01  2.000E+01  2.000E+04 -4.445E-02
   1   17   28     3     7    2.3669E+05 -3.2121E+03   2.3990E+05  0.000E+00  0.000E+00  0.000E+00  3.24243E+01  2.021E-01  2.000E+01  2.000E+04 -1.606E-01
   1   18   29     3     8    2.3990E+05 -4.9449E+03   2.4484E+05  0.000E+00  0.000E+00  0.000E+00  3.15375E+01  2.042E-01  2.000E+01  2.000E+04 -2.472E-01
   1   18   30     3     9    2.4484E+05 -4.6206E+03   2.4947E+05  0.000E+00  0.000E+00  0.000E+00  3.06510E+01  2.066E-01  2.000E+01  2.000E+04 -2.310E-01



1
              HEAD IN LAYER   1 AT END OF TIME STEP   1 IN STRESS PERIOD    2
  ---------------------------------------------------------------------------

          1      2      3      4      5      6      7      8      9     10
         11     12     13     14     15     16     17     18     19     20
         21     22     23     24     25     26     27     28     29     30
 .........................................................................
   1  ****** ****** ****** ****** ****** ****** ****** ****** ****** ******
      ****** ****** ****** ****** ****** ****** ****** ****** ****** ******
      ****** ****** ****** ****** ****** ****** ****** ****** ****** ******
   2  ****** ****** ****** ****** ****** ****** ****** ****** ****** ******
      ****** ****** ****** ****** ****** ****** ****** ****** ****** ******
      ****** ****** ****** ****** ****** ****** ****** ****** ****** ******
   3  ****** ****** ****** ****** ****** ****** ****** ****** ****** ******
      ****** ****** ****** ****** ****** ****** ****** ****** ****** ******
      ****** ****** ****** ****** ****** ****** ****** ****** ****** ******
   4  ****** ****** ****** ****** ****** ****** ****** ****** ****** ******
      ****** ****** ****** ****** ****** ****** ****** ****** ****** ******
      ****** ****** ****** ****** ****** ****** ****** ****** ****** ******
   5  ****** ****** ****** ****** ****** ****** ****** ****** ****** ******
      ****** ****** ****** ****** ****** ****** ****** ****** ****** ******
      ****** ****** ****** ****** ****** ****** ****** ****** ****** ******
   6  ****** ****** ****** ****** ****** ****** ****** ****** ****** ******
      ****** ****** ****** ****** ****** ****** ****** ****** ****** ******
      ****** ****** ****** ****** ****** ****** ****** ****** ****** ******
   7  ****** ****** ****** ****** ****** ****** ****** ****** ****** ******
      ****** ****** ****** ****** ****** ****** ****** ****** ****** ******
      ****** ****** ****** ****** ****** ****** ****** ****** ****** ******
   8  ****** ****** ****** ****** ****** ****** ****** ****** ****** ******
      ****** ****** ****** ****** ****** ****** ****** ****** ****** ******
      ****** ****** ****** ****** ****** ****** ****** ****** ****** ******
   9  ****** ****** ****** ****** ****** ****** ****** ****** ****** ******
      ****** ****** ****** ****** ****** ****** ****** ****** ****** ******
      ****** ****** ****** ****** ****** ****** ****** ****** ****** ******
  10  ****** ****** ****** ****** ****** ****** ****** ****** ****** ******
      ****** ****** ****** ****** ****** ****** ****** ****** ****** ******
      ****** ****** ****** ****** ****** ****** ****** ****** ****** ******
  11  ****** ****** ****** ****** ****** ****** ****** ****** ****** ******
      ****** ****** ****** ****** ****** ****** ****** ****** ****** ******
      ****** ****** ****** ****** ****** ****** ****** ****** ****** ******
  12  ****** ****** ****** ****** ****** ****** ****** ****** ****** ******
      ****** ****** ****** ****** ****** ****** ****** ****** ****** ******
      ****** ****** ****** ****** ****** ****** ****** ****** ****** ******
  13  ****** ****** ****** ****** ****** ****** ****** ****** ****** ******
      ****** ****** ****** ****** ****** ****** ****** ****** ****** ******
      ****** ****** ****** ****** ****** ****** ****** ****** ****** ******
  14  ****** ****** ****** ****** ****** ****** ****** ****** ****** ******
      ****** ****** ****** ****** ****** ****** ****** ****** ****** ******
      ****** ****** ****** ****** ****** ****** ****** ****** ****** ******
  15  ****** ****** ****** ****** ****** ****** ****** ****** ****** ******
      ****** ****** ****** ****** ****** ****** ****** ****** ****** ******
      ****** ****** ****** ****** ****** ****** ****** ****** ****** ******
  16  ****** ****** ****** ****** ****** ****** ****** ****** ****** ******
      ****** ****** ****** ****** ****** ****** ****** ****** ****** ******
      ****** ****** ****** ****** ****** ****** ****** ****** ****** ******
  17  ****** ****** ****** ****** ****** ****** ****** ****** ****** ******
      ****** ****** ****** ****** ****** ****** ****** ****** ****** ******
      ****** ****** ****** ****** ****** ****** ****** ****** ****** ******
  18  ****** ****** ****** ****** ****** ****** ****** ****** ****** ******
      ****** ****** ****** ****** ****** ****** ****** ****** ****** ******
      ****** ****** ****** ****** ****** ****** ****** ****** ****** ******
  19  ****** ****** ****** ****** ****** ****** ****** ****** ****** ******
      ****** ****** ****** ****** ****** ****** ****** ****** ****** ******
      ****** ****** ****** ****** ****** ****** ****** ****** ****** ******
  20  ****** ****** ****** ****** ****** ****** ****** ****** ****** ******
      ****** ****** ****** ****** ****** ****** ****** ****** ****** ******
      ****** ****** ****** ****** ****** ****** ****** ****** ****** ******
  21  ****** ****** ****** ****** ****** ****** ****** ****** ****** ******
      ****** ****** ****** ****** ****** ****** ****** ****** ****** ******
      ****** ****** ****** ****** ****** ****** ****** ****** ****** ******
  22  ****** ****** ****** ****** ****** ****** ****** ****** ****** ******
      ****** ****** ****** ****** ****** ****** ****** ****** ****** ******
      ****** ****** ****** ****** ****** ****** ****** ****** ****** ******
  23  ****** ****** ****** ****** ****** ****** ****** ****** ****** ******
      ****** ****** ****** ****** ****** ****** ****** ****** ****** ******
      ****** ****** ****** ****** ****** ****** ****** ****** ****** ******
  24  ****** ****** ****** ****** ****** ****** ****** ****** ****** ******
      ****** ****** ****** ****** ****** ****** ****** ****** ****** ******
      ****** ****** ****** ****** ****** ****** ****** ****** ****** ******
  25  ****** ****** ****** ****** ****** ****** ****** ****** ****** ******
      ****** ****** ****** ****** ****** ****** ****** ****** ****** ******
      ****** ****** ****** ****** ****** ****** ****** ****** ****** ******

 HEAD WILL BE SAVED ON UNIT   51 AT END OF TIME STEP    1, STRESS PERIOD    2
1
  VOLUMETRIC BUDGET FOR ENTIRE MODEL AT END OF TIME STEP    1, STRESS PERIOD   2
  ------------------------------------------------------------------------------

     CUMULATIVE VOLUMES      L**3       RATES FOR THIS TIME STEP      L**3/T
     ------------------                 ------------------------

           IN:                                      IN:
           ---                                      ---
             STORAGE =    23264179.9329               STORAGE =       56871.9742
       CONSTANT HEAD =     2807475.9734         CONSTANT HEAD =       17808.7587
               WELLS =           0.0000                 WELLS =           0.0000
            RECHARGE =     6292800.0000              RECHARGE =       55200.0000
      STREAM LEAKAGE =      889319.6129        STREAM LEAKAGE =        5746.2230

            TOTAL IN =    33253775.5192              TOTAL IN =      135626.9559

          OUT:                                     OUT:
          ----                                     ----
             STORAGE =           0.0000               STORAGE =           0.0000
       CONSTANT HEAD =           0.0000         CONSTANT HEAD =           0.0000
               WELLS =     5566045.4549                 WELLS =       30415.5489
            RECHARGE =           0.0000              RECHARGE =           0.0000
      STREAM LEAKAGE =    27687731.3379        STREAM LEAKAGE =      105211.4176

           TOTAL OUT =    33253776.7928             TOTAL OUT =      135626.9665

            IN - OUT =          -1.2736              IN - OUT =      -1.0569E-02

 PERCENT DISCREPANCY =          -0.00     PERCENT DISCREPANCY =          -0.00






         TIME SUMMARY AT END OF TIME STEP    1 IN STRESS PERIOD    2
                    SECONDS     MINUTES      HOURS       DAYS        YEARS
                    -----------------------------------------------------------
   TIME STEP LENGTH 7.86240E+06 1.31040E+05  2184.0      91.000     0.24914    
 STRESS PERIOD TIME 7.86240E+06 1.31040E+05  2184.0      91.000     0.24914    
         TOTAL TIME 1.58112E+07 2.63520E+05  4392.0      183.00     0.50103    
1
1
                            STRESS PERIOD NO.    3, LENGTH =   91.00000    
                            -----------------------------------------------

                              NUMBER OF TIME STEPS =     1

                               MULTIPLIER FOR DELT =     1.500

                            INITIAL TIME STEP SIZE =   91.00000    

 WELL NO.  LAYER   ROW   COL   STRESS RATE         
 --------------------------------------------------
      1      1     10     17     -0.1009E+05
      2      1     11     19      -420.2    
      3      1     19     16     -0.1201E+05
      4      1      6     15      -7895.    

      4 WELLS

                 RECHARGE =   0.00000    

 REUSING STREAM SEGMENT DATA FROM LAST STRESS PERIOD
 
 SOLVING FOR HEAD 


     7 CALLS TO PCG ROUTINE FOR TIME STEP   1 IN STRESS PERIOD    3
    27 TOTAL ITERATIONS

 OUTPUT CONTROL FOR STRESS PERIOD    3   TIME STEP    1
    SAVE BUDGET
    SAVE HEAD FOR ALL LAYERS
    PRINT HEAD FOR ALL LAYERS
 UBDSV2 SAVING "STREAMFLOW OUT  " ON UNIT  50 AT TIME STEP  1, STRESS PERIOD   3



 STREAM LISTING     PERIOD      3   STEP        1

 LAYER ROW COL. STREAM  RCH.  FLOW INTO     FLOW TO   FLOW OUT OF   OVRLND.     DIRECT     STREAM       STREAM     STREAM     STREAM   STREAMBED  STREAMBED
                SEG.NO.  NO.  STRM. RCH.    AQUIFER    STRM. RCH.    RUNOFF     PRECIP       ET          HEAD       DEPTH      WIDTH   CONDCTNC.   GRADIENT

   1   13    1     1     1    1.0000E+05 -2.6605E+03   1.0266E+05  0.000E+00  0.000E+00  0.000E+00  4.84072E+01  1.458E-01  2.000E+01  2.000E+04 -1.330E-01
   1   13    2     1     2    1.0266E+05 -3.7644E+03   1.0642E+05  0.000E+00  0.000E+00  0.000E+00  4.79327E+01  1.486E-01  2.000E+01  2.000E+04 -1.882E-01
   1   14    3     1     3    1.0642E+05 -6.4274E+02   1.0707E+05  0.000E+00  0.000E+00  0.000E+00  4.74572E+01  1.504E-01  2.000E+01  2.000E+04 -3.214E-02
   1   15    4     1     4    1.0707E+05 -6.2272E+02   1.0769E+05  0.000E+00  0.000E+00  0.000E+00  4.69805E+01  1.510E-01  2.000E+01  2.000E+04 -3.114E-02
   1   16    5     1     5    1.0769E+05 -2.3272E+03   1.1002E+05  0.000E+00  0.000E+00  0.000E+00  4.65045E+01  1.522E-01  2.000E+01  2.000E+04 -1.164E-01
   1   16    6     1     6    1.1002E+05 -1.4007E+03   1.1142E+05  0.000E+00  0.000E+00  0.000E+00  4.60288E+01  1.538E-01  2.000E+01  2.000E+04 -7.003E-02
   1   16    7     1     7    1.1142E+05 -1.3368E+03   1.1275E+05  0.000E+00  0.000E+00  0.000E+00  4.55526E+01  1.549E-01  2.000E+01  2.000E+04 -6.684E-02
   1   16    8     1     8    1.1275E+05 -1.2824E+03   1.1404E+05  0.000E+00  0.000E+00  0.000E+00  4.50764E+01  1.560E-01  2.000E+01  2.000E+04 -6.412E-02
   1   16    9     1     9    1.1404E+05 -1.2032E+03   1.1524E+05  0.000E+00  0.000E+00  0.000E+00  4.46002E+01  1.570E-01  2.000E+01  2.000E+04 -6.016E-02
   1   16   10     1    10    1.1524E+05 -1.0857E+03   1.1633E+05  0.000E+00  0.000E+00  0.000E+00  4.41239E+01  1.579E-01  2.000E+01  2.000E+04 -5.428E-02
   1   16   11     1    11    1.1633E+05 -9.2801E+02   1.1725E+05  0.000E+00  0.000E+00  0.000E+00  4.36474E+01  1.588E-01  2.000E+01  2.000E+04 -4.640E-02
   1   16   12     1    12    1.1725E+05 -1.2215E+03   1.1848E+05  0.000E+00  0.000E+00  0.000E+00  4.31710E+01  1.596E-01  2.000E+01  2.000E+04 -6.108E-02
   1   15   13     1    13    1.1848E+05 -1.1773E+03   1.1965E+05  0.000E+00  0.000E+00  0.000E+00  4.26947E+01  1.606E-01  2.000E+01  2.000E+04 -5.887E-02
   1   14   14     1    14    1.1965E+05 -1.4893E+03   1.2114E+05  0.000E+00  0.000E+00  0.000E+00  4.22185E+01  1.617E-01  2.000E+01  2.000E+04 -7.446E-02
   1   13   15     1    15    1.2114E+05 -1.6915E+03   1.2283E+05  0.000E+00  0.000E+00  0.000E+00  4.17425E+01  1.630E-01  2.000E+01  2.000E+04 -8.458E-02
   1   12   16     1    16    1.2283E+05 -1.4469E+03   1.2428E+05  0.000E+00  0.000E+00  0.000E+00  4.12665E+01  1.642E-01  2.000E+01  2.000E+04 -7.234E-02
   1   12   17     1    17    1.2428E+05 -8.5216E+01   1.2437E+05  0.000E+00  0.000E+00  0.000E+00  4.07898E+01  1.648E-01  2.000E+01  2.000E+04 -4.261E-03
   1   12   18     1    18    1.2437E+05 -5.5458E+02   1.2492E+05  0.000E+00  0.000E+00  0.000E+00  4.03128E+01  1.651E-01  2.000E+01  2.000E+04 -2.773E-02
   1   12   19     1    19    1.2492E+05 -1.4291E+03   1.2635E+05  0.000E+00  0.000E+00  0.000E+00  3.98363E+01  1.659E-01  2.000E+01  2.000E+04 -7.146E-02
   1   13   20     1    20    1.2635E+05 -1.4515E+03   1.2780E+05  0.000E+00  0.000E+00  0.000E+00  3.93602E+01  1.670E-01  2.000E+01  2.000E+04 -7.257E-02
   1   14   21     1    21    1.2780E+05 -1.4368E+03   1.2924E+05  0.000E+00  0.000E+00  0.000E+00  3.88841E+01  1.682E-01  2.000E+01  2.000E+04 -7.184E-02
   1   14   22     1    22    1.2924E+05  4.8224E+03   1.2442E+05  0.000E+00  0.000E+00  0.000E+00  3.84055E+01  1.668E-01  2.000E+01  2.000E+04  2.411E-01
   1    9   30     2     1    5.0000E+04 -8.9187E+02   5.0892E+04  0.000E+00  0.000E+00  0.000E+00  4.02415E+01  1.165E-01  2.000E+01  2.000E+04 -4.459E-02
   1    9   29     2     2    5.0892E+04 -1.1941E+03   5.2086E+04  0.000E+00  0.000E+00  0.000E+00  3.99929E+01  1.179E-01  2.000E+01  2.000E+04 -5.970E-02
   1    9   28     2     3    5.2086E+04 -1.4607E+03   5.3547E+04  0.000E+00  0.000E+00  0.000E+00  3.97447E+01  1.197E-01  2.000E+01  2.000E+04 -7.304E-02
   1    9   27     2     4    5.3547E+04 -2.8740E+03   5.6421E+04  0.000E+00  0.000E+00  0.000E+00  3.94977E+01  1.227E-01  2.000E+01  2.000E+04 -1.437E-01
   1   10   26     2     5    5.6421E+04 -1.8791E+03   5.8300E+04  0.000E+00  0.000E+00  0.000E+00  3.92508E+01  1.258E-01  2.000E+01  2.000E+04 -9.396E-02
   1   11   25     2     6    5.8300E+04 -1.5682E+03   5.9868E+04  0.000E+00  0.000E+00  0.000E+00  3.90031E+01  1.281E-01  2.000E+01  2.000E+04 -7.841E-02
   1   12   24     2     7    5.9868E+04 -1.5450E+03   6.1413E+04  0.000E+00  0.000E+00  0.000E+00  3.87551E+01  1.301E-01  2.000E+01  2.000E+04 -7.725E-02
   1   13   23     2     8    6.1413E+04 -2.1871E+02   6.1632E+04  0.000E+00  0.000E+00  0.000E+00  3.85062E+01  1.312E-01  2.000E+01  2.000E+04 -1.094E-02
   1   14   22     2     9    6.1632E+04  1.8171E+03   5.9815E+04  0.000E+00  0.000E+00  0.000E+00  3.82552E+01  1.302E-01  2.000E+01  2.000E+04  9.086E-02
   1   14   22     3     1    1.8423E+05 -8.6632E+03   1.9289E+05  0.000E+00  0.000E+00  0.000E+00  3.77312E+01  1.756E-01  2.000E+01  2.000E+04 -4.332E-01
   1   15   23     3     2    1.9289E+05 -5.4083E+02   1.9343E+05  0.000E+00  0.000E+00  0.000E+00  3.68448E+01  1.782E-01  2.000E+01  2.000E+04 -2.704E-02
   1   15   24     3     3    1.9343E+05 -3.1551E+02   1.9375E+05  0.000E+00  0.000E+00  0.000E+00  3.59562E+01  1.784E-01  2.000E+01  2.000E+04 -1.578E-02
   1   15   25     3     4    1.9375E+05 -3.1725E+02   1.9407E+05  0.000E+00  0.000E+00  0.000E+00  3.50675E+01  1.786E-01  2.000E+01  2.000E+04 -1.586E-02
   1   15   26     3     5    1.9407E+05 -3.6198E+02   1.9443E+05  0.000E+00  0.000E+00  0.000E+00  3.41788E+01  1.788E-01  2.000E+01  2.000E+04 -1.810E-02
   1   16   27     3     6    1.9443E+05 -4.1944E+02   1.9485E+05  0.000E+00  0.000E+00  0.000E+00  3.32901E+01  1.790E-01  2.000E+01  2.000E+04 -2.097E-02
   1   17   28     3     7    1.9485E+05 -1.7824E+03   1.9663E+05  0.000E+00  0.000E+00  0.000E+00  3.24018E+01  1.796E-01  2.000E+01  2.000E+04 -8.912E-02
   1   18   29     3     8    1.9663E+05 -3.3858E+03   2.0002E+05  0.000E+00  0.000E+00  0.000E+00  3.15144E+01  1.810E-01  2.000E+01  2.000E+04 -1.693E-01
   1   18   30     3     9    2.0002E+05 -3.4593E+03   2.0348E+05  0.000E+00  0.000E+00  0.000E+00  3.06273E+01  1.829E-01  2.000E+01  2.000E+04 -1.730E-01



1
              HEAD IN LAYER   1 AT END OF TIME STEP   1 IN STRESS PERIOD    3
  ---------------------------------------------------------------------------

          1      2      3      4      5      6      7      8      9     10
         11     12     13     14     15     16     17     18     19     20
         21     22     23     24     25     26     27     28     29     30
 .........................................................................
   1  ****** ****** ****** ****** ****** ****** ****** ****** ****** ******
      ****** ****** ****** ****** ****** ****** ****** ****** ****** ******
      ****** ****** ****** ****** ****** ****** ****** ****** ****** ******
   2  ****** ****** ****** ****** ****** ****** ****** ****** ****** ******
      ****** ****** ****** ****** ****** ****** ****** ****** ****** ******
      ****** ****** ****** ****** ****** ****** ****** ****** ****** ******
   3  ****** ****** ****** ****** ****** ****** ****** ****** ****** ******
      ****** ****** ****** ****** ****** ****** ****** ****** ****** ******
      ****** ****** ****** ****** ****** ****** ****** ****** ****** ******
   4  ****** ****** ****** ****** ****** ****** ****** ****** ****** ******
      ****** ****** ****** ****** ****** ****** ****** ****** ****** ******
      ****** ****** ****** ****** ****** ****** ****** ****** ****** ******
   5  ****** ****** ****** ****** ****** ****** ****** ****** ****** ******
      ****** ****** ****** ****** ****** ****** ****** ****** ****** ******
      ****** ****** ****** ****** ****** ****** ****** ****** ****** ******
   6  ****** ****** ****** ****** ****** ****** ****** ****** ****** ******
      ****** ****** ****** ****** ****** ****** ****** ****** ****** ******
      ****** ****** ****** ****** ****** ****** ****** ****** ****** ******
   7  ****** ****** ****** ****** ****** ****** ****** ****** ****** ******
      ****** ****** ****** ****** ****** ****** ****** ****** ****** ******
      ****** ****** ****** ****** ****** ****** ****** ****** ****** ******
   8  ****** ****** ****** ****** ****** ****** ****** ****** ****** ******
      ****** ****** ****** ****** ****** ****** ****** ****** ****** ******
      ****** ****** ****** ****** ****** ****** ****** ****** ****** ******
   9  ****** ****** ****** ****** ****** ****** ****** ****** ****** ******
      ****** ****** ****** ****** ****** ****** ****** ****** ****** ******
      ****** ****** ****** ****** ****** ****** ****** ****** ****** ******
  10  ****** ****** ****** ****** ****** ****** ****** ****** ****** ******
      ****** ****** ****** ****** ****** ****** ****** ****** ****** ******
      ****** ****** ****** ****** ****** ****** ****** ****** ****** ******
  11  ****** ****** ****** ****** ****** ****** ****** ****** ****** ******
      ****** ****** ****** ****** ****** ****** ****** ****** ****** ******
      ****** ****** ****** ****** ****** ****** ****** ****** ****** ******
  12  ****** ****** ****** ****** ****** ****** ****** ****** ****** ******
      ****** ****** ****** ****** ****** ****** ****** ****** ****** ******
      ****** ****** ****** ****** ****** ****** ****** ****** ****** ******
  13  ****** ****** ****** ****** ****** ****** ****** ****** ****** ******
      ****** ****** ****** ****** ****** ****** ****** ****** ****** ******
      ****** ****** ****** ****** ****** ****** ****** ****** ****** ******
  14  ****** ****** ****** ****** ****** ****** ****** ****** ****** ******
      ****** ****** ****** ****** ****** ****** ****** ****** ****** ******
      ****** ****** ****** ****** ****** ****** ****** ****** ****** ******
  15  ****** ****** ****** ****** ****** ****** ****** ****** ****** ******
      ****** ****** ****** ****** ****** ****** ****** ****** ****** ******
      ****** ****** ****** ****** ****** ****** ****** ****** ****** ******
  16  ****** ****** ****** ****** ****** ****** ****** ****** ****** ******
      ****** ****** ****** ****** ****** ****** ****** ****** ****** ******
      ****** ****** ****** ****** ****** ****** ****** ****** ****** ******
  17  ****** ****** ****** ****** ****** ****** ****** ****** ****** ******
      ****** ****** ****** ****** ****** ****** ****** ****** ****** ******
      ****** ****** ****** ****** ****** ****** ****** ****** ****** ******
  18  ****** ****** ****** ****** ****** ****** ****** ****** ****** ******
      ****** ****** ****** ****** ****** ****** ****** ****** ****** ******
      ****** ****** ****** ****** ****** ****** ****** ****** ****** ******
  19  ****** ****** ****** ****** ****** ****** ****** ****** ****** ******
      ****** ****** ****** ****** ****** ****** ****** ****** ****** ******
      ****** ****** ****** ****** ****** ****** ****** ****** ****** ******
  20  ****** ****** ****** ****** ****** ****** ****** ****** ****** ******
      ****** ****** ****** ****** ****** ****** ****** ****** ****** ******
      ****** ****** ****** ****** ****** ****** ****** ****** ****** ******
  21  ****** ****** ****** ****** ****** ****** ****** ****** ****** ******
      ****** ****** ****** ****** ****** ****** ****** ****** ****** ******
      ****** ****** ****** ****** ****** ****** ****** ****** ****** ******
  22  ****** ****** ****** ****** ****** ****** ****** ****** ****** ******
      ****** ****** ****** ****** ****** ****** ****** ****** ****** ******
      ****** ****** ****** ****** ****** ****** ****** ****** ****** ******
  23  ****** ****** ****** ****** ****** ****** ****** ****** ****** ******
      ****** ****** ****** ****** ****** ****** ****** ****** ****** ******
      ****** ****** ****** ****** ****** ****** ****** ****** ****** ******
  24  ****** ****** ****** ****** ****** ****** ****** ****** ****** ******
      ****** ****** ****** ****** ****** ****** ****** ****** ****** ******
      ****** ****** ****** ****** ****** ****** ****** ****** ****** ******
  25  ****** ****** ****** ****** ****** ****** ****** ****** ****** ******
      ****** ****** ****** ****** ****** ****** ****** ****** ****** ******
      ****** ****** ****** ****** ****** ****** ****** ****** ****** ******

 HEAD WILL BE SAVED ON UNIT   51 AT END OF TIME STEP    1, STRESS PERIOD    3
1
  VOLUMETRIC BUDGET FOR ENTIRE MODEL AT END OF TIME STEP    1, STRESS PERIOD   3
  ------------------------------------------------------------------------------

     CUMULATIVE VOLUMES      L**3       RATES FOR THIS TIME STEP      L**3/T
     ------------------                 ------------------------

           IN:                                      IN:
           ---                                      ---
             STORAGE =    28471223.2218               STORAGE =       57220.2559
       CONSTANT HEAD =     5234552.0197         CONSTANT HEAD =       26671.1653
               WELLS =           0.0000                 WELLS =           0.0000
            RECHARGE =     6292800.0000              RECHARGE =           0.0000
      STREAM LEAKAGE =     1493520.0544        STREAM LEAKAGE =        6639.5653

            TOTAL IN =    41492095.2960              TOTAL IN =       90530.9866

          OUT:                                     OUT:
          ----                                     ----
             STORAGE =           0.0000               STORAGE =           0.0000
       CONSTANT HEAD =           0.0000         CONSTANT HEAD =           0.0000
               WELLS =     8333860.4078                 WELLS =       30415.5489
            RECHARGE =           0.0000              RECHARGE =           0.0000
      STREAM LEAKAGE =    33158236.8514        STREAM LEAKAGE =       60115.4452

           TOTAL OUT =    41492097.2593             TOTAL OUT =       90530.9941

            IN - OUT =          -1.9633              IN - OUT =      -7.5794E-03

 PERCENT DISCREPANCY =          -0.00     PERCENT DISCREPANCY =          -0.00






         TIME SUMMARY AT END OF TIME STEP    1 IN STRESS PERIOD    3
                    SECONDS     MINUTES      HOURS       DAYS        YEARS
                    -----------------------------------------------------------
   TIME STEP LENGTH 7.86240E+06 1.31040E+05  2184.0      91.000     0.24914    
 STRESS PERIOD TIME 7.86240E+06 1.31040E+05  2184.0      91.000     0.24914    
         TOTAL TIME 2.36736E+07 3.94560E+05  6576.0      274.00     0.75017    
1
1
                            STRESS PERIOD NO.    4, LENGTH =   91.00000    
                            -----------------------------------------------

                              NUMBER OF TIME STEPS =     1

                               MULTIPLIER FOR DELT =     1.500

                            INITIAL TIME STEP SIZE =   91.00000    

 WELL NO.  LAYER   ROW   COL   STRESS RATE         
 --------------------------------------------------
      1      1     10     17     -0.1009E+05
      2      1     11     19      -420.2    
      3      1     19     16     -0.1201E+05
      4      1      6     15      -7895.    

      4 WELLS

                 RECHARGE =  1.000000E-03

 REUSING STREAM SEGMENT DATA FROM LAST STRESS PERIOD
 
 SOLVING FOR HEAD 


     6 CALLS TO PCG ROUTINE FOR TIME STEP   1 IN STRESS PERIOD    4
    23 TOTAL ITERATIONS

 OUTPUT CONTROL FOR STRESS PERIOD    4   TIME STEP    1
    SAVE BUDGET
    SAVE HEAD FOR ALL LAYERS
    PRINT HEAD FOR ALL LAYERS
 UBDSV2 SAVING "STREAMFLOW OUT  " ON UNIT  50 AT TIME STEP  1, STRESS PERIOD   4



 STREAM LISTING     PERIOD      4   STEP        1

 LAYER ROW COL. STREAM  RCH.  FLOW INTO     FLOW TO   FLOW OUT OF   OVRLND.     DIRECT     STREAM       STREAM     STREAM     STREAM   STREAMBED  STREAMBED
                SEG.NO.  NO.  STRM. RCH.    AQUIFER    STRM. RCH.    RUNOFF     PRECIP       ET          HEAD       DEPTH      WIDTH   CONDCTNC.   GRADIENT

   1   13    1     1     1    1.0000E+05 -2.3943E+03   1.0239E+05  0.000E+00  0.000E+00  0.000E+00  4.84071E+01  1.457E-01  2.000E+01  2.000E+04 -1.197E-01
   1   13    2     1     2    1.0239E+05 -3.4574E+03   1.0585E+05  0.000E+00  0.000E+00  0.000E+00  4.79323E+01  1.482E-01  2.000E+01  2.000E+04 -1.729E-01
   1   14    3     1     3    1.0585E+05 -6.0996E+02   1.0646E+05  0.000E+00  0.000E+00  0.000E+00  4.74567E+01  1.499E-01  2.000E+01  2.000E+04 -3.050E-02
   1   15    4     1     4    1.0646E+05 -5.8005E+02   1.0704E+05  0.000E+00  0.000E+00  0.000E+00  4.69800E+01  1.504E-01  2.000E+01  2.000E+04 -2.900E-02
   1   16    5     1     5    1.0704E+05 -2.0038E+03   1.0905E+05  0.000E+00  0.000E+00  0.000E+00  4.65038E+01  1.515E-01  2.000E+01  2.000E+04 -1.002E-01
   1   16    6     1     6    1.0905E+05 -1.2380E+03   1.1028E+05  0.000E+00  0.000E+00  0.000E+00  4.60279E+01  1.529E-01  2.000E+01  2.000E+04 -6.190E-02
   1   16    7     1     7    1.1028E+05 -1.1840E+03   1.1147E+05  0.000E+00  0.000E+00  0.000E+00  4.55516E+01  1.539E-01  2.000E+01  2.000E+04 -5.920E-02
   1   16    8     1     8    1.1147E+05 -1.1318E+03   1.1260E+05  0.000E+00  0.000E+00  0.000E+00  4.50753E+01  1.549E-01  2.000E+01  2.000E+04 -5.659E-02
   1   16    9     1     9    1.1260E+05 -1.0528E+03   1.1365E+05  0.000E+00  0.000E+00  0.000E+00  4.45989E+01  1.558E-01  2.000E+01  2.000E+04 -5.264E-02
   1   16   10     1    10    1.1365E+05 -9.3571E+02   1.1459E+05  0.000E+00  0.000E+00  0.000E+00  4.41225E+01  1.566E-01  2.000E+01  2.000E+04 -4.679E-02
   1   16   11     1    11    1.1459E+05 -7.7388E+02   1.1536E+05  0.000E+00  0.000E+00  0.000E+00  4.36459E+01  1.573E-01  2.000E+01  2.000E+04 -3.869E-02
   1   16   12     1    12    1.1536E+05 -8.9779E+02   1.1626E+05  0.000E+00  0.000E+00  0.000E+00  4.31693E+01  1.580E-01  2.000E+01  2.000E+04 -4.489E-02
   1   15   13     1    13    1.1626E+05 -8.7177E+02   1.1713E+05  0.000E+00  0.000E+00  0.000E+00  4.26928E+01  1.587E-01  2.000E+01  2.000E+04 -4.359E-02
   1   14   14     1    14    1.1713E+05 -1.1567E+03   1.1829E+05  0.000E+00  0.000E+00  0.000E+00  4.22163E+01  1.595E-01  2.000E+01  2.000E+04 -5.783E-02
   1   13   15     1    15    1.1829E+05 -1.3296E+03   1.1962E+05  0.000E+00  0.000E+00  0.000E+00  4.17401E+01  1.605E-01  2.000E+01  2.000E+04 -6.648E-02
   1   12   16     1    16    1.1962E+05 -9.7740E+02   1.2059E+05  0.000E+00  0.000E+00  0.000E+00  4.12637E+01  1.615E-01  2.000E+01  2.000E+04 -4.887E-02
   1   12   17     1    17    1.2059E+05  1.9767E+02   1.2040E+05  0.000E+00  0.000E+00  0.000E+00  4.07868E+01  1.618E-01  2.000E+01  2.000E+04  9.884E-03
   1   12   18     1    18    1.2040E+05 -2.9319E+02   1.2069E+05  0.000E+00  0.000E+00  0.000E+00  4.03095E+01  1.618E-01  2.000E+01  2.000E+04 -1.466E-02
   1   12   19     1    19    1.2069E+05 -1.1098E+03   1.2180E+05  0.000E+00  0.000E+00  0.000E+00  3.98328E+01  1.624E-01  2.000E+01  2.000E+04 -5.549E-02
   1   13   20     1    20    1.2180E+05 -1.2401E+03   1.2304E+05  0.000E+00  0.000E+00  0.000E+00  3.93565E+01  1.633E-01  2.000E+01  2.000E+04 -6.201E-02
   1   14   21     1    21    1.2304E+05 -1.1603E+03   1.2420E+05  0.000E+00  0.000E+00  0.000E+00  3.88802E+01  1.643E-01  2.000E+01  2.000E+04 -5.801E-02
   1   14   22     1    22    1.2420E+05  4.8630E+03   1.1934E+05  0.000E+00  0.000E+00  0.000E+00  3.84014E+01  1.628E-01  2.000E+01  2.000E+04  2.432E-01
   1    9   30     2     1    5.0000E+04 -7.9640E+02   5.0796E+04  0.000E+00  0.000E+00  0.000E+00  4.02414E+01  1.164E-01  2.000E+01  2.000E+04 -3.982E-02
   1    9   29     2     2    5.0796E+04 -1.0906E+03   5.1887E+04  0.000E+00  0.000E+00  0.000E+00  3.99927E+01  1.177E-01  2.000E+01  2.000E+04 -5.453E-02
   1    9   28     2     3    5.1887E+04 -1.3344E+03   5.3221E+04  0.000E+00  0.000E+00  0.000E+00  3.97444E+01  1.194E-01  2.000E+01  2.000E+04 -6.672E-02
   1    9   27     2     4    5.3221E+04 -2.5819E+03   5.5803E+04  0.000E+00  0.000E+00  0.000E+00  3.94970E+01  1.220E-01  2.000E+01  2.000E+04 -1.291E-01
   1   10   26     2     5    5.5803E+04 -1.7008E+03   5.7504E+04  0.000E+00  0.000E+00  0.000E+00  3.92499E+01  1.249E-01  2.000E+01  2.000E+04 -8.504E-02
   1   11   25     2     6    5.7504E+04 -1.4303E+03   5.8934E+04  0.000E+00  0.000E+00  0.000E+00  3.90019E+01  1.269E-01  2.000E+01  2.000E+04 -7.152E-02
   1   12   24     2     7    5.8934E+04 -1.4234E+03   6.0358E+04  0.000E+00  0.000E+00  0.000E+00  3.87538E+01  1.288E-01  2.000E+01  2.000E+04 -7.117E-02
   1   13   23     2     8    6.0358E+04 -2.4052E+02   6.0598E+04  0.000E+00  0.000E+00  0.000E+00  3.85049E+01  1.299E-01  2.000E+01  2.000E+04 -1.203E-02
   1   14   22     2     9    6.0598E+04  1.9103E+03   5.8688E+04  0.000E+00  0.000E+00  0.000E+00  3.82538E+01  1.288E-01  2.000E+01  2.000E+04  9.552E-02
   1   14   22     3     1    1.7803E+05 -8.6122E+03   1.8664E+05  0.000E+00  0.000E+00  0.000E+00  3.77277E+01  1.721E-01  2.000E+01  2.000E+04 -4.306E-01
   1   15   23     3     2    1.8664E+05 -5.0824E+02   1.8715E+05  0.000E+00  0.000E+00  0.000E+00  3.68414E+01  1.747E-01  2.000E+01  2.000E+04 -2.541E-02
   1   15   24     3     3    1.8715E+05 -3.1137E+02   1.8746E+05  0.000E+00  0.000E+00  0.000E+00  3.59527E+01  1.749E-01  2.000E+01  2.000E+04 -1.557E-02
   1   15   25     3     4    1.8746E+05 -3.1403E+02   1.8777E+05  0.000E+00  0.000E+00  0.000E+00  3.50640E+01  1.751E-01  2.000E+01  2.000E+04 -1.570E-02
   1   15   26     3     5    1.8777E+05 -3.6972E+02   1.8814E+05  0.000E+00  0.000E+00  0.000E+00  3.41753E+01  1.753E-01  2.000E+01  2.000E+04 -1.849E-02
   1   16   27     3     6    1.8814E+05 -4.1718E+02   1.8856E+05  0.000E+00  0.000E+00  0.000E+00  3.32866E+01  1.755E-01  2.000E+01  2.000E+04 -2.086E-02
   1   17   28     3     7    1.8856E+05 -1.7084E+03   1.9027E+05  0.000E+00  0.000E+00  0.000E+00  3.23983E+01  1.761E-01  2.000E+01  2.000E+04 -8.542E-02
   1   18   29     3     8    1.9027E+05 -3.1443E+03   1.9341E+05  0.000E+00  0.000E+00  0.000E+00  3.15108E+01  1.774E-01  2.000E+01  2.000E+04 -1.572E-01
   1   18   30     3     9    1.9341E+05 -3.3371E+03   1.9675E+05  0.000E+00  0.000E+00  0.000E+00  3.06237E+01  1.792E-01  2.000E+01  2.000E+04 -1.669E-01



1
              HEAD IN LAYER   1 AT END OF TIME STEP   1 IN STRESS PERIOD    4
  ---------------------------------------------------------------------------

          1      2      3      4      5      6      7      8      9     10
         11     12     13     14     15     16     17     18     19     20
         21     22     23     24     25     26     27     28     29     30
 .........................................................................
   1  ****** ****** ****** ****** ****** ****** ****** ****** ****** ******
      ****** ****** ****** ****** ****** ****** ****** ****** ****** ******
      ****** ****** ****** ****** ****** ****** ****** ****** ****** ******
   2  ****** ****** ****** ****** ****** ****** ****** ****** ****** ******
      ****** ****** ****** ****** ****** ****** ****** ****** ****** ******
      ****** ****** ****** ****** ****** ****** ****** ****** ****** ******
   3  ****** ****** ****** ****** ****** ****** ****** ****** ****** ******
      ****** ****** ****** ****** ****** ****** ****** ****** ****** ******
      ****** ****** ****** ****** ****** ****** ****** ****** ****** ******
   4  ****** ****** ****** ****** ****** ****** ****** ****** ****** ******
      ****** ****** ****** ****** ****** ****** ****** ****** ****** ******
      ****** ****** ****** ****** ****** ****** ****** ****** ****** ******
   5  ****** ****** ****** ****** ****** ****** ****** ****** ****** ******
      ****** ****** ****** ****** ****** ****** ****** ****** ****** ******
      ****** ****** ****** ****** ****** ****** ****** ****** ****** ******
   6  ****** ****** ****** ****** ****** ****** ****** ****** ****** ******
      ****** ****** ****** ****** ****** ****** ****** ****** ****** ******
      ****** ****** ****** ****** ****** ****** ****** ****** ****** ******
   7  ****** ****** ****** ****** ****** ****** ****** ****** ****** ******
      ****** ****** ****** ****** ****** ****** ****** ****** ****** ******
      ****** ****** ****** ****** ****** ****** ****** ****** ****** ******
   8  ****** ****** ****** ****** ****** ****** ****** ****** ****** ******
      ****** ****** ****** ****** ****** ****** ****** ****** ****** ******
      ****** ****** ****** ****** ****** ****** ****** ****** ****** ******
   9  ****** ****** ****** ****** ****** ****** ****** ****** ****** ******
      ****** ****** ****** ****** ****** ****** ****** ****** ****** ******
      ****** ****** ****** ****** ****** ****** ****** ****** ****** ******
  10  ****** ****** ****** ****** ****** ****** ****** ****** ****** ******
      ****** ****** ****** ****** ****** ****** ****** ****** ****** ******
      ****** ****** ****** ****** ****** ****** ****** ****** ****** ******
  11  ****** ****** ****** ****** ****** ****** ****** ****** ****** ******
      ****** ****** ****** ****** ****** ****** ****** ****** ****** ******
      ****** ****** ****** ****** ****** ****** ****** ****** ****** ******
  12  ****** ****** ****** ****** ****** ****** ****** ****** ****** ******
      ****** ****** ****** ****** ****** ****** ****** ****** ****** ******
      ****** ****** ****** ****** ****** ****** ****** ****** ****** ******
  13  ****** ****** ****** ****** ****** ****** ****** ****** ****** ******
      ****** ****** ****** ****** ****** ****** ****** ****** ****** ******
      ****** ****** ****** ****** ****** ****** ****** ****** ****** ******
  14  ****** ****** ****** ****** ****** ****** ****** ****** ****** ******
      ****** ****** ****** ****** ****** ****** ****** ****** ****** ******
      ****** ****** ****** ****** ****** ****** ****** ****** ****** ******
  15  ****** ****** ****** ****** ****** ****** ****** ****** ****** ******
      ****** ****** ****** ****** ****** ****** ****** ****** ****** ******
      ****** ****** ****** ****** ****** ****** ****** ****** ****** ******
  16  ****** ****** ****** ****** ****** ****** ****** ****** ****** ******
      ****** ****** ****** ****** ****** ****** ****** ****** ****** ******
      ****** ****** ****** ****** ****** ****** ****** ****** ****** ******
  17  ****** ****** ****** ****** ****** ****** ****** ****** ****** ******
      ****** ****** ****** ****** ****** ****** ****** ****** ****** ******
      ****** ****** ****** ****** ****** ****** ****** ****** ****** ******
  18  ****** ****** ****** ****** ****** ****** ****** ****** ****** ******
      ****** ****** ****** ****** ****** ****** ****** ****** ****** ******
      ****** ****** ****** ****** ****** ****** ****** ****** ****** ******
  19  ****** ****** ****** ****** ****** ****** ****** ****** ****** ******
      ****** ****** ****** ****** ****** ****** ****** ****** ****** ******
      ****** ****** ****** ****** ****** ****** ****** ****** ****** ******
  20  ****** ****** ****** ****** ****** ****** ****** ****** ****** ******
      ****** ****** ****** ****** ****** ****** ****** ****** ****** ******
      ****** ****** ****** ****** ****** ****** ****** ****** ****** ******
  21  ****** ****** ****** ****** ****** ****** ****** ****** ****** ******
      ****** ****** ****** ****** ****** ****** ****** ****** ****** ******
      ****** ****** ****** ****** ****** ****** ****** ****** ****** ******
  22  ****** ****** ****** ****** ****** ****** ****** ****** ****** ******
      ****** ****** ****** ****** ****** ****** ****** ****** ****** ******
      ****** ****** ****** ****** ****** ****** ****** ****** ****** ******
  23  ****** ****** ****** ****** ****** ****** ****** ****** ****** ******
      ****** ****** ****** ****** ****** ****** ****** ****** ****** ******
      ****** ****** ****** ****** ****** ****** ****** ****** ****** ******
  24  ****** ****** ****** ****** ****** ****** ****** ****** ****** ******
      ****** ****** ****** ****** ****** ****** ****** ****** ****** ******
      ****** ****** ****** ****** ****** ****** ****** ****** ****** ******
  25  ****** ****** ****** ****** ****** ****** ****** ****** ****** ******
      ****** ****** ****** ****** ****** ****** ****** ****** ****** ******
      ****** ****** ****** ****** ****** ****** ****** ****** ****** ******

 HEAD WILL BE SAVED ON UNIT   51 AT END OF TIME STEP    1, STRESS PERIOD    4
1
  VOLUMETRIC BUDGET FOR ENTIRE MODEL AT END OF TIME STEP    1, STRESS PERIOD   4
  ------------------------------------------------------------------------------

     CUMULATIVE VOLUMES      L**3       RATES FOR THIS TIME STEP      L**3/T
     ------------------                 ------------------------

           IN:                                      IN:
           ---                                      ---
             STORAGE =    30298560.9639               STORAGE =       20080.6345
       CONSTANT HEAD =     7918698.8600         CONSTANT HEAD =       29496.1191
               WELLS =           0.0000                 WELLS =           0.0000
            RECHARGE =     8804400.0000              RECHARGE =       27600.0000
      STREAM LEAKAGE =     2127884.9760        STREAM LEAKAGE =        6971.0431

            TOTAL IN =    49149544.7999              TOTAL IN =       84147.7967

          OUT:                                     OUT:
          ----                                     ----
             STORAGE =        1188.9119               STORAGE =          13.0650
       CONSTANT HEAD =           0.0000         CONSTANT HEAD =           0.0000
               WELLS =    11101675.3608                 WELLS =       30415.5489
            RECHARGE =           0.0000              RECHARGE =           0.0000
      STREAM LEAKAGE =    38046682.5728        STREAM LEAKAGE =       53719.1838

           TOTAL OUT =    49149546.8455             TOTAL OUT =       84147.7977

            IN - OUT =          -2.0456              IN - OUT =      -9.0427E-04

 PERCENT DISCREPANCY =          -0.00     PERCENT DISCREPANCY =          -0.00






         TIME SUMMARY AT END OF TIME STEP    1 IN STRESS PERIOD    4
                    SECONDS     MINUTES      HOURS       DAYS        YEARS
                    -----------------------------------------------------------
   TIME STEP LENGTH 7.86240E+06 1.31040E+05  2184.0      91.000     0.24914    
 STRESS PERIOD TIME 7.86240E+06 1.31040E+05  2184.0      91.000     0.24914    
         TOTAL TIME 3.15360E+07 5.25600E+05  8760.0      365.00     0.99932    
1
1
                            STRESS PERIOD NO.    5, LENGTH =   92.00000    
                            -----------------------------------------------

                              NUMBER OF TIME STEPS =     1

                               MULTIPLIER FOR DELT =     1.500

                            INITIAL TIME STEP SIZE =   92.00000    

 WELL NO.  LAYER   ROW   COL   STRESS RATE         
 --------------------------------------------------
      1      1     10     17     -0.1009E+05
      2      1     11     19      -420.2    
      3      1     19     16     -0.1201E+05
      4      1      6     15      -7895.    

      4 WELLS

                 RECHARGE =  5.000000E-04

 REUSING STREAM SEGMENT DATA FROM LAST STRESS PERIOD
 
 SOLVING FOR HEAD 


     7 CALLS TO PCG ROUTINE FOR TIME STEP   1 IN STRESS PERIOD    5
    26 TOTAL ITERATIONS

 OUTPUT CONTROL FOR STRESS PERIOD    5   TIME STEP    1
    SAVE BUDGET
    SAVE HEAD FOR ALL LAYERS
    PRINT HEAD FOR ALL LAYERS
 UBDSV2 SAVING "STREAMFLOW OUT  " ON UNIT  50 AT TIME STEP  1, STRESS PERIOD   5



 STREAM LISTING     PERIOD      5   STEP        1

 LAYER ROW COL. STREAM  RCH.  FLOW INTO     FLOW TO   FLOW OUT OF   OVRLND.     DIRECT     STREAM       STREAM     STREAM     STREAM   STREAMBED  STREAMBED
                SEG.NO.  NO.  STRM. RCH.    AQUIFER    STRM. RCH.    RUNOFF     PRECIP       ET          HEAD       DEPTH      WIDTH   CONDCTNC.   GRADIENT

   1   13    1     1     1    1.0000E+05 -1.9545E+03   1.0195E+05  0.000E+00  0.000E+00  0.000E+00  4.84069E+01  1.455E-01  2.000E+01  2.000E+04 -9.772E-02
   1   13    2     1     2    1.0195E+05 -2.9608E+03   1.0492E+05  0.000E+00  0.000E+00  0.000E+00  4.79317E+01  1.476E-01  2.000E+01  2.000E+04 -1.480E-01
   1   14    3     1     3    1.0492E+05 -4.8412E+02   1.0540E+05  0.000E+00  0.000E+00  0.000E+00  4.74559E+01  1.491E-01  2.000E+01  2.000E+04 -2.421E-02
   1   15    4     1     4    1.0540E+05 -4.4790E+02   1.0585E+05  0.000E+00  0.000E+00  0.000E+00  4.69790E+01  1.495E-01  2.000E+01  2.000E+04 -2.240E-02
   1   16    5     1     5    1.0585E+05 -1.5603E+03   1.0741E+05  0.000E+00  0.000E+00  0.000E+00  4.65026E+01  1.503E-01  2.000E+01  2.000E+04 -7.802E-02
   1   16    6     1     6    1.0741E+05 -9.7746E+02   1.0839E+05  0.000E+00  0.000E+00  0.000E+00  4.60264E+01  1.514E-01  2.000E+01  2.000E+04 -4.887E-02
   1   16    7     1     7    1.0839E+05 -9.3338E+02   1.0932E+05  0.000E+00  0.000E+00  0.000E+00  4.55499E+01  1.522E-01  2.000E+01  2.000E+04 -4.667E-02
   1   16    8     1     8    1.0932E+05 -8.8399E+02   1.1020E+05  0.000E+00  0.000E+00  0.000E+00  4.50734E+01  1.530E-01  2.000E+01  2.000E+04 -4.420E-02
   1   16    9     1     9    1.1020E+05 -8.0706E+02   1.1101E+05  0.000E+00  0.000E+00  0.000E+00  4.45969E+01  1.537E-01  2.000E+01  2.000E+04 -4.035E-02
   1   16   10     1    10    1.1101E+05 -6.9247E+02   1.1170E+05  0.000E+00  0.000E+00  0.000E+00  4.41202E+01  1.543E-01  2.000E+01  2.000E+04 -3.462E-02
   1   16   11     1    11    1.1170E+05 -5.2886E+02   1.1223E+05  0.000E+00  0.000E+00  0.000E+00  4.36434E+01  1.548E-01  2.000E+01  2.000E+04 -2.644E-02
   1   16   12     1    12    1.1223E+05 -4.5550E+02   1.1269E+05  0.000E+00  0.000E+00  0.000E+00  4.31666E+01  1.552E-01  2.000E+01  2.000E+04 -2.278E-02
   1   15   13     1    13    1.1269E+05 -4.0504E+02   1.1309E+05  0.000E+00  0.000E+00  0.000E+00  4.26897E+01  1.556E-01  2.000E+01  2.000E+04 -2.025E-02
   1   14   14     1    14    1.1309E+05 -6.5859E+02   1.1375E+05  0.000E+00  0.000E+00  0.000E+00  4.22128E+01  1.560E-01  2.000E+01  2.000E+04 -3.293E-02
   1   13   15     1    15    1.1375E+05 -8.1088E+02   1.1456E+05  0.000E+00  0.000E+00  0.000E+00  4.17362E+01  1.566E-01  2.000E+01  2.000E+04 -4.054E-02
   1   12   16     1    16    1.1456E+05 -4.0566E+02   1.1497E+05  0.000E+00  0.000E+00  0.000E+00  4.12594E+01  1.571E-01  2.000E+01  2.000E+04 -2.028E-02
   1   12   17     1    17    1.1497E+05  5.7836E+02   1.1439E+05  0.000E+00  0.000E+00  0.000E+00  4.07820E+01  1.570E-01  2.000E+01  2.000E+04  2.892E-02
   1   12   18     1    18    1.1439E+05  6.7615E+01   1.1432E+05  0.000E+00  0.000E+00  0.000E+00  4.03045E+01  1.568E-01  2.000E+01  2.000E+04  3.381E-03
   1   12   19     1    19    1.1432E+05 -6.7432E+02   1.1499E+05  0.000E+00  0.000E+00  0.000E+00  3.98275E+01  1.570E-01  2.000E+01  2.000E+04 -3.372E-02
   1   13   20     1    20    1.1499E+05 -8.6426E+02   1.1586E+05  0.000E+00  0.000E+00  0.000E+00  3.93508E+01  1.577E-01  2.000E+01  2.000E+04 -4.321E-02
   1   14   21     1    21    1.1586E+05 -7.5840E+02   1.1662E+05  0.000E+00  0.000E+00  0.000E+00  3.88742E+01  1.583E-01  2.000E+01  2.000E+04 -3.792E-02
   1   14   22     1    22    1.1662E+05  4.9435E+03   1.1167E+05  0.000E+00  0.000E+00  0.000E+00  3.83952E+01  1.566E-01  2.000E+01  2.000E+04  2.472E-01
   1    9   30     2     1    5.0000E+04 -5.6048E+02   5.0560E+04  0.000E+00  0.000E+00  0.000E+00  4.02413E+01  1.163E-01  2.000E+01  2.000E+04 -2.802E-02
   1    9   29     2     2    5.0560E+04 -8.5063E+02   5.1411E+04  0.000E+00  0.000E+00  0.000E+00  3.99922E+01  1.172E-01  2.000E+01  2.000E+04 -4.253E-02
   1    9   28     2     3    5.1411E+04 -1.0813E+03   5.2492E+04  0.000E+00  0.000E+00  0.000E+00  3.97436E+01  1.186E-01  2.000E+01  2.000E+04 -5.406E-02
   1    9   27     2     4    5.2492E+04 -2.1783E+03   5.4671E+04  0.000E+00  0.000E+00  0.000E+00  3.94958E+01  1.208E-01  2.000E+01  2.000E+04 -1.089E-01
   1   10   26     2     5    5.4671E+04 -1.3486E+03   5.6019E+04  0.000E+00  0.000E+00  0.000E+00  3.92481E+01  1.231E-01  2.000E+01  2.000E+04 -6.743E-02
   1   11   25     2     6    5.6019E+04 -1.1065E+03   5.7126E+04  0.000E+00  0.000E+00  0.000E+00  3.89998E+01  1.248E-01  2.000E+01  2.000E+04 -5.532E-02
   1   12   24     2     7    5.7126E+04 -1.1263E+03   5.8252E+04  0.000E+00  0.000E+00  0.000E+00  3.87512E+01  1.262E-01  2.000E+01  2.000E+04 -5.631E-02
   1   13   23     2     8    5.8252E+04 -1.6998E+02   5.8422E+04  0.000E+00  0.000E+00  0.000E+00  3.85021E+01  1.271E-01  2.000E+01  2.000E+04 -8.499E-03
   1   14   22     2     9    5.8422E+04  2.0559E+03   5.6366E+04  0.000E+00  0.000E+00  0.000E+00  3.82509E+01  1.259E-01  2.000E+01  2.000E+04  1.028E-01
   1   14   22     3     1    1.6804E+05 -8.5228E+03   1.7656E+05  0.000E+00  0.000E+00  0.000E+00  3.77219E+01  1.664E-01  2.000E+01  2.000E+04 -4.261E-01
   1   15   23     3     2    1.7656E+05 -4.0456E+02   1.7697E+05  0.000E+00  0.000E+00  0.000E+00  3.68356E+01  1.689E-01  2.000E+01  2.000E+04 -2.023E-02
   1   15   24     3     3    1.7697E+05 -2.3689E+02   1.7720E+05  0.000E+00  0.000E+00  0.000E+00  3.59469E+01  1.691E-01  2.000E+01  2.000E+04 -1.184E-02
   1   15   25     3     4    1.7720E+05 -2.4070E+02   1.7745E+05  0.000E+00  0.000E+00  0.000E+00  3.50582E+01  1.693E-01  2.000E+01  2.000E+04 -1.203E-02
   1   15   26     3     5    1.7745E+05 -2.9637E+02   1.7774E+05  0.000E+00  0.000E+00  0.000E+00  3.41694E+01  1.694E-01  2.000E+01  2.000E+04 -1.482E-02
   1   16   27     3     6    1.7774E+05 -3.2437E+02   1.7807E+05  0.000E+00  0.000E+00  0.000E+00  3.32807E+01  1.696E-01  2.000E+01  2.000E+04 -1.622E-02
   1   17   28     3     7    1.7807E+05 -1.4318E+03   1.7950E+05  0.000E+00  0.000E+00  0.000E+00  3.23923E+01  1.701E-01  2.000E+01  2.000E+04 -7.159E-02
   1   18   29     3     8    1.7950E+05 -2.7512E+03   1.8225E+05  0.000E+00  0.000E+00  0.000E+00  3.15046E+01  1.713E-01  2.000E+01  2.000E+04 -1.376E-01
   1   18   30     3     9    1.8225E+05 -3.0682E+03   1.8532E+05  0.000E+00  0.000E+00  0.000E+00  3.06174E+01  1.729E-01  2.000E+01  2.000E+04 -1.534E-01



1
              HEAD IN LAYER   1 AT END OF TIME STEP   1 IN STRESS PERIOD    5
  ---------------------------------------------------------------------------

          1      2      3      4      5      6      7      8      9     10
         11     12     13     14     15     16     17     18     19     20
         21     22     23     24     25     26     27     28     29     30
 .........................................................................
   1  ****** ****** ****** ****** ****** ****** ****** ****** ****** ******
      ****** ****** ****** ****** ****** ****** ****** ****** ****** ******
      ****** ****** ****** ****** ****** ****** ****** ****** ****** ******
   2  ****** ****** ****** ****** ****** ****** ****** ****** ****** ******
      ****** ****** ****** ****** ****** ****** ****** ****** ****** ******
      ****** ****** ****** ****** ****** ****** ****** ****** ****** ******
   3  ****** ****** ****** ****** ****** ****** ****** ****** ****** ******
      ****** ****** ****** ****** ****** ****** ****** ****** ****** ******
      ****** ****** ****** ****** ****** ****** ****** ****** ****** ******
   4  ****** ****** ****** ****** ****** ****** ****** ****** ****** ******
      ****** ****** ****** ****** ****** ****** ****** ****** ****** ******
      ****** ****** ****** ****** ****** ****** ****** ****** ****** ******
   5  ****** ****** ****** ****** ****** ****** ****** ****** ****** ******
      ****** ****** ****** ****** ****** ****** ****** ****** ****** ******
      ****** ****** ****** ****** ****** ****** ****** ****** ****** ******
   6  ****** ****** ****** ****** ****** ****** ****** ****** ****** ******
      ****** ****** ****** ****** ****** ****** ****** ****** ****** ******
      ****** ****** ****** ****** ****** ****** ****** ****** ****** ******
   7  ****** ****** ****** ****** ****** ****** ****** ****** ****** ******
      ****** ****** ****** ****** ****** ****** ****** ****** ****** ******
      ****** ****** ****** ****** ****** ****** ****** ****** ****** ******
   8  ****** ****** ****** ****** ****** ****** ****** ****** ****** ******
      ****** ****** ****** ****** ****** ****** ****** ****** ****** ******
      ****** ****** ****** ****** ****** ****** ****** ****** ****** ******
   9  ****** ****** ****** ****** ****** ****** ****** ****** ****** ******
      ****** ****** ****** ****** ****** ****** ****** ****** ****** ******
      ****** ****** ****** ****** ****** ****** ****** ****** ****** ******
  10  ****** ****** ****** ****** ****** ****** ****** ****** ****** ******
      ****** ****** ****** ****** ****** ****** ****** ****** ****** ******
      ****** ****** ****** ****** ****** ****** ****** ****** ****** ******
  11  ****** ****** ****** ****** ****** ****** ****** ****** ****** ******
      ****** ****** ****** ****** ****** ****** ****** ****** ****** ******
      ****** ****** ****** ****** ****** ****** ****** ****** ****** ******
  12  ****** ****** ****** ****** ****** ****** ****** ****** ****** ******
      ****** ****** ****** ****** ****** ****** ****** ****** ****** ******
      ****** ****** ****** ****** ****** ****** ****** ****** ****** ******
  13  ****** ****** ****** ****** ****** ****** ****** ****** ****** ******
      ****** ****** ****** ****** ****** ****** ****** ****** ****** ******
      ****** ****** ****** ****** ****** ****** ****** ****** ****** ******
  14  ****** ****** ****** ****** ****** ****** ****** ****** ****** ******
      ****** ****** ****** ****** ****** ****** ****** ****** ****** ******
      ****** ****** ****** ****** ****** ****** ****** ****** ****** ******
  15  ****** ****** ****** ****** ****** ****** ****** ****** ****** ******
      ****** ****** ****** ****** ****** ****** ****** ****** ****** ******
      ****** ****** ****** ****** ****** ****** ****** ****** ****** ******
  16  ****** ****** ****** ****** ****** ****** ****** ****** ****** ******
      ****** ****** ****** ****** ****** ****** ****** ****** ****** ******
      ****** ****** ****** ****** ****** ****** ****** ****** ****** ******
  17  ****** ****** ****** ****** ****** ****** ****** ****** ****** ******
      ****** ****** ****** ****** ****** ****** ****** ****** ****** ******
      ****** ****** ****** ****** ****** ****** ****** ****** ****** ******
  18  ****** ****** ****** ****** ****** ****** ****** ****** ****** ******
      ****** ****** ****** ****** ****** ****** ****** ****** ****** ******
      ****** ****** ****** ****** ****** ****** ****** ****** ****** ******
  19  ****** ****** ****** ****** ****** ****** ****** ****** ****** ******
      ****** ****** ****** ****** ****** ****** ****** ****** ****** ******
      ****** ****** ****** ****** ****** ****** ****** ****** ****** ******
  20  ****** ****** ****** ****** ****** ****** ****** ****** ****** ******
      ****** ****** ****** ****** ****** ****** ****** ****** ****** ******
      ****** ****** ****** ****** ****** ****** ****** ****** ****** ******
  21  ****** ****** ****** ****** ****** ****** ****** ****** ****** ******
      ****** ****** ****** ****** ****** ****** ****** ****** ****** ******
      ****** ****** ****** ****** ****** ****** ****** ****** ****** ******
  22  ****** ****** ****** ****** ****** ****** ****** ****** ****** ******
      ****** ****** ****** ****** ****** ****** ****** ****** ****** ******
      ****** ****** ****** ****** ****** ****** ****** ****** ****** ******
  23  ****** ****** ****** ****** ****** ****** ****** ****** ****** ******
      ****** ****** ****** ****** ****** ****** ****** ****** ****** ******
      ****** ****** ****** ****** ****** ****** ****** ****** ****** ******
  24  ****** ****** ****** ****** ****** ****** ****** ****** ****** ******
      ****** ****** ****** ****** ****** ****** ****** ****** ****** ******
      ****** ****** ****** ****** ****** ****** ****** ****** ****** ******
  25  ****** ****** ****** ****** ****** ****** ****** ****** ****** ******
      ****** ****** ****** ****** ****** ****** ****** ****** ****** ******
      ****** ****** ****** ****** ****** ****** ****** ****** ****** ******

 HEAD WILL BE SAVED ON UNIT   51 AT END OF TIME STEP    1, STRESS PERIOD    5
1
  VOLUMETRIC BUDGET FOR ENTIRE MODEL AT END OF TIME STEP    1, STRESS PERIOD   5
  ------------------------------------------------------------------------------

     CUMULATIVE VOLUMES      L**3       RATES FOR THIS TIME STEP      L**3/T
     ------------------                 ------------------------

           IN:                                      IN:
           ---                                      ---
             STORAGE =    32079915.8372               STORAGE =       19362.5530
       CONSTANT HEAD =    10915144.6076         CONSTANT HEAD =       32570.0625
               WELLS =           0.0000                 WELLS =           0.0000
            RECHARGE =    10074000.0000              RECHARGE =       13800.0000
      STREAM LEAKAGE =     2831260.4218        STREAM LEAKAGE =        7645.3853

            TOTAL IN =    55900320.8667              TOTAL IN =       73378.0007

          OUT:                                     OUT:
          ----                                     ----
             STORAGE =        1188.9119               STORAGE =           0.0000
       CONSTANT HEAD =           0.0000         CONSTANT HEAD =           0.0000
               WELLS =    13899905.8627                 WELLS =       30415.5489
            RECHARGE =           0.0000              RECHARGE =           0.0000
      STREAM LEAKAGE =    41999228.4437        STREAM LEAKAGE =       42962.4551

           TOTAL OUT =    55900323.2183             TOTAL OUT =       73378.0041

            IN - OUT =          -2.3516              IN - OUT =      -3.3260E-03

 PERCENT DISCREPANCY =          -0.00     PERCENT DISCREPANCY =          -0.00






         TIME SUMMARY AT END OF TIME STEP    1 IN STRESS PERIOD    5
                    SECONDS     MINUTES      HOURS       DAYS        YEARS
                    -----------------------------------------------------------
   TIME STEP LENGTH 7.94880E+06 1.32480E+05  2208.0      92.000     0.25188    
 STRESS PERIOD TIME 7.94880E+06 1.32480E+05  2208.0      92.000     0.25188    
         TOTAL TIME 3.94848E+07 6.58080E+05  10968.      457.00      1.2512    
1
1
                            STRESS PERIOD NO.    6, LENGTH =   91.00000    
                            -----------------------------------------------

                              NUMBER OF TIME STEPS =     1

                               MULTIPLIER FOR DELT =     1.500

                            INITIAL TIME STEP SIZE =   91.00000    

 WELL NO.  LAYER   ROW   COL   STRESS RATE         
 --------------------------------------------------
      1      1     10     17     -0.1009E+05
      2      1     11     19      -420.2    
      3      1     19     16     -0.1201E+05
      4      1      6     15      -7895.    

      4 WELLS

                 RECHARGE =  2.000000E-03

 REUSING STREAM SEGMENT DATA FROM LAST STRESS PERIOD
 
 SOLVING FOR HEAD 


     7 CALLS TO PCG ROUTINE FOR TIME STEP   1 IN STRESS PERIOD    6
    26 TOTAL ITERATIONS

 OUTPUT CONTROL FOR STRESS PERIOD    6   TIME STEP    1
    SAVE BUDGET
    SAVE HEAD FOR ALL LAYERS
    PRINT HEAD FOR ALL LAYERS
 UBDSV2 SAVING "STREAMFLOW OUT  " ON UNIT  50 AT TIME STEP  1, STRESS PERIOD   6



 STREAM LISTING     PERIOD      6   STEP        1

 LAYER ROW COL. STREAM  RCH.  FLOW INTO     FLOW TO   FLOW OUT OF   OVRLND.     DIRECT     STREAM       STREAM     STREAM     STREAM   STREAMBED  STREAMBED
                SEG.NO.  NO.  STRM. RCH.    AQUIFER    STRM. RCH.    RUNOFF     PRECIP       ET          HEAD       DEPTH      WIDTH   CONDCTNC.   GRADIENT

   1   13    1     1     1    1.0000E+05 -2.2509E+03   1.0225E+05  0.000E+00  0.000E+00  0.000E+00  4.84070E+01  1.456E-01  2.000E+01  2.000E+04 -1.125E-01
   1   13    2     1     2    1.0225E+05 -3.2849E+03   1.0554E+05  0.000E+00  0.000E+00  0.000E+00  4.79321E+01  1.480E-01  2.000E+01  2.000E+04 -1.642E-01
   1   14    3     1     3    1.0554E+05 -6.3620E+02   1.0617E+05  0.000E+00  0.000E+00  0.000E+00  4.74565E+01  1.497E-01  2.000E+01  2.000E+04 -3.181E-02
   1   15    4     1     4    1.0617E+05 -6.1174E+02   1.0678E+05  0.000E+00  0.000E+00  0.000E+00  4.69797E+01  1.502E-01  2.000E+01  2.000E+04 -3.059E-02
   1   16    5     1     5    1.0678E+05 -2.0495E+03   1.0883E+05  0.000E+00  0.000E+00  0.000E+00  4.65036E+01  1.513E-01  2.000E+01  2.000E+04 -1.025E-01
   1   16    6     1     6    1.0883E+05 -1.2637E+03   1.1010E+05  0.000E+00  0.000E+00  0.000E+00  4.60277E+01  1.527E-01  2.000E+01  2.000E+04 -6.319E-02
   1   16    7     1     7    1.1010E+05 -1.2041E+03   1.1130E+05  0.000E+00  0.000E+00  0.000E+00  4.55515E+01  1.537E-01  2.000E+01  2.000E+04 -6.021E-02
   1   16    8     1     8    1.1130E+05 -1.1499E+03   1.1245E+05  0.000E+00  0.000E+00  0.000E+00  4.50752E+01  1.547E-01  2.000E+01  2.000E+04 -5.749E-02
   1   16    9     1     9    1.1245E+05 -1.0722E+03   1.1352E+05  0.000E+00  0.000E+00  0.000E+00  4.45988E+01  1.556E-01  2.000E+01  2.000E+04 -5.361E-02
   1   16   10     1    10    1.1352E+05 -9.5903E+02   1.1448E+05  0.000E+00  0.000E+00  0.000E+00  4.41224E+01  1.565E-01  2.000E+01  2.000E+04 -4.795E-02
   1   16   11     1    11    1.1448E+05 -7.9837E+02   1.1528E+05  0.000E+00  0.000E+00  0.000E+00  4.36458E+01  1.572E-01  2.000E+01  2.000E+04 -3.992E-02
   1   16   12     1    12    1.1528E+05 -8.8779E+02   1.1617E+05  0.000E+00  0.000E+00  0.000E+00  4.31693E+01  1.579E-01  2.000E+01  2.000E+04 -4.439E-02
   1   15   13     1    13    1.1617E+05 -8.4474E+02   1.1701E+05  0.000E+00  0.000E+00  0.000E+00  4.26927E+01  1.586E-01  2.000E+01  2.000E+04 -4.224E-02
   1   14   14     1    14    1.1701E+05 -1.0906E+03   1.1810E+05  0.000E+00  0.000E+00  0.000E+00  4.22162E+01  1.594E-01  2.000E+01  2.000E+04 -5.453E-02
   1   13   15     1    15    1.1810E+05 -1.2213E+03   1.1933E+05  0.000E+00  0.000E+00  0.000E+00  4.17399E+01  1.603E-01  2.000E+01  2.000E+04 -6.106E-02
   1   12   16     1    16    1.1933E+05 -7.6538E+02   1.2009E+05  0.000E+00  0.000E+00  0.000E+00  4.12634E+01  1.611E-01  2.000E+01  2.000E+04 -3.827E-02
   1   12   17     1    17    1.2009E+05  2.7915E+02   1.1981E+05  0.000E+00  0.000E+00  0.000E+00  4.07863E+01  1.613E-01  2.000E+01  2.000E+04  1.396E-02
   1   12   18     1    18    1.1981E+05 -2.3706E+02   1.2005E+05  0.000E+00  0.000E+00  0.000E+00  4.03090E+01  1.613E-01  2.000E+01  2.000E+04 -1.185E-02
   1   12   19     1    19    1.2005E+05 -1.0541E+03   1.2110E+05  0.000E+00  0.000E+00  0.000E+00  3.98323E+01  1.618E-01  2.000E+01  2.000E+04 -5.271E-02
   1   13   20     1    20    1.2110E+05 -1.2758E+03   1.2238E+05  0.000E+00  0.000E+00  0.000E+00  3.93560E+01  1.628E-01  2.000E+01  2.000E+04 -6.379E-02
   1   14   21     1    21    1.2238E+05 -1.1589E+03   1.2354E+05  0.000E+00  0.000E+00  0.000E+00  3.88797E+01  1.637E-01  2.000E+01  2.000E+04 -5.795E-02
   1   14   22     1    22    1.2354E+05  4.8400E+03   1.1870E+05  0.000E+00  0.000E+00  0.000E+00  3.84009E+01  1.623E-01  2.000E+01  2.000E+04  2.420E-01
   1    9   30     2     1    5.0000E+04 -9.2155E+02   5.0922E+04  0.000E+00  0.000E+00  0.000E+00  4.02415E+01  1.165E-01  2.000E+01  2.000E+04 -4.608E-02
   1    9   29     2     2    5.0922E+04 -1.2071E+03   5.2129E+04  0.000E+00  0.000E+00  0.000E+00  3.99930E+01  1.180E-01  2.000E+01  2.000E+04 -6.035E-02
   1    9   28     2     3    5.2129E+04 -1.4302E+03   5.3559E+04  0.000E+00  0.000E+00  0.000E+00  3.97448E+01  1.198E-01  2.000E+01  2.000E+04 -7.151E-02
   1    9   27     2     4    5.3559E+04 -2.6161E+03   5.6175E+04  0.000E+00  0.000E+00  0.000E+00  3.94975E+01  1.225E-01  2.000E+01  2.000E+04 -1.308E-01
   1   10   26     2     5    5.6175E+04 -1.8117E+03   5.7987E+04  0.000E+00  0.000E+00  0.000E+00  3.92504E+01  1.254E-01  2.000E+01  2.000E+04 -9.058E-02
   1   11   25     2     6    5.7987E+04 -1.5553E+03   5.9542E+04  0.000E+00  0.000E+00  0.000E+00  3.90027E+01  1.277E-01  2.000E+01  2.000E+04 -7.776E-02
   1   12   24     2     7    5.9542E+04 -1.5302E+03   6.1072E+04  0.000E+00  0.000E+00  0.000E+00  3.87547E+01  1.297E-01  2.000E+01  2.000E+04 -7.651E-02
   1   13   23     2     8    6.1072E+04 -3.0689E+02   6.1379E+04  0.000E+00  0.000E+00  0.000E+00  3.85058E+01  1.308E-01  2.000E+01  2.000E+04 -1.534E-02
   1   14   22     2     9    6.1379E+04  1.9178E+03   5.9461E+04  0.000E+00  0.000E+00  0.000E+00  3.82548E+01  1.298E-01  2.000E+01  2.000E+04  9.589E-02
   1   14   22     3     1    1.7816E+05 -8.6232E+03   1.8678E+05  0.000E+00  0.000E+00  0.000E+00  3.77277E+01  1.722E-01  2.000E+01  2.000E+04 -4.312E-01
   1   15   23     3     2    1.8678E+05 -5.3958E+02   1.8732E+05  0.000E+00  0.000E+00  0.000E+00  3.68414E+01  1.748E-01  2.000E+01  2.000E+04 -2.698E-02
   1   15   24     3     3    1.8732E+05 -3.5776E+02   1.8768E+05  0.000E+00  0.000E+00  0.000E+00  3.59528E+01  1.750E-01  2.000E+01  2.000E+04 -1.789E-02
   1   15   25     3     4    1.8768E+05 -3.6627E+02   1.8805E+05  0.000E+00  0.000E+00  0.000E+00  3.50641E+01  1.752E-01  2.000E+01  2.000E+04 -1.831E-02
   1   15   26     3     5    1.8805E+05 -4.4726E+02   1.8849E+05  0.000E+00  0.000E+00  0.000E+00  3.41755E+01  1.755E-01  2.000E+01  2.000E+04 -2.236E-02
   1   16   27     3     6    1.8849E+05 -4.9216E+02   1.8898E+05  0.000E+00  0.000E+00  0.000E+00  3.32868E+01  1.757E-01  2.000E+01  2.000E+04 -2.461E-02
   1   17   28     3     7    1.8898E+05 -1.8913E+03   1.9088E+05  0.000E+00  0.000E+00  0.000E+00  3.23986E+01  1.764E-01  2.000E+01  2.000E+04 -9.456E-02
   1   18   29     3     8    1.9088E+05 -3.1837E+03   1.9406E+05  0.000E+00  0.000E+00  0.000E+00  3.15111E+01  1.778E-01  2.000E+01  2.000E+04 -1.592E-01
   1   18   30     3     9    1.9406E+05 -3.4202E+03   1.9748E+05  0.000E+00  0.000E+00  0.000E+00  3.06241E+01  1.796E-01  2.000E+01  2.000E+04 -1.710E-01



1
              HEAD IN LAYER   1 AT END OF TIME STEP   1 IN STRESS PERIOD    6
  ---------------------------------------------------------------------------

          1      2      3      4      5      6      7      8      9     10
         11     12     13     14     15     16     17     18     19     20
         21     22     23     24     25     26     27     28     29     30
 .........................................................................
   1  ****** ****** ****** ****** ****** ****** ****** ****** ****** ******
      ****** ****** ****** ****** ****** ****** ****** ****** ****** ******
      ****** ****** ****** ****** ****** ****** ****** ****** ****** ******
   2  ****** ****** ****** ****** ****** ****** ****** ****** ****** ******
      ****** ****** ****** ****** ****** ****** ****** ****** ****** ******
      ****** ****** ****** ****** ****** ****** ****** ****** ****** ******
   3  ****** ****** ****** ****** ****** ****** ****** ****** ****** ******
      ****** ****** ****** ****** ****** ****** ****** ****** ****** ******
      ****** ****** ****** ****** ****** ****** ****** ****** ****** ******
   4  ****** ****** ****** ****** ****** ****** ****** ****** ****** ******
      ****** ****** ****** ****** ****** ****** ****** ****** ****** ******
      ****** ****** ****** ****** ****** ****** ****** ****** ****** ******
   5  ****** ****** ****** ****** ****** ****** ****** ****** ****** ******
      ****** ****** ****** ****** ****** ****** ****** ****** ****** ******
      ****** ****** ****** ****** ****** ****** ****** ****** ****** ******
   6  ****** ****** ****** ****** ****** ****** ****** ****** ****** ******
      ****** ****** ****** ****** ****** ****** ****** ****** ****** ******
      ****** ****** ****** ****** ****** ****** ****** ****** ****** ******
   7  ****** ****** ****** ****** ****** ****** ****** ****** ****** ******
      ****** ****** ****** ****** ****** ****** ****** ****** ****** ******
      ****** ****** ****** ****** ****** ****** ****** ****** ****** ******
   8  ****** ****** ****** ****** ****** ****** ****** ****** ****** ******
      ****** ****** ****** ****** ****** ****** ****** ****** ****** ******
      ****** ****** ****** ****** ****** ****** ****** ****** ****** ******
   9  ****** ****** ****** ****** ****** ****** ****** ****** ****** ******
      ****** ****** ****** ****** ****** ****** ****** ****** ****** ******
      ****** ****** ****** ****** ****** ****** ****** ****** ****** ******
  10  ****** ****** ****** ****** ****** ****** ****** ****** ****** ******
      ****** ****** ****** ****** ****** ****** ****** ****** ****** ******
      ****** ****** ****** ****** ****** ****** ****** ****** ****** ******
  11  ****** ****** ****** ****** ****** ****** ****** ****** ****** ******
      ****** ****** ****** ****** ****** ****** ****** ****** ****** ******
      ****** ****** ****** ****** ****** ****** ****** ****** ****** ******
  12  ****** ****** ****** ****** ****** ****** ****** ****** ****** ******
      ****** ****** ****** ****** ****** ****** ****** ****** ****** ******
      ****** ****** ****** ****** ****** ****** ****** ****** ****** ******
  13  ****** ****** ****** ****** ****** ****** ****** ****** ****** ******
      ****** ****** ****** ****** ****** ****** ****** ****** ****** ******
      ****** ****** ****** ****** ****** ****** ****** ****** ****** ******
  14  ****** ****** ****** ****** ****** ****** ****** ****** ****** ******
      ****** ****** ****** ****** ****** ****** ****** ****** ****** ******
      ****** ****** ****** ****** ****** ****** ****** ****** ****** ******
  15  ****** ****** ****** ****** ****** ****** ****** ****** ****** ******
      ****** ****** ****** ****** ****** ****** ****** ****** ****** ******
      ****** ****** ****** ****** ****** ****** ****** ****** ****** ******
  16  ****** ****** ****** ****** ****** ****** ****** ****** ****** ******
      ****** ****** ****** ****** ****** ****** ****** ****** ****** ******
      ****** ****** ****** ****** ****** ****** ****** ****** ****** ******
  17  ****** ****** ****** ****** ****** ****** ****** ****** ****** ******
      ****** ****** ****** ****** ****** ****** ****** ****** ****** ******
      ****** ****** ****** ****** ****** ****** ****** ****** ****** ******
  18  ****** ****** ****** ****** ****** ****** ****** ****** ****** ******
      ****** ****** ****** ****** ****** ****** ****** ****** ****** ******
      ****** ****** ****** ****** ****** ****** ****** ****** ****** ******
  19  ****** ****** ****** ****** ****** ****** ****** ****** ****** ******
      ****** ****** ****** ****** ****** ****** ****** ****** ****** ******
      ****** ****** ****** ****** ****** ****** ****** ****** ****** ******
  20  ****** ****** ****** ****** ****** ****** ****** ****** ****** ******
      ****** ****** ****** ****** ****** ****** ****** ****** ****** ******
      ****** ****** ****** ****** ****** ****** ****** ****** ****** ******
  21  ****** ****** ****** ****** ****** ****** ****** ****** ****** ******
      ****** ****** ****** ****** ****** ****** ****** ****** ****** ******
      ****** ****** ****** ****** ****** ****** ****** ****** ****** ******
  22  ****** ****** ****** ****** ****** ****** ****** ****** ****** ******
      ****** ****** ****** ****** ****** ****** ****** ****** ****** ******
      ****** ****** ****** ****** ****** ****** ****** ****** ****** ******
  23  ****** ****** ****** ****** ****** ****** ****** ****** ****** ******
      ****** ****** ****** ****** ****** ****** ****** ****** ****** ******
      ****** ****** ****** ****** ****** ****** ****** ****** ****** ******
  24  ****** ****** ****** ****** ****** ****** ****** ****** ****** ******
      ****** ****** ****** ****** ****** ****** ****** ****** ****** ******
      ****** ****** ****** ****** ****** ****** ****** ****** ****** ******
  25  ****** ****** ****** ****** ****** ****** ****** ****** ****** ******
      ****** ****** ****** ****** ****** ****** ****** ****** ****** ******
      ****** ****** ****** ****** ****** ****** ****** ****** ****** ******

 HEAD WILL BE SAVED ON UNIT   51 AT END OF TIME STEP    1, STRESS PERIOD    6
1
  VOLUMETRIC BUDGET FOR ENTIRE MODEL AT END OF TIME STEP    1, STRESS PERIOD   6
  ------------------------------------------------------------------------------

     CUMULATIVE VOLUMES      L**3       RATES FOR THIS TIME STEP      L**3/T
     ------------------                 ------------------------

           IN:                                      IN:
           ---                                      ---
             STORAGE =    32080573.6367               STORAGE =           7.2286
       CONSTANT HEAD =    13714443.8315         CONSTANT HEAD =       30761.5299
               WELLS =           0.0000                 WELLS =           0.0000
            RECHARGE =    15097200.0000              RECHARGE =       55200.0000
      STREAM LEAKAGE =     3471626.8224        STREAM LEAKAGE =        7036.9934

            TOTAL IN =    64363844.2907              TOTAL IN =       93005.7519

          OUT:                                     OUT:
          ----                                     ----
             STORAGE =      735862.5578               STORAGE =        8073.3368
       CONSTANT HEAD =           0.0000         CONSTANT HEAD =           0.0000
               WELLS =    16667720.8157                 WELLS =       30415.5489
            RECHARGE =           0.0000              RECHARGE =           0.0000
      STREAM LEAKAGE =    46960263.0100        STREAM LEAKAGE =       54516.8634

           TOTAL OUT =    64363846.3835             TOTAL OUT =       93005.7491

            IN - OUT =          -2.0928              IN - OUT =       2.8439E-03

 PERCENT DISCREPANCY =          -0.00     PERCENT DISCREPANCY =           0.00






         TIME SUMMARY AT END OF TIME STEP    1 IN STRESS PERIOD    6
                    SECONDS     MINUTES      HOURS       DAYS        YEARS
                    -----------------------------------------------------------
   TIME STEP LENGTH 7.86240E+06 1.31040E+05  2184.0      91.000     0.24914    
 STRESS PERIOD TIME 7.86240E+06 1.31040E+05  2184.0      91.000     0.24914    
         TOTAL TIME 4.73472E+07 7.89120E+05  13152.      548.00      1.5003    
1
1
                            STRESS PERIOD NO.    7, LENGTH =   91.00000    
                            -----------------------------------------------

                              NUMBER OF TIME STEPS =     1

                               MULTIPLIER FOR DELT =     1.500

                            INITIAL TIME STEP SIZE =   91.00000    

 WELL NO.  LAYER   ROW   COL   STRESS RATE         
 --------------------------------------------------
      1      1     10     17     -0.1009E+05
      2      1     11     19      -420.2    
      3      1     19     16     -0.1201E+05
      4      1      6     15      -7895.    

      4 WELLS

                 RECHARGE =   0.00000    

 REUSING STREAM SEGMENT DATA FROM LAST STRESS PERIOD
 
 SOLVING FOR HEAD 


     7 CALLS TO PCG ROUTINE FOR TIME STEP   1 IN STRESS PERIOD    7
    26 TOTAL ITERATIONS

 OUTPUT CONTROL FOR STRESS PERIOD    7   TIME STEP    1
    SAVE BUDGET
    SAVE HEAD FOR ALL LAYERS
    PRINT HEAD FOR ALL LAYERS
 UBDSV2 SAVING "STREAMFLOW OUT  " ON UNIT  50 AT TIME STEP  1, STRESS PERIOD   7



 STREAM LISTING     PERIOD      7   STEP        1

 LAYER ROW COL. STREAM  RCH.  FLOW INTO     FLOW TO   FLOW OUT OF   OVRLND.     DIRECT     STREAM       STREAM     STREAM     STREAM   STREAMBED  STREAMBED
                SEG.NO.  NO.  STRM. RCH.    AQUIFER    STRM. RCH.    RUNOFF     PRECIP       ET          HEAD       DEPTH      WIDTH   CONDCTNC.   GRADIENT

   1   13    1     1     1    1.0000E+05 -1.5717E+03   1.0157E+05  0.000E+00  0.000E+00  0.000E+00  4.84067E+01  1.453E-01  2.000E+01  2.000E+04 -7.859E-02
   1   13    2     1     2    1.0157E+05 -2.5246E+03   1.0410E+05  0.000E+00  0.000E+00  0.000E+00  4.79312E+01  1.471E-01  2.000E+01  2.000E+04 -1.262E-01
   1   14    3     1     3    1.0410E+05 -3.8212E+02   1.0448E+05  0.000E+00  0.000E+00  0.000E+00  4.74552E+01  1.483E-01  2.000E+01  2.000E+04 -1.911E-02
   1   15    4     1     4    1.0448E+05 -3.4718E+02   1.0483E+05  0.000E+00  0.000E+00  0.000E+00  4.69782E+01  1.487E-01  2.000E+01  2.000E+04 -1.736E-02
   1   16    5     1     5    1.0483E+05 -1.2920E+03   1.0612E+05  0.000E+00  0.000E+00  0.000E+00  4.65016E+01  1.494E-01  2.000E+01  2.000E+04 -6.460E-02
   1   16    6     1     6    1.0612E+05 -8.0623E+02   1.0692E+05  0.000E+00  0.000E+00  0.000E+00  4.60252E+01  1.502E-01  2.000E+01  2.000E+04 -4.031E-02
   1   16    7     1     7    1.0692E+05 -7.6486E+02   1.0769E+05  0.000E+00  0.000E+00  0.000E+00  4.55486E+01  1.509E-01  2.000E+01  2.000E+04 -3.824E-02
   1   16    8     1     8    1.0769E+05 -7.1640E+02   1.0841E+05  0.000E+00  0.000E+00  0.000E+00  4.50720E+01  1.515E-01  2.000E+01  2.000E+04 -3.582E-02
   1   16    9     1     9    1.0841E+05 -6.4182E+02   1.0905E+05  0.000E+00  0.000E+00  0.000E+00  4.45953E+01  1.521E-01  2.000E+01  2.000E+04 -3.209E-02
   1   16   10     1    10    1.0905E+05 -5.3112E+02   1.0958E+05  0.000E+00  0.000E+00  0.000E+00  4.41185E+01  1.526E-01  2.000E+01  2.000E+04 -2.656E-02
   1   16   11     1    11    1.0958E+05 -3.6921E+02   1.0995E+05  0.000E+00  0.000E+00  0.000E+00  4.36416E+01  1.530E-01  2.000E+01  2.000E+04 -1.846E-02
   1   16   12     1    12    1.0995E+05 -1.6508E+02   1.1011E+05  0.000E+00  0.000E+00  0.000E+00  4.31646E+01  1.532E-01  2.000E+01  2.000E+04 -8.254E-03
   1   15   13     1    13    1.1011E+05 -6.8083E+01   1.1018E+05  0.000E+00  0.000E+00  0.000E+00  4.26874E+01  1.533E-01  2.000E+01  2.000E+04 -3.404E-03
   1   14   14     1    14    1.1018E+05 -2.8441E+02   1.1046E+05  0.000E+00  0.000E+00  0.000E+00  4.22103E+01  1.534E-01  2.000E+01  2.000E+04 -1.422E-02
   1   13   15     1    15    1.1046E+05 -4.1155E+02   1.1088E+05  0.000E+00  0.000E+00  0.000E+00  4.17333E+01  1.537E-01  2.000E+01  2.000E+04 -2.058E-02
   1   12   16     1    16    1.1088E+05  4.0831E+01   1.1084E+05  0.000E+00  0.000E+00  0.000E+00  4.12562E+01  1.539E-01  2.000E+01  2.000E+04  2.042E-03
   1   12   17     1    17    1.1084E+05  8.6314E+02   1.0997E+05  0.000E+00  0.000E+00  0.000E+00  4.07785E+01  1.535E-01  2.000E+01  2.000E+04  4.316E-02
   1   12   18     1    18    1.0997E+05  3.3188E+02   1.0964E+05  0.000E+00  0.000E+00  0.000E+00  4.03007E+01  1.530E-01  2.000E+01  2.000E+04  1.659E-02
   1   12   19     1    19    1.0964E+05 -3.5962E+02   1.1000E+05  0.000E+00  0.000E+00  0.000E+00  3.98235E+01  1.530E-01  2.000E+01  2.000E+04 -1.798E-02
   1   13   20     1    20    1.1000E+05 -6.0149E+02   1.1060E+05  0.000E+00  0.000E+00  0.000E+00  3.93466E+01  1.534E-01  2.000E+01  2.000E+04 -3.007E-02
   1   14   21     1    21    1.1060E+05 -4.9315E+02   1.1109E+05  0.000E+00  0.000E+00  0.000E+00  3.88698E+01  1.539E-01  2.000E+01  2.000E+04 -2.466E-02
   1   14   22     1    22    1.1109E+05  4.9946E+03   1.0610E+05  0.000E+00  0.000E+00  0.000E+00  3.83906E+01  1.520E-01  2.000E+01  2.000E+04  2.497E-01
   1    9   30     2     1    5.0000E+04 -4.0635E+02   5.0406E+04  0.000E+00  0.000E+00  0.000E+00  4.02411E+01  1.161E-01  2.000E+01  2.000E+04 -2.032E-02
   1    9   29     2     2    5.0406E+04 -6.9349E+02   5.1100E+04  0.000E+00  0.000E+00  0.000E+00  3.99919E+01  1.169E-01  2.000E+01  2.000E+04 -3.467E-02
   1    9   28     2     3    5.1100E+04 -9.1493E+02   5.2015E+04  0.000E+00  0.000E+00  0.000E+00  3.97430E+01  1.180E-01  2.000E+01  2.000E+04 -4.575E-02
   1    9   27     2     4    5.2015E+04 -1.9142E+03   5.3929E+04  0.000E+00  0.000E+00  0.000E+00  3.94949E+01  1.199E-01  2.000E+01  2.000E+04 -9.571E-02
   1   10   26     2     5    5.3929E+04 -1.1086E+03   5.5038E+04  0.000E+00  0.000E+00  0.000E+00  3.92470E+01  1.220E-01  2.000E+01  2.000E+04 -5.543E-02
   1   11   25     2     6    5.5038E+04 -8.8104E+02   5.5919E+04  0.000E+00  0.000E+00  0.000E+00  3.89983E+01  1.233E-01  2.000E+01  2.000E+04 -4.405E-02
   1   12   24     2     7    5.5919E+04 -9.1513E+02   5.6834E+04  0.000E+00  0.000E+00  0.000E+00  3.87495E+01  1.245E-01  2.000E+01  2.000E+04 -4.576E-02
   1   13   23     2     8    5.6834E+04 -1.1442E+02   5.6948E+04  0.000E+00  0.000E+00  0.000E+00  3.85002E+01  1.252E-01  2.000E+01  2.000E+04 -5.721E-03
   1   14   22     2     9    5.6948E+04  2.1589E+03   5.4789E+04  0.000E+00  0.000E+00  0.000E+00  3.82488E+01  1.238E-01  2.000E+01  2.000E+04  1.079E-01
   1   14   22     3     1    1.6089E+05 -8.4633E+03   1.6935E+05  0.000E+00  0.000E+00  0.000E+00  3.77177E+01  1.622E-01  2.000E+01  2.000E+04 -4.232E-01
   1   15   23     3     2    1.6935E+05 -3.3236E+02   1.6969E+05  0.000E+00  0.000E+00  0.000E+00  3.68314E+01  1.648E-01  2.000E+01  2.000E+04 -1.662E-02
   1   15   24     3     3    1.6969E+05 -1.8379E+02   1.6987E+05  0.000E+00  0.000E+00  0.000E+00  3.59427E+01  1.649E-01  2.000E+01  2.000E+04 -9.189E-03
   1   15   25     3     4    1.6987E+05 -1.8931E+02   1.7006E+05  0.000E+00  0.000E+00  0.000E+00  3.50539E+01  1.650E-01  2.000E+01  2.000E+04 -9.466E-03
   1   15   26     3     5    1.7006E+05 -2.4592E+02   1.7030E+05  0.000E+00  0.000E+00  0.000E+00  3.41651E+01  1.651E-01  2.000E+01  2.000E+04 -1.230E-02
   1   16   27     3     6    1.7030E+05 -2.5956E+02   1.7056E+05  0.000E+00  0.000E+00  0.000E+00  3.32764E+01  1.653E-01  2.000E+01  2.000E+04 -1.298E-02
   1   17   28     3     7    1.7056E+05 -1.2488E+03   1.7181E+05  0.000E+00  0.000E+00  0.000E+00  3.23879E+01  1.657E-01  2.000E+01  2.000E+04 -6.244E-02
   1   18   29     3     8    1.7181E+05 -2.4951E+03   1.7431E+05  0.000E+00  0.000E+00  0.000E+00  3.15001E+01  1.668E-01  2.000E+01  2.000E+04 -1.248E-01
   1   18   30     3     9    1.7431E+05 -2.8903E+03   1.7720E+05  0.000E+00  0.000E+00  0.000E+00  3.06128E+01  1.684E-01  2.000E+01  2.000E+04 -1.445E-01



1
              HEAD IN LAYER   1 AT END OF TIME STEP   1 IN STRESS PERIOD    7
  ---------------------------------------------------------------------------

          1      2      3      4      5      6      7      8      9     10
         11     12     13     14     15     16     17     18     19     20
         21     22     23     24     25     26     27     28     29     30
 .........................................................................
   1  ****** ****** ****** ****** ****** ****** ****** ****** ****** ******
      ****** ****** ****** ****** ****** ****** ****** ****** ****** ******
      ****** ****** ****** ****** ****** ****** ****** ****** ****** ******
   2  ****** ****** ****** ****** ****** ****** ****** ****** ****** ******
      ****** ****** ****** ****** ****** ****** ****** ****** ****** ******
      ****** ****** ****** ****** ****** ****** ****** ****** ****** ******
   3  ****** ****** ****** ****** ****** ****** ****** ****** ****** ******
      ****** ****** ****** ****** ****** ****** ****** ****** ****** ******
      ****** ****** ****** ****** ****** ****** ****** ****** ****** ******
   4  ****** ****** ****** ****** ****** ****** ****** ****** ****** ******
      ****** ****** ****** ****** ****** ****** ****** ****** ****** ******
      ****** ****** ****** ****** ****** ****** ****** ****** ****** ******
   5  ****** ****** ****** ****** ****** ****** ****** ****** ****** ******
      ****** ****** ****** ****** ****** ****** ****** ****** ****** ******
      ****** ****** ****** ****** ****** ****** ****** ****** ****** ******
   6  ****** ****** ****** ****** ****** ****** ****** ****** ****** ******
      ****** ****** ****** ****** ****** ****** ****** ****** ****** ******
      ****** ****** ****** ****** ****** ****** ****** ****** ****** ******
   7  ****** ****** ****** ****** ****** ****** ****** ****** ****** ******
      ****** ****** ****** ****** ****** ****** ****** ****** ****** ******
      ****** ****** ****** ****** ****** ****** ****** ****** ****** ******
   8  ****** ****** ****** ****** ****** ****** ****** ****** ****** ******
      ****** ****** ****** ****** ****** ****** ****** ****** ****** ******
      ****** ****** ****** ****** ****** ****** ****** ****** ****** ******
   9  ****** ****** ****** ****** ****** ****** ****** ****** ****** ******
      ****** ****** ****** ****** ****** ****** ****** ****** ****** ******
      ****** ****** ****** ****** ****** ****** ****** ****** ****** ******
  10  ****** ****** ****** ****** ****** ****** ****** ****** ****** ******
      ****** ****** ****** ****** ****** ****** ****** ****** ****** ******
      ****** ****** ****** ****** ****** ****** ****** ****** ****** ******
  11  ****** ****** ****** ****** ****** ****** ****** ****** ****** ******
      ****** ****** ****** ****** ****** ****** ****** ****** ****** ******
      ****** ****** ****** ****** ****** ****** ****** ****** ****** ******
  12  ****** ****** ****** ****** ****** ****** ****** ****** ****** ******
      ****** ****** ****** ****** ****** ****** ****** ****** ****** ******
      ****** ****** ****** ****** ****** ****** ****** ****** ****** ******
  13  ****** ****** ****** ****** ****** ****** ****** ****** ****** ******
      ****** ****** ****** ****** ****** ****** ****** ****** ****** ******
      ****** ****** ****** ****** ****** ****** ****** ****** ****** ******
  14  ****** ****** ****** ****** ****** ****** ****** ****** ****** ******
      ****** ****** ****** ****** ****** ****** ****** ****** ****** ******
      ****** ****** ****** ****** ****** ****** ****** ****** ****** ******
  15  ****** ****** ****** ****** ****** ****** ****** ****** ****** ******
      ****** ****** ****** ****** ****** ****** ****** ****** ****** ******
      ****** ****** ****** ****** ****** ****** ****** ****** ****** ******
  16  ****** ****** ****** ****** ****** ****** ****** ****** ****** ******
      ****** ****** ****** ****** ****** ****** ****** ****** ****** ******
      ****** ****** ****** ****** ****** ****** ****** ****** ****** ******
  17  ****** ****** ****** ****** ****** ****** ****** ****** ****** ******
      ****** ****** ****** ****** ****** ****** ****** ****** ****** ******
      ****** ****** ****** ****** ****** ****** ****** ****** ****** ******
  18  ****** ****** ****** ****** ****** ****** ****** ****** ****** ******
      ****** ****** ****** ****** ****** ****** ****** ****** ****** ******
      ****** ****** ****** ****** ****** ****** ****** ****** ****** ******
  19  ****** ****** ****** ****** ****** ****** ****** ****** ****** ******
      ****** ****** ****** ****** ****** ****** ****** ****** ****** ******
      ****** ****** ****** ****** ****** ****** ****** ****** ****** ******
  20  ****** ****** ****** ****** ****** ****** ****** ****** ****** ******
      ****** ****** ****** ****** ****** ****** ****** ****** ****** ******
      ****** ****** ****** ****** ****** ****** ****** ****** ****** ******
  21  ****** ****** ****** ****** ****** ****** ****** ****** ****** ******
      ****** ****** ****** ****** ****** ****** ****** ****** ****** ******
      ****** ****** ****** ****** ****** ****** ****** ****** ****** ******
  22  ****** ****** ****** ****** ****** ****** ****** ****** ****** ******
      ****** ****** ****** ****** ****** ****** ****** ****** ****** ******
      ****** ****** ****** ****** ****** ****** ****** ****** ****** ******
  23  ****** ****** ****** ****** ****** ****** ****** ****** ****** ******
      ****** ****** ****** ****** ****** ****** ****** ****** ****** ******
      ****** ****** ****** ****** ****** ****** ****** ****** ****** ******
  24  ****** ****** ****** ****** ****** ****** ****** ****** ****** ******
      ****** ****** ****** ****** ****** ****** ****** ****** ****** ******
      ****** ****** ****** ****** ****** ****** ****** ****** ****** ******
  25  ****** ****** ****** ****** ****** ****** ****** ****** ****** ******
      ****** ****** ****** ****** ****** ****** ****** ****** ****** ******
      ****** ****** ****** ****** ****** ****** ****** ****** ****** ******

 HEAD WILL BE SAVED ON UNIT   51 AT END OF TIME STEP    1, STRESS PERIOD    7
1
  VOLUMETRIC BUDGET FOR ENTIRE MODEL AT END OF TIME STEP    1, STRESS PERIOD   7
  ------------------------------------------------------------------------------

     CUMULATIVE VOLUMES      L**3       RATES FOR THIS TIME STEP      L**3/T
     ------------------                 ------------------------

           IN:                                      IN:
           ---                                      ---
             STORAGE =    34160909.8159               STORAGE =       22860.8371
       CONSTANT HEAD =    16876929.7085         CONSTANT HEAD =       34752.5921
               WELLS =           0.0000                 WELLS =           0.0000
            RECHARGE =    15097200.0000              RECHARGE =           0.0000
      STREAM LEAKAGE =     4235063.6149        STREAM LEAKAGE =        8389.4153

            TOTAL IN =    70370103.1392              TOTAL IN =       66002.8445

          OUT:                                     OUT:
          ----                                     ----
             STORAGE =      735862.5578               STORAGE =           0.0000
       CONSTANT HEAD =           0.0000         CONSTANT HEAD =           0.0000
               WELLS =    19435535.7686                 WELLS =       30415.5489
            RECHARGE =           0.0000              RECHARGE =           0.0000
      STREAM LEAKAGE =    50198707.4171        STREAM LEAKAGE =       35587.3012

           TOTAL OUT =    70370105.7435             TOTAL OUT =       66002.8501

            IN - OUT =          -2.6043              IN - OUT =      -5.6210E-03

 PERCENT DISCREPANCY =          -0.00     PERCENT DISCREPANCY =          -0.00






         TIME SUMMARY AT END OF TIME STEP    1 IN STRESS PERIOD    7
                    SECONDS     MINUTES      HOURS       DAYS        YEARS
                    -----------------------------------------------------------
   TIME STEP LENGTH 7.86240E+06 1.31040E+05  2184.0      91.000     0.24914    
 STRESS PERIOD TIME 7.86240E+06 1.31040E+05  2184.0      91.000     0.24914    
         TOTAL TIME 5.52096E+07 9.20160E+05  15336.      639.00      1.7495    
1
1
                            STRESS PERIOD NO.    8, LENGTH =   91.00000    
                            -----------------------------------------------

                              NUMBER OF TIME STEPS =     1

                               MULTIPLIER FOR DELT =     1.500

                            INITIAL TIME STEP SIZE =   91.00000    

 WELL NO.  LAYER   ROW   COL   STRESS RATE         
 --------------------------------------------------
      1      1     10     17     -0.1009E+05
      2      1     11     19      -420.2    
      3      1     19     16     -0.1201E+05
      4      1      6     15      -7895.    

      4 WELLS

                 RECHARGE =  1.000000E-03

 REUSING STREAM SEGMENT DATA FROM LAST STRESS PERIOD
 
 SOLVING FOR HEAD 


     6 CALLS TO PCG ROUTINE FOR TIME STEP   1 IN STRESS PERIOD    8
    22 TOTAL ITERATIONS

 OUTPUT CONTROL FOR STRESS PERIOD    8   TIME STEP    1
    SAVE BUDGET
    SAVE HEAD FOR ALL LAYERS
    PRINT HEAD FOR ALL LAYERS
 UBDSV2 SAVING "STREAMFLOW OUT  " ON UNIT  50 AT TIME STEP  1, STRESS PERIOD   8



 STREAM LISTING     PERIOD      8   STEP        1

 LAYER ROW COL. STREAM  RCH.  FLOW INTO     FLOW TO   FLOW OUT OF   OVRLND.     DIRECT     STREAM       STREAM     STREAM     STREAM   STREAMBED  STREAMBED
                SEG.NO.  NO.  STRM. RCH.    AQUIFER    STRM. RCH.    RUNOFF     PRECIP       ET          HEAD       DEPTH      WIDTH   CONDCTNC.   GRADIENT

   1   13    1     1     1    1.0000E+05 -1.6356E+03   1.0164E+05  0.000E+00  0.000E+00  0.000E+00  4.84067E+01  1.454E-01  2.000E+01  2.000E+04 -8.178E-02
   1   13    2     1     2    1.0164E+05 -2.5866E+03   1.0422E+05  0.000E+00  0.000E+00  0.000E+00  4.79313E+01  1.472E-01  2.000E+01  2.000E+04 -1.293E-01
   1   14    3     1     3    1.0422E+05 -4.4452E+02   1.0467E+05  0.000E+00  0.000E+00  0.000E+00  4.74553E+01  1.485E-01  2.000E+01  2.000E+04 -2.223E-02
   1   15    4     1     4    1.0467E+05 -4.1446E+02   1.0508E+05  0.000E+00  0.000E+00  0.000E+00  4.69784E+01  1.488E-01  2.000E+01  2.000E+04 -2.072E-02
   1   16    5     1     5    1.0508E+05 -1.4633E+03   1.0654E+05  0.000E+00  0.000E+00  0.000E+00  4.65019E+01  1.496E-01  2.000E+01  2.000E+04 -7.316E-02
   1   16    6     1     6    1.0654E+05 -9.1117E+02   1.0746E+05  0.000E+00  0.000E+00  0.000E+00  4.60256E+01  1.506E-01  2.000E+01  2.000E+04 -4.556E-02
   1   16    7     1     7    1.0746E+05 -8.6469E+02   1.0832E+05  0.000E+00  0.000E+00  0.000E+00  4.55491E+01  1.514E-01  2.000E+01  2.000E+04 -4.323E-02
   1   16    8     1     8    1.0832E+05 -8.1536E+02   1.0914E+05  0.000E+00  0.000E+00  0.000E+00  4.50726E+01  1.521E-01  2.000E+01  2.000E+04 -4.077E-02
   1   16    9     1     9    1.0914E+05 -7.4199E+02   1.0988E+05  0.000E+00  0.000E+00  0.000E+00  4.45959E+01  1.528E-01  2.000E+01  2.000E+04 -3.710E-02
   1   16   10     1    10    1.0988E+05 -6.3393E+02   1.1051E+05  0.000E+00  0.000E+00  0.000E+00  4.41192E+01  1.533E-01  2.000E+01  2.000E+04 -3.170E-02
   1   16   11     1    11    1.1051E+05 -4.7524E+02   1.1099E+05  0.000E+00  0.000E+00  0.000E+00  4.36424E+01  1.538E-01  2.000E+01  2.000E+04 -2.376E-02
   1   16   12     1    12    1.1099E+05 -3.2249E+02   1.1131E+05  0.000E+00  0.000E+00  0.000E+00  4.31655E+01  1.541E-01  2.000E+01  2.000E+04 -1.612E-02
   1   15   13     1    13    1.1131E+05 -2.3049E+02   1.1154E+05  0.000E+00  0.000E+00  0.000E+00  4.26884E+01  1.544E-01  2.000E+01  2.000E+04 -1.152E-02
   1   14   14     1    14    1.1154E+05 -4.3825E+02   1.1198E+05  0.000E+00  0.000E+00  0.000E+00  4.22114E+01  1.546E-01  2.000E+01  2.000E+04 -2.191E-02
   1   13   15     1    15    1.1198E+05 -5.5119E+02   1.1253E+05  0.000E+00  0.000E+00  0.000E+00  4.17346E+01  1.550E-01  2.000E+01  2.000E+04 -2.756E-02
   1   12   16     1    16    1.1253E+05 -5.8288E+01   1.1259E+05  0.000E+00  0.000E+00  0.000E+00  4.12576E+01  1.553E-01  2.000E+01  2.000E+04 -2.914E-03
   1   12   17     1    17    1.1259E+05  7.5840E+02   1.1183E+05  0.000E+00  0.000E+00  0.000E+00  4.07800E+01  1.550E-01  2.000E+01  2.000E+04  3.792E-02
   1   12   18     1    18    1.1183E+05  2.1952E+02   1.1161E+05  0.000E+00  0.000E+00  0.000E+00  4.03023E+01  1.546E-01  2.000E+01  2.000E+04  1.098E-02
   1   12   19     1    19    1.1161E+05 -5.0188E+02   1.1211E+05  0.000E+00  0.000E+00  0.000E+00  3.98252E+01  1.547E-01  2.000E+01  2.000E+04 -2.509E-02
   1   13   20     1    20    1.1211E+05 -7.7573E+02   1.1289E+05  0.000E+00  0.000E+00  0.000E+00  3.93484E+01  1.552E-01  2.000E+01  2.000E+04 -3.879E-02
   1   14   21     1    21    1.1289E+05 -6.4844E+02   1.1354E+05  0.000E+00  0.000E+00  0.000E+00  3.88717E+01  1.558E-01  2.000E+01  2.000E+04 -3.242E-02
   1   14   22     1    22    1.1354E+05  4.9480E+03   1.0859E+05  0.000E+00  0.000E+00  0.000E+00  3.83927E+01  1.541E-01  2.000E+01  2.000E+04  2.474E-01
   1    9   30     2     1    5.0000E+04 -5.6809E+02   5.0568E+04  0.000E+00  0.000E+00  0.000E+00  4.02413E+01  1.163E-01  2.000E+01  2.000E+04 -2.840E-02
   1    9   29     2     2    5.0568E+04 -8.5231E+02   5.1420E+04  0.000E+00  0.000E+00  0.000E+00  3.99922E+01  1.172E-01  2.000E+01  2.000E+04 -4.262E-02
   1    9   28     2     3    5.1420E+04 -1.0679E+03   5.2488E+04  0.000E+00  0.000E+00  0.000E+00  3.97436E+01  1.186E-01  2.000E+01  2.000E+04 -5.339E-02
   1    9   27     2     4    5.2488E+04 -2.0881E+03   5.4576E+04  0.000E+00  0.000E+00  0.000E+00  3.94957E+01  1.207E-01  2.000E+01  2.000E+04 -1.044E-01
   1   10   26     2     5    5.4576E+04 -1.3103E+03   5.5887E+04  0.000E+00  0.000E+00  0.000E+00  3.92480E+01  1.230E-01  2.000E+01  2.000E+04 -6.552E-02
   1   11   25     2     6    5.5887E+04 -1.0814E+03   5.6968E+04  0.000E+00  0.000E+00  0.000E+00  3.89996E+01  1.246E-01  2.000E+01  2.000E+04 -5.407E-02
   1   12   24     2     7    5.6968E+04 -1.0967E+03   5.8065E+04  0.000E+00  0.000E+00  0.000E+00  3.87510E+01  1.260E-01  2.000E+01  2.000E+04 -5.484E-02
   1   13   23     2     8    5.8065E+04 -1.8818E+02   5.8253E+04  0.000E+00  0.000E+00  0.000E+00  3.85019E+01  1.269E-01  2.000E+01  2.000E+04 -9.409E-03
   1   14   22     2     9    5.8253E+04  2.1064E+03   5.6147E+04  0.000E+00  0.000E+00  0.000E+00  3.82506E+01  1.256E-01  2.000E+01  2.000E+04  1.053E-01
   1   14   22     3     1    1.6473E+05 -8.5058E+03   1.7324E+05  0.000E+00  0.000E+00  0.000E+00  3.77200E+01  1.644E-01  2.000E+01  2.000E+04 -4.253E-01
   1   15   23     3     2    1.7324E+05 -3.9597E+02   1.7364E+05  0.000E+00  0.000E+00  0.000E+00  3.68337E+01  1.670E-01  2.000E+01  2.000E+04 -1.980E-02
   1   15   24     3     3    1.7364E+05 -2.4399E+02   1.7388E+05  0.000E+00  0.000E+00  0.000E+00  3.59450E+01  1.672E-01  2.000E+01  2.000E+04 -1.220E-02
   1   15   25     3     4    1.7388E+05 -2.5128E+02   1.7413E+05  0.000E+00  0.000E+00  0.000E+00  3.50562E+01  1.674E-01  2.000E+01  2.000E+04 -1.256E-02
   1   15   26     3     5    1.7413E+05 -3.2041E+02   1.7445E+05  0.000E+00  0.000E+00  0.000E+00  3.41675E+01  1.675E-01  2.000E+01  2.000E+04 -1.602E-02
   1   16   27     3     6    1.7445E+05 -3.4108E+02   1.7479E+05  0.000E+00  0.000E+00  0.000E+00  3.32788E+01  1.677E-01  2.000E+01  2.000E+04 -1.705E-02
   1   17   28     3     7    1.7479E+05 -1.4515E+03   1.7624E+05  0.000E+00  0.000E+00  0.000E+00  3.23904E+01  1.682E-01  2.000E+01  2.000E+04 -7.257E-02
   1   18   29     3     8    1.7624E+05 -2.6583E+03   1.7890E+05  0.000E+00  0.000E+00  0.000E+00  3.15027E+01  1.694E-01  2.000E+01  2.000E+04 -1.329E-01
   1   18   30     3     9    1.7890E+05 -3.0356E+03   1.8194E+05  0.000E+00  0.000E+00  0.000E+00  3.06155E+01  1.710E-01  2.000E+01  2.000E+04 -1.518E-01



1
              HEAD IN LAYER   1 AT END OF TIME STEP   1 IN STRESS PERIOD    8
  ---------------------------------------------------------------------------

          1      2      3      4      5      6      7      8      9     10
         11     12     13     14     15     16     17     18     19     20
         21     22     23     24     25     26     27     28     29     30
 .........................................................................
   1  ****** ****** ****** ****** ****** ****** ****** ****** ****** ******
      ****** ****** ****** ****** ****** ****** ****** ****** ****** ******
      ****** ****** ****** ****** ****** ****** ****** ****** ****** ******
   2  ****** ****** ****** ****** ****** ****** ****** ****** ****** ******
      ****** ****** ****** ****** ****** ****** ****** ****** ****** ******
      ****** ****** ****** ****** ****** ****** ****** ****** ****** ******
   3  ****** ****** ****** ****** ****** ****** ****** ****** ****** ******
      ****** ****** ****** ****** ****** ****** ****** ****** ****** ******
      ****** ****** ****** ****** ****** ****** ****** ****** ****** ******
   4  ****** ****** ****** ****** ****** ****** ****** ****** ****** ******
      ****** ****** ****** ****** ****** ****** ****** ****** ****** ******
      ****** ****** ****** ****** ****** ****** ****** ****** ****** ******
   5  ****** ****** ****** ****** ****** ****** ****** ****** ****** ******
      ****** ****** ****** ****** ****** ****** ****** ****** ****** ******
      ****** ****** ****** ****** ****** ****** ****** ****** ****** ******
   6  ****** ****** ****** ****** ****** ****** ****** ****** ****** ******
      ****** ****** ****** ****** ****** ****** ****** ****** ****** ******
      ****** ****** ****** ****** ****** ****** ****** ****** ****** ******
   7  ****** ****** ****** ****** ****** ****** ****** ****** ****** ******
      ****** ****** ****** ****** ****** ****** ****** ****** ****** ******
      ****** ****** ****** ****** ****** ****** ****** ****** ****** ******
   8  ****** ****** ****** ****** ****** ****** ****** ****** ****** ******
      ****** ****** ****** ****** ****** ****** ****** ****** ****** ******
      ****** ****** ****** ****** ****** ****** ****** ****** ****** ******
   9  ****** ****** ****** ****** ****** ****** ****** ****** ****** ******
      ****** ****** ****** ****** ****** ****** ****** ****** ****** ******
      ****** ****** ****** ****** ****** ****** ****** ****** ****** ******
  10  ****** ****** ****** ****** ****** ****** ****** ****** ****** ******
      ****** ****** ****** ****** ****** ****** ****** ****** ****** ******
      ****** ****** ****** ****** ****** ****** ****** ****** ****** ******
  11  ****** ****** ****** ****** ****** ****** ****** ****** ****** ******
      ****** ****** ****** ****** ****** ****** ****** ****** ****** ******
      ****** ****** ****** ****** ****** ****** ****** ****** ****** ******
  12  ****** ****** ****** ****** ****** ****** ****** ****** ****** ******
      ****** ****** ****** ****** ****** ****** ****** ****** ****** ******
      ****** ****** ****** ****** ****** ****** ****** ****** ****** ******
  13  ****** ****** ****** ****** ****** ****** ****** ****** ****** ******
      ****** ****** ****** ****** ****** ****** ****** ****** ****** ******
      ****** ****** ****** ****** ****** ****** ****** ****** ****** ******
  14  ****** ****** ****** ****** ****** ****** ****** ****** ****** ******
      ****** ****** ****** ****** ****** ****** ****** ****** ****** ******
      ****** ****** ****** ****** ****** ****** ****** ****** ****** ******
  15  ****** ****** ****** ****** ****** ****** ****** ****** ****** ******
      ****** ****** ****** ****** ****** ****** ****** ****** ****** ******
      ****** ****** ****** ****** ****** ****** ****** ****** ****** ******
  16  ****** ****** ****** ****** ****** ****** ****** ****** ****** ******
      ****** ****** ****** ****** ****** ****** ****** ****** ****** ******
      ****** ****** ****** ****** ****** ****** ****** ****** ****** ******
  17  ****** ****** ****** ****** ****** ****** ****** ****** ****** ******
      ****** ****** ****** ****** ****** ****** ****** ****** ****** ******
      ****** ****** ****** ****** ****** ****** ****** ****** ****** ******
  18  ****** ****** ****** ****** ****** ****** ****** ****** ****** ******
      ****** ****** ****** ****** ****** ****** ****** ****** ****** ******
      ****** ****** ****** ****** ****** ****** ****** ****** ****** ******
  19  ****** ****** ****** ****** ****** ****** ****** ****** ****** ******
      ****** ****** ****** ****** ****** ****** ****** ****** ****** ******
      ****** ****** ****** ****** ****** ****** ****** ****** ****** ******
  20  ****** ****** ****** ****** ****** ****** ****** ****** ****** ******
      ****** ****** ****** ****** ****** ****** ****** ****** ****** ******
      ****** ****** ****** ****** ****** ****** ****** ****** ****** ******
  21  ****** ****** ****** ****** ****** ****** ****** ****** ****** ******
      ****** ****** ****** ****** ****** ****** ****** ****** ****** ******
      ****** ****** ****** ****** ****** ****** ****** ****** ****** ******
  22  ****** ****** ****** ****** ****** ****** ****** ****** ****** ******
      ****** ****** ****** ****** ****** ****** ****** ****** ****** ******
      ****** ****** ****** ****** ****** ****** ****** ****** ****** ******
  23  ****** ****** ****** ****** ****** ****** ****** ****** ****** ******
      ****** ****** ****** ****** ****** ****** ****** ****** ****** ******
      ****** ****** ****** ****** ****** ****** ****** ****** ****** ******
  24  ****** ****** ****** ****** ****** ****** ****** ****** ****** ******
      ****** ****** ****** ****** ****** ****** ****** ****** ****** ******
      ****** ****** ****** ****** ****** ****** ****** ****** ****** ******
  25  ****** ****** ****** ****** ****** ****** ****** ****** ****** ******
      ****** ****** ****** ****** ****** ****** ****** ****** ****** ******
      ****** ****** ****** ****** ****** ****** ****** ****** ****** ******

 HEAD WILL BE SAVED ON UNIT   51 AT END OF TIME STEP    1, STRESS PERIOD    8
1
  VOLUMETRIC BUDGET FOR ENTIRE MODEL AT END OF TIME STEP    1, STRESS PERIOD   8
  ------------------------------------------------------------------------------

     CUMULATIVE VOLUMES      L**3       RATES FOR THIS TIME STEP      L**3/T
     ------------------                 ------------------------

           IN:                                      IN:
           ---                                      ---
             STORAGE =    34319185.2035               STORAGE =        1739.2900
       CONSTANT HEAD =    20016494.7343         CONSTANT HEAD =       34500.7146
               WELLS =           0.0000                 WELLS =           0.0000
            RECHARGE =    17608800.0000              RECHARGE =       27600.0000
      STREAM LEAKAGE =     4966004.3029        STREAM LEAKAGE =        8032.3153

            TOTAL IN =    76910484.2407              TOTAL IN =       71872.3198

          OUT:                                     OUT:
          ----                                     ----
             STORAGE =      871104.7527               STORAGE =        1486.1780
       CONSTANT HEAD =           0.0000         CONSTANT HEAD =           0.0000
               WELLS =    22203350.7216                 WELLS =       30415.5489
            RECHARGE =           0.0000              RECHARGE =           0.0000
      STREAM LEAKAGE =    53836030.6447        STREAM LEAKAGE =       39970.5849

           TOTAL OUT =    76910486.1190             TOTAL OUT =       71872.3118

            IN - OUT =          -1.8783              IN - OUT =       7.9785E-03

 PERCENT DISCREPANCY =          -0.00     PERCENT DISCREPANCY =           0.00






         TIME SUMMARY AT END OF TIME STEP    1 IN STRESS PERIOD    8
                    SECONDS     MINUTES      HOURS       DAYS        YEARS
                    -----------------------------------------------------------
   TIME STEP LENGTH 7.86240E+06 1.31040E+05  2184.0      91.000     0.24914    
 STRESS PERIOD TIME 7.86240E+06 1.31040E+05  2184.0      91.000     0.24914    
         TOTAL TIME 6.30720E+07 1.05120E+06  17520.      730.00      1.9986    
1
1
                            STRESS PERIOD NO.    9, LENGTH =   92.00000    
                            -----------------------------------------------

                              NUMBER OF TIME STEPS =     1

                               MULTIPLIER FOR DELT =     1.500

                            INITIAL TIME STEP SIZE =   92.00000    

 WELL NO.  LAYER   ROW   COL   STRESS RATE         
 --------------------------------------------------
      1      1     10     17     -0.1009E+05
      2      1     11     19      -420.2    
      3      1     19     16     -0.1201E+05
      4      1      6     15      -7895.    

      4 WELLS

                 RECHARGE =  5.000000E-04

 REUSING STREAM SEGMENT DATA FROM LAST STRESS PERIOD
 
 SOLVING FOR HEAD 


     6 CALLS TO PCG ROUTINE FOR TIME STEP   1 IN STRESS PERIOD    9
    23 TOTAL ITERATIONS

 OUTPUT CONTROL FOR STRESS PERIOD    9   TIME STEP    1
    SAVE BUDGET
    SAVE HEAD FOR ALL LAYERS
    PRINT HEAD FOR ALL LAYERS
 UBDSV2 SAVING "STREAMFLOW OUT  " ON UNIT  50 AT TIME STEP  1, STRESS PERIOD   9



 STREAM LISTING     PERIOD      9   STEP        1

 LAYER ROW COL. STREAM  RCH.  FLOW INTO     FLOW TO   FLOW OUT OF   OVRLND.     DIRECT     STREAM       STREAM     STREAM     STREAM   STREAMBED  STREAMBED
                SEG.NO.  NO.  STRM. RCH.    AQUIFER    STRM. RCH.    RUNOFF     PRECIP       ET          HEAD       DEPTH      WIDTH   CONDCTNC.   GRADIENT

   1   13    1     1     1    1.0000E+05 -1.4141E+03   1.0141E+05  0.000E+00  0.000E+00  0.000E+00  4.84066E+01  1.453E-01  2.000E+01  2.000E+04 -7.071E-02
   1   13    2     1     2    1.0141E+05 -2.3356E+03   1.0375E+05  0.000E+00  0.000E+00  0.000E+00  4.79310E+01  1.469E-01  2.000E+01  2.000E+04 -1.168E-01
   1   14    3     1     3    1.0375E+05 -3.7246E+02   1.0412E+05  0.000E+00  0.000E+00  0.000E+00  4.74549E+01  1.480E-01  2.000E+01  2.000E+04 -1.862E-02
   1   15    4     1     4    1.0412E+05 -3.4159E+02   1.0446E+05  0.000E+00  0.000E+00  0.000E+00  4.69779E+01  1.483E-01  2.000E+01  2.000E+04 -1.708E-02
   1   16    5     1     5    1.0446E+05 -1.2694E+03   1.0573E+05  0.000E+00  0.000E+00  0.000E+00  4.65013E+01  1.490E-01  2.000E+01  2.000E+04 -6.347E-02
   1   16    6     1     6    1.0573E+05 -7.8991E+02   1.0652E+05  0.000E+00  0.000E+00  0.000E+00  4.60249E+01  1.499E-01  2.000E+01  2.000E+04 -3.950E-02
   1   16    7     1     7    1.0652E+05 -7.4707E+02   1.0727E+05  0.000E+00  0.000E+00  0.000E+00  4.55483E+01  1.506E-01  2.000E+01  2.000E+04 -3.735E-02
   1   16    8     1     8    1.0727E+05 -6.9927E+02   1.0797E+05  0.000E+00  0.000E+00  0.000E+00  4.50716E+01  1.512E-01  2.000E+01  2.000E+04 -3.496E-02
   1   16    9     1     9    1.0797E+05 -6.2758E+02   1.0860E+05  0.000E+00  0.000E+00  0.000E+00  4.45949E+01  1.517E-01  2.000E+01  2.000E+04 -3.138E-02
   1   16   10     1    10    1.0860E+05 -5.2169E+02   1.0912E+05  0.000E+00  0.000E+00  0.000E+00  4.41181E+01  1.522E-01  2.000E+01  2.000E+04 -2.608E-02
   1   16   11     1    11    1.0912E+05 -3.6416E+02   1.0948E+05  0.000E+00  0.000E+00  0.000E+00  4.36412E+01  1.526E-01  2.000E+01  2.000E+04 -1.821E-02
   1   16   12     1    12    1.0948E+05 -1.3195E+02   1.0961E+05  0.000E+00  0.000E+00  0.000E+00  4.31642E+01  1.528E-01  2.000E+01  2.000E+04 -6.598E-03
   1   15   13     1    13    1.0961E+05 -1.7346E+01   1.0963E+05  0.000E+00  0.000E+00  0.000E+00  4.26869E+01  1.529E-01  2.000E+01  2.000E+04 -8.673E-04
   1   14   14     1    14    1.0963E+05 -2.1066E+02   1.0984E+05  0.000E+00  0.000E+00  0.000E+00  4.22098E+01  1.529E-01  2.000E+01  2.000E+04 -1.053E-02
   1   13   15     1    15    1.0984E+05 -3.1695E+02   1.1016E+05  0.000E+00  0.000E+00  0.000E+00  4.17327E+01  1.532E-01  2.000E+01  2.000E+04 -1.585E-02
   1   12   16     1    16    1.1016E+05  1.8562E+02   1.0997E+05  0.000E+00  0.000E+00  0.000E+00  4.12555E+01  1.532E-01  2.000E+01  2.000E+04  9.281E-03
   1   12   17     1    17    1.0997E+05  9.2479E+02   1.0905E+05  0.000E+00  0.000E+00  0.000E+00  4.07778E+01  1.528E-01  2.000E+01  2.000E+04  4.624E-02
   1   12   18     1    18    1.0905E+05  3.7786E+02   1.0867E+05  0.000E+00  0.000E+00  0.000E+00  4.02999E+01  1.522E-01  2.000E+01  2.000E+04  1.889E-02
   1   12   19     1    19    1.0867E+05 -3.1144E+02   1.0898E+05  0.000E+00  0.000E+00  0.000E+00  3.98226E+01  1.522E-01  2.000E+01  2.000E+04 -1.557E-02
   1   13   20     1    20    1.0898E+05 -6.0027E+02   1.0958E+05  0.000E+00  0.000E+00  0.000E+00  3.93457E+01  1.526E-01  2.000E+01  2.000E+04 -3.001E-02
   1   14   21     1    21    1.0958E+05 -4.7540E+02   1.1006E+05  0.000E+00  0.000E+00  0.000E+00  3.88689E+01  1.530E-01  2.000E+01  2.000E+04 -2.377E-02
   1   14   22     1    22    1.1006E+05  4.9852E+03   1.0507E+05  0.000E+00  0.000E+00  0.000E+00  3.83898E+01  1.511E-01  2.000E+01  2.000E+04  2.493E-01
   1    9   30     2     1    5.0000E+04 -4.4399E+02   5.0444E+04  0.000E+00  0.000E+00  0.000E+00  4.02412E+01  1.162E-01  2.000E+01  2.000E+04 -2.220E-02
   1    9   29     2     2    5.0444E+04 -7.2793E+02   5.1172E+04  0.000E+00  0.000E+00  0.000E+00  3.99920E+01  1.170E-01  2.000E+01  2.000E+04 -3.640E-02
   1    9   28     2     3    5.1172E+04 -9.4140E+02   5.2113E+04  0.000E+00  0.000E+00  0.000E+00  3.97431E+01  1.181E-01  2.000E+01  2.000E+04 -4.707E-02
   1    9   27     2     4    5.2113E+04 -1.9094E+03   5.4023E+04  0.000E+00  0.000E+00  0.000E+00  3.94951E+01  1.201E-01  2.000E+01  2.000E+04 -9.547E-02
   1   10   26     2     5    5.4023E+04 -1.1348E+03   5.5158E+04  0.000E+00  0.000E+00  0.000E+00  3.92471E+01  1.221E-01  2.000E+01  2.000E+04 -5.674E-02
   1   11   25     2     6    5.5158E+04 -9.1351E+02   5.6071E+04  0.000E+00  0.000E+00  0.000E+00  3.89985E+01  1.235E-01  2.000E+01  2.000E+04 -4.568E-02
   1   12   24     2     7    5.6071E+04 -9.4220E+02   5.7013E+04  0.000E+00  0.000E+00  0.000E+00  3.87497E+01  1.247E-01  2.000E+01  2.000E+04 -4.711E-02
   1   13   23     2     8    5.7013E+04 -1.4078E+02   5.7154E+04  0.000E+00  0.000E+00  0.000E+00  3.85005E+01  1.255E-01  2.000E+01  2.000E+04 -7.039E-03
   1   14   22     2     9    5.7154E+04  2.1722E+03   5.4982E+04  0.000E+00  0.000E+00  0.000E+00  3.82491E+01  1.241E-01  2.000E+01  2.000E+04  1.086E-01
   1   14   22     3     1    1.6006E+05 -8.4652E+03   1.6852E+05  0.000E+00  0.000E+00  0.000E+00  3.77172E+01  1.617E-01  2.000E+01  2.000E+04 -4.233E-01
   1   15   23     3     2    1.6852E+05 -3.4316E+02   1.6886E+05  0.000E+00  0.000E+00  0.000E+00  3.68309E+01  1.643E-01  2.000E+01  2.000E+04 -1.716E-02
   1   15   24     3     3    1.6886E+05 -2.0085E+02   1.6906E+05  0.000E+00  0.000E+00  0.000E+00  3.59422E+01  1.644E-01  2.000E+01  2.000E+04 -1.004E-02
   1   15   25     3     4    1.6906E+05 -2.0791E+02   1.6927E+05  0.000E+00  0.000E+00  0.000E+00  3.50534E+01  1.645E-01  2.000E+01  2.000E+04 -1.040E-02
   1   15   26     3     5    1.6927E+05 -2.7276E+02   1.6955E+05  0.000E+00  0.000E+00  0.000E+00  3.41647E+01  1.647E-01  2.000E+01  2.000E+04 -1.364E-02
   1   16   27     3     6    1.6955E+05 -2.8497E+02   1.6983E+05  0.000E+00  0.000E+00  0.000E+00  3.32760E+01  1.649E-01  2.000E+01  2.000E+04 -1.425E-02
   1   17   28     3     7    1.6983E+05 -1.2975E+03   1.7113E+05  0.000E+00  0.000E+00  0.000E+00  3.23875E+01  1.653E-01  2.000E+01  2.000E+04 -6.488E-02
   1   18   29     3     8    1.7113E+05 -2.4815E+03   1.7361E+05  0.000E+00  0.000E+00  0.000E+00  3.14997E+01  1.664E-01  2.000E+01  2.000E+04 -1.241E-01
   1   18   30     3     9    1.7361E+05 -2.9028E+03   1.7651E+05  0.000E+00  0.000E+00  0.000E+00  3.06124E+01  1.680E-01  2.000E+01  2.000E+04 -1.451E-01



1
              HEAD IN LAYER   1 AT END OF TIME STEP   1 IN STRESS PERIOD    9
  ---------------------------------------------------------------------------

          1      2      3      4      5      6      7      8      9     10
         11     12     13     14     15     16     17     18     19     20
         21     22     23     24     25     26     27     28     29     30
 .........................................................................
   1  ****** ****** ****** ****** ****** ****** ****** ****** ****** ******
      ****** ****** ****** ****** ****** ****** ****** ****** ****** ******
      ****** ****** ****** ****** ****** ****** ****** ****** ****** ******
   2  ****** ****** ****** ****** ****** ****** ****** ****** ****** ******
      ****** ****** ****** ****** ****** ****** ****** ****** ****** ******
      ****** ****** ****** ****** ****** ****** ****** ****** ****** ******
   3  ****** ****** ****** ****** ****** ****** ****** ****** ****** ******
      ****** ****** ****** ****** ****** ****** ****** ****** ****** ******
      ****** ****** ****** ****** ****** ****** ****** ****** ****** ******
   4  ****** ****** ****** ****** ****** ****** ****** ****** ****** ******
      ****** ****** ****** ****** ****** ****** ****** ****** ****** ******
      ****** ****** ****** ****** ****** ****** ****** ****** ****** ******
   5  ****** ****** ****** ****** ****** ****** ****** ****** ****** ******
      ****** ****** ****** ****** ****** ****** ****** ****** ****** ******
      ****** ****** ****** ****** ****** ****** ****** ****** ****** ******
   6  ****** ****** ****** ****** ****** ****** ****** ****** ****** ******
      ****** ****** ****** ****** ****** ****** ****** ****** ****** ******
      ****** ****** ****** ****** ****** ****** ****** ****** ****** ******
   7  ****** ****** ****** ****** ****** ****** ****** ****** ****** ******
      ****** ****** ****** ****** ****** ****** ****** ****** ****** ******
      ****** ****** ****** ****** ****** ****** ****** ****** ****** ******
   8  ****** ****** ****** ****** ****** ****** ****** ****** ****** ******
      ****** ****** ****** ****** ****** ****** ****** ****** ****** ******
      ****** ****** ****** ****** ****** ****** ****** ****** ****** ******
   9  ****** ****** ****** ****** ****** ****** ****** ****** ****** ******
      ****** ****** ****** ****** ****** ****** ****** ****** ****** ******
      ****** ****** ****** ****** ****** ****** ****** ****** ****** ******
  10  ****** ****** ****** ****** ****** ****** ****** ****** ****** ******
      ****** ****** ****** ****** ****** ****** ****** ****** ****** ******
      ****** ****** ****** ****** ****** ****** ****** ****** ****** ******
  11  ****** ****** ****** ****** ****** ****** ****** ****** ****** ******
      ****** ****** ****** ****** ****** ****** ****** ****** ****** ******
      ****** ****** ****** ****** ****** ****** ****** ****** ****** ******
  12  ****** ****** ****** ****** ****** ****** ****** ****** ****** ******
      ****** ****** ****** ****** ****** ****** ****** ****** ****** ******
      ****** ****** ****** ****** ****** ****** ****** ****** ****** ******
  13  ****** ****** ****** ****** ****** ****** ****** ****** ****** ******
      ****** ****** ****** ****** ****** ****** ****** ****** ****** ******
      ****** ****** ****** ****** ****** ****** ****** ****** ****** ******
  14  ****** ****** ****** ****** ****** ****** ****** ****** ****** ******
      ****** ****** ****** ****** ****** ****** ****** ****** ****** ******
      ****** ****** ****** ****** ****** ****** ****** ****** ****** ******
  15  ****** ****** ****** ****** ****** ****** ****** ****** ****** ******
      ****** ****** ****** ****** ****** ****** ****** ****** ****** ******
      ****** ****** ****** ****** ****** ****** ****** ****** ****** ******
  16  ****** ****** ****** ****** ****** ****** ****** ****** ****** ******
      ****** ****** ****** ****** ****** ****** ****** ****** ****** ******
      ****** ****** ****** ****** ****** ****** ****** ****** ****** ******
  17  ****** ****** ****** ****** ****** ****** ****** ****** ****** ******
      ****** ****** ****** ****** ****** ****** ****** ****** ****** ******
      ****** ****** ****** ****** ****** ****** ****** ****** ****** ******
  18  ****** ****** ****** ****** ****** ****** ****** ****** ****** ******
      ****** ****** ****** ****** ****** ****** ****** ****** ****** ******
      ****** ****** ****** ****** ****** ****** ****** ****** ****** ******
  19  ****** ****** ****** ****** ****** ****** ****** ****** ****** ******
      ****** ****** ****** ****** ****** ****** ****** ****** ****** ******
      ****** ****** ****** ****** ****** ****** ****** ****** ****** ******
  20  ****** ****** ****** ****** ****** ****** ****** ****** ****** ******
      ****** ****** ****** ****** ****** ****** ****** ****** ****** ******
      ****** ****** ****** ****** ****** ****** ****** ****** ****** ******
  21  ****** ****** ****** ****** ****** ****** ****** ****** ****** ******
      ****** ****** ****** ****** ****** ****** ****** ****** ****** ******
      ****** ****** ****** ****** ****** ****** ****** ****** ****** ******
  22  ****** ****** ****** ****** ****** ****** ****** ****** ****** ******
      ****** ****** ****** ****** ****** ****** ****** ****** ****** ******
      ****** ****** ****** ****** ****** ****** ****** ****** ****** ******
  23  ****** ****** ****** ****** ****** ****** ****** ****** ****** ******
      ****** ****** ****** ****** ****** ****** ****** ****** ****** ******
      ****** ****** ****** ****** ****** ****** ****** ****** ****** ******
  24  ****** ****** ****** ****** ****** ****** ****** ****** ****** ******
      ****** ****** ****** ****** ****** ****** ****** ****** ****** ******
      ****** ****** ****** ****** ****** ****** ****** ****** ****** ******
  25  ****** ****** ****** ****** ****** ****** ****** ****** ****** ******
      ****** ****** ****** ****** ****** ****** ****** ****** ****** ******
      ****** ****** ****** ****** ****** ****** ****** ****** ****** ******

 HEAD WILL BE SAVED ON UNIT   51 AT END OF TIME STEP    1, STRESS PERIOD    9
1
  VOLUMETRIC BUDGET FOR ENTIRE MODEL AT END OF TIME STEP    1, STRESS PERIOD   9
  ------------------------------------------------------------------------------

     CUMULATIVE VOLUMES      L**3       RATES FOR THIS TIME STEP      L**3/T
     ------------------                 ------------------------

           IN:                                      IN:
           ---                                      ---
             STORAGE =    35002912.9547               STORAGE =        7431.8234
       CONSTANT HEAD =    23300489.8208         CONSTANT HEAD =       35695.5988
               WELLS =           0.0000                 WELLS =           0.0000
            RECHARGE =    18878400.0000              RECHARGE =       13800.0000
      STREAM LEAKAGE =     5761411.4220        STREAM LEAKAGE =        8645.7296

            TOTAL IN =    82943214.1975              TOTAL IN =       65573.1517

          OUT:                                     OUT:
          ----                                     ----
             STORAGE =      871104.7527               STORAGE =           0.0000
       CONSTANT HEAD =           0.0000         CONSTANT HEAD =           0.0000
               WELLS =    25001581.2235                 WELLS =       30415.5489
            RECHARGE =           0.0000              RECHARGE =           0.0000
      STREAM LEAKAGE =    57070530.1732        STREAM LEAKAGE =       35157.6036

           TOTAL OUT =    82943216.1494             TOTAL OUT =       65573.1525

            IN - OUT =          -1.9519              IN - OUT =      -8.0038E-04

 PERCENT DISCREPANCY =          -0.00     PERCENT DISCREPANCY =          -0.00






         TIME SUMMARY AT END OF TIME STEP    1 IN STRESS PERIOD    9
                    SECONDS     MINUTES      HOURS       DAYS        YEARS
                    -----------------------------------------------------------
   TIME STEP LENGTH 7.94880E+06 1.32480E+05  2208.0      92.000     0.25188    
 STRESS PERIOD TIME 7.94880E+06 1.32480E+05  2208.0      92.000     0.25188    
         TOTAL TIME 7.10208E+07 1.18368E+06  19728.      822.00      2.2505    
1
1
                            STRESS PERIOD NO.   10, LENGTH =   91.00000    
                            -----------------------------------------------

                              NUMBER OF TIME STEPS =     1

                               MULTIPLIER FOR DELT =     1.500

                            INITIAL TIME STEP SIZE =   91.00000    

 WELL NO.  LAYER   ROW   COL   STRESS RATE         
 --------------------------------------------------
      1      1     10     17     -0.1009E+05
      2      1     11     19      -420.2    
      3      1     19     16     -0.1201E+05
      4      1      6     15      -7895.    

      4 WELLS

                 RECHARGE =  2.000000E-03

 REUSING STREAM SEGMENT DATA FROM LAST STRESS PERIOD
 
 SOLVING FOR HEAD 


     7 CALLS TO PCG ROUTINE FOR TIME STEP   1 IN STRESS PERIOD   10
    26 TOTAL ITERATIONS

 OUTPUT CONTROL FOR STRESS PERIOD   10   TIME STEP    1
    SAVE BUDGET
    SAVE HEAD FOR ALL LAYERS
    PRINT HEAD FOR ALL LAYERS
 UBDSV2 SAVING "STREAMFLOW OUT  " ON UNIT  50 AT TIME STEP  1, STRESS PERIOD  10



 STREAM LISTING     PERIOD     10   STEP        1

 LAYER ROW COL. STREAM  RCH.  FLOW INTO     FLOW TO   FLOW OUT OF   OVRLND.     DIRECT     STREAM       STREAM     STREAM     STREAM   STREAMBED  STREAMBED
                SEG.NO.  NO.  STRM. RCH.    AQUIFER    STRM. RCH.    RUNOFF     PRECIP       ET          HEAD       DEPTH      WIDTH   CONDCTNC.   GRADIENT

   1   13    1     1     1    1.0000E+05 -1.8616E+03   1.0186E+05  0.000E+00  0.000E+00  0.000E+00  4.84068E+01  1.455E-01  2.000E+01  2.000E+04 -9.308E-02
   1   13    2     1     2    1.0186E+05 -2.8311E+03   1.0469E+05  0.000E+00  0.000E+00  0.000E+00  4.79316E+01  1.475E-01  2.000E+01  2.000E+04 -1.416E-01
   1   14    3     1     3    1.0469E+05 -5.5807E+02   1.0525E+05  0.000E+00  0.000E+00  0.000E+00  4.74557E+01  1.489E-01  2.000E+01  2.000E+04 -2.790E-02
   1   15    4     1     4    1.0525E+05 -5.4026E+02   1.0579E+05  0.000E+00  0.000E+00  0.000E+00  4.69789E+01  1.494E-01  2.000E+01  2.000E+04 -2.701E-02
   1   16    5     1     5    1.0579E+05 -1.8875E+03   1.0768E+05  0.000E+00  0.000E+00  0.000E+00  4.65027E+01  1.504E-01  2.000E+01  2.000E+04 -9.437E-02
   1   16    6     1     6    1.0768E+05 -1.1513E+03   1.0883E+05  0.000E+00  0.000E+00  0.000E+00  4.60267E+01  1.517E-01  2.000E+01  2.000E+04 -5.756E-02
   1   16    7     1     7    1.0883E+05 -1.0906E+03   1.0992E+05  0.000E+00  0.000E+00  0.000E+00  4.55504E+01  1.526E-01  2.000E+01  2.000E+04 -5.453E-02
   1   16    8     1     8    1.0992E+05 -1.0373E+03   1.1096E+05  0.000E+00  0.000E+00  0.000E+00  4.50740E+01  1.535E-01  2.000E+01  2.000E+04 -5.187E-02
   1   16    9     1     9    1.1096E+05 -9.6419E+02   1.1192E+05  0.000E+00  0.000E+00  0.000E+00  4.45975E+01  1.544E-01  2.000E+01  2.000E+04 -4.821E-02
   1   16   10     1    10    1.1192E+05 -8.5859E+02   1.1278E+05  0.000E+00  0.000E+00  0.000E+00  4.41210E+01  1.551E-01  2.000E+01  2.000E+04 -4.293E-02
   1   16   11     1    11    1.1278E+05 -7.0466E+02   1.1349E+05  0.000E+00  0.000E+00  0.000E+00  4.36444E+01  1.558E-01  2.000E+01  2.000E+04 -3.523E-02
   1   16   12     1    12    1.1349E+05 -7.0006E+02   1.1419E+05  0.000E+00  0.000E+00  0.000E+00  4.31677E+01  1.563E-01  2.000E+01  2.000E+04 -3.500E-02
   1   15   13     1    13    1.1419E+05 -6.0150E+02   1.1479E+05  0.000E+00  0.000E+00  0.000E+00  4.26910E+01  1.569E-01  2.000E+01  2.000E+04 -3.008E-02
   1   14   14     1    14    1.1479E+05 -8.0133E+02   1.1559E+05  0.000E+00  0.000E+00  0.000E+00  4.22143E+01  1.575E-01  2.000E+01  2.000E+04 -4.007E-02
   1   13   15     1    15    1.1559E+05 -8.9707E+02   1.1649E+05  0.000E+00  0.000E+00  0.000E+00  4.17377E+01  1.582E-01  2.000E+01  2.000E+04 -4.485E-02
   1   12   16     1    16    1.1649E+05 -3.7206E+02   1.1686E+05  0.000E+00  0.000E+00  0.000E+00  4.12609E+01  1.587E-01  2.000E+01  2.000E+04 -1.860E-02
   1   12   17     1    17    1.1686E+05  5.0149E+02   1.1636E+05  0.000E+00  0.000E+00  0.000E+00  4.07836E+01  1.586E-01  2.000E+01  2.000E+04  2.507E-02
   1   12   18     1    18    1.1636E+05 -4.1619E+01   1.1640E+05  0.000E+00  0.000E+00  0.000E+00  4.03062E+01  1.584E-01  2.000E+01  2.000E+04 -2.081E-03
   1   12   19     1    19    1.1640E+05 -8.2780E+02   1.1723E+05  0.000E+00  0.000E+00  0.000E+00  3.98292E+01  1.588E-01  2.000E+01  2.000E+04 -4.139E-02
   1   13   20     1    20    1.1723E+05 -1.1203E+03   1.1835E+05  0.000E+00  0.000E+00  0.000E+00  3.93528E+01  1.596E-01  2.000E+01  2.000E+04 -5.602E-02
   1   14   21     1    21    1.1835E+05 -9.9943E+02   1.1934E+05  0.000E+00  0.000E+00  0.000E+00  3.88763E+01  1.604E-01  2.000E+01  2.000E+04 -4.997E-02
   1   14   22     1    22    1.1934E+05  4.8613E+03   1.1448E+05  0.000E+00  0.000E+00  0.000E+00  3.83975E+01  1.589E-01  2.000E+01  2.000E+04  2.431E-01
   1    9   30     2     1    5.0000E+04 -8.5776E+02   5.0858E+04  0.000E+00  0.000E+00  0.000E+00  4.02415E+01  1.165E-01  2.000E+01  2.000E+04 -4.289E-02
   1    9   29     2     2    5.0858E+04 -1.1394E+03   5.1997E+04  0.000E+00  0.000E+00  0.000E+00  3.99928E+01  1.178E-01  2.000E+01  2.000E+04 -5.697E-02
   1    9   28     2     3    5.1997E+04 -1.3519E+03   5.3349E+04  0.000E+00  0.000E+00  0.000E+00  3.97445E+01  1.195E-01  2.000E+01  2.000E+04 -6.760E-02
   1    9   27     2     4    5.3349E+04 -2.4611E+03   5.5810E+04  0.000E+00  0.000E+00  0.000E+00  3.94971E+01  1.221E-01  2.000E+01  2.000E+04 -1.231E-01
   1   10   26     2     5    5.5810E+04 -1.6867E+03   5.7497E+04  0.000E+00  0.000E+00  0.000E+00  3.92499E+01  1.249E-01  2.000E+01  2.000E+04 -8.433E-02
   1   11   25     2     6    5.7497E+04 -1.4409E+03   5.8938E+04  0.000E+00  0.000E+00  0.000E+00  3.90019E+01  1.269E-01  2.000E+01  2.000E+04 -7.205E-02
   1   12   24     2     7    5.8938E+04 -1.4195E+03   6.0357E+04  0.000E+00  0.000E+00  0.000E+00  3.87538E+01  1.288E-01  2.000E+01  2.000E+04 -7.097E-02
   1   13   23     2     8    6.0357E+04 -2.8935E+02   6.0647E+04  0.000E+00  0.000E+00  0.000E+00  3.85049E+01  1.299E-01  2.000E+01  2.000E+04 -1.447E-02
   1   14   22     2     9    6.0647E+04  1.9874E+03   5.8659E+04  0.000E+00  0.000E+00  0.000E+00  3.82538E+01  1.288E-01  2.000E+01  2.000E+04  9.937E-02
   1   14   22     3     1    1.7314E+05 -8.5912E+03   1.8173E+05  0.000E+00  0.000E+00  0.000E+00  3.77249E+01  1.693E-01  2.000E+01  2.000E+04 -4.296E-01
   1   15   23     3     2    1.8173E+05 -5.0555E+02   1.8224E+05  0.000E+00  0.000E+00  0.000E+00  3.68386E+01  1.719E-01  2.000E+01  2.000E+04 -2.528E-02
   1   15   24     3     3    1.8224E+05 -3.3795E+02   1.8258E+05  0.000E+00  0.000E+00  0.000E+00  3.59499E+01  1.722E-01  2.000E+01  2.000E+04 -1.690E-02
   1   15   25     3     4    1.8258E+05 -3.4843E+02   1.8293E+05  0.000E+00  0.000E+00  0.000E+00  3.50612E+01  1.724E-01  2.000E+01  2.000E+04 -1.742E-02
   1   15   26     3     5    1.8293E+05 -4.3496E+02   1.8336E+05  0.000E+00  0.000E+00  0.000E+00  3.41726E+01  1.726E-01  2.000E+01  2.000E+04 -2.175E-02
   1   16   27     3     6    1.8336E+05 -4.7075E+02   1.8383E+05  0.000E+00  0.000E+00  0.000E+00  3.32839E+01  1.728E-01  2.000E+01  2.000E+04 -2.354E-02
   1   17   28     3     7    1.8383E+05 -1.8179E+03   1.8565E+05  0.000E+00  0.000E+00  0.000E+00  3.23957E+01  1.735E-01  2.000E+01  2.000E+04 -9.090E-02
   1   18   29     3     8    1.8565E+05 -3.0323E+03   1.8868E+05  0.000E+00  0.000E+00  0.000E+00  3.15082E+01  1.748E-01  2.000E+01  2.000E+04 -1.516E-01
   1   18   30     3     9    1.8868E+05 -3.3279E+03   1.9201E+05  0.000E+00  0.000E+00  0.000E+00  3.06211E+01  1.766E-01  2.000E+01  2.000E+04 -1.664E-01



1
              HEAD IN LAYER   1 AT END OF TIME STEP   1 IN STRESS PERIOD   10
  ---------------------------------------------------------------------------

          1      2      3      4      5      6      7      8      9     10
         11     12     13     14     15     16     17     18     19     20
         21     22     23     24     25     26     27     28     29     30
 .........................................................................
   1  ****** ****** ****** ****** ****** ****** ****** ****** ****** ******
      ****** ****** ****** ****** ****** ****** ****** ****** ****** ******
      ****** ****** ****** ****** ****** ****** ****** ****** ****** ******
   2  ****** ****** ****** ****** ****** ****** ****** ****** ****** ******
      ****** ****** ****** ****** ****** ****** ****** ****** ****** ******
      ****** ****** ****** ****** ****** ****** ****** ****** ****** ******
   3  ****** ****** ****** ****** ****** ****** ****** ****** ****** ******
      ****** ****** ****** ****** ****** ****** ****** ****** ****** ******
      ****** ****** ****** ****** ****** ****** ****** ****** ****** ******
   4  ****** ****** ****** ****** ****** ****** ****** ****** ****** ******
      ****** ****** ****** ****** ****** ****** ****** ****** ****** ******
      ****** ****** ****** ****** ****** ****** ****** ****** ****** ******
   5  ****** ****** ****** ****** ****** ****** ****** ****** ****** ******
      ****** ****** ****** ****** ****** ****** ****** ****** ****** ******
      ****** ****** ****** ****** ****** ****** ****** ****** ****** ******
   6  ****** ****** ****** ****** ****** ****** ****** ****** ****** ******
      ****** ****** ****** ****** ****** ****** ****** ****** ****** ******
      ****** ****** ****** ****** ****** ****** ****** ****** ****** ******
   7  ****** ****** ****** ****** ****** ****** ****** ****** ****** ******
      ****** ****** ****** ****** ****** ****** ****** ****** ****** ******
      ****** ****** ****** ****** ****** ****** ****** ****** ****** ******
   8  ****** ****** ****** ****** ****** ****** ****** ****** ****** ******
      ****** ****** ****** ****** ****** ****** ****** ****** ****** ******
      ****** ****** ****** ****** ****** ****** ****** ****** ****** ******
   9  ****** ****** ****** ****** ****** ****** ****** ****** ****** ******
      ****** ****** ****** ****** ****** ****** ****** ****** ****** ******
      ****** ****** ****** ****** ****** ****** ****** ****** ****** ******
  10  ****** ****** ****** ****** ****** ****** ****** ****** ****** ******
      ****** ****** ****** ****** ****** ****** ****** ****** ****** ******
      ****** ****** ****** ****** ****** ****** ****** ****** ****** ******
  11  ****** ****** ****** ****** ****** ****** ****** ****** ****** ******
      ****** ****** ****** ****** ****** ****** ****** ****** ****** ******
      ****** ****** ****** ****** ****** ****** ****** ****** ****** ******
  12  ****** ****** ****** ****** ****** ****** ****** ****** ****** ******
      ****** ****** ****** ****** ****** ****** ****** ****** ****** ******
      ****** ****** ****** ****** ****** ****** ****** ****** ****** ******
  13  ****** ****** ****** ****** ****** ****** ****** ****** ****** ******
      ****** ****** ****** ****** ****** ****** ****** ****** ****** ******
      ****** ****** ****** ****** ****** ****** ****** ****** ****** ******
  14  ****** ****** ****** ****** ****** ****** ****** ****** ****** ******
      ****** ****** ****** ****** ****** ****** ****** ****** ****** ******
      ****** ****** ****** ****** ****** ****** ****** ****** ****** ******
  15  ****** ****** ****** ****** ****** ****** ****** ****** ****** ******
      ****** ****** ****** ****** ****** ****** ****** ****** ****** ******
      ****** ****** ****** ****** ****** ****** ****** ****** ****** ******
  16  ****** ****** ****** ****** ****** ****** ****** ****** ****** ******
      ****** ****** ****** ****** ****** ****** ****** ****** ****** ******
      ****** ****** ****** ****** ****** ****** ****** ****** ****** ******
  17  ****** ****** ****** ****** ****** ****** ****** ****** ****** ******
      ****** ****** ****** ****** ****** ****** ****** ****** ****** ******
      ****** ****** ****** ****** ****** ****** ****** ****** ****** ******
  18  ****** ****** ****** ****** ****** ****** ****** ****** ****** ******
      ****** ****** ****** ****** ****** ****** ****** ****** ****** ******
      ****** ****** ****** ****** ****** ****** ****** ****** ****** ******
  19  ****** ****** ****** ****** ****** ****** ****** ****** ****** ******
      ****** ****** ****** ****** ****** ****** ****** ****** ****** ******
      ****** ****** ****** ****** ****** ****** ****** ****** ****** ******
  20  ****** ****** ****** ****** ****** ****** ****** ****** ****** ******
      ****** ****** ****** ****** ****** ****** ****** ****** ****** ******
      ****** ****** ****** ****** ****** ****** ****** ****** ****** ******
  21  ****** ****** ****** ****** ****** ****** ****** ****** ****** ******
      ****** ****** ****** ****** ****** ****** ****** ****** ****** ******
      ****** ****** ****** ****** ****** ****** ****** ****** ****** ******
  22  ****** ****** ****** ****** ****** ****** ****** ****** ****** ******
      ****** ****** ****** ****** ****** ****** ****** ****** ****** ******
      ****** ****** ****** ****** ****** ****** ****** ****** ****** ******
  23  ****** ****** ****** ****** ****** ****** ****** ****** ****** ******
      ****** ****** ****** ****** ****** ****** ****** ****** ****** ******
      ****** ****** ****** ****** ****** ****** ****** ****** ****** ******
  24  ****** ****** ****** ****** ****** ****** ****** ****** ****** ******
      ****** ****** ****** ****** ****** ****** ****** ****** ****** ******
      ****** ****** ****** ****** ****** ****** ****** ****** ****** ******
  25  ****** ****** ****** ****** ****** ****** ****** ****** ****** ******
      ****** ****** ****** ****** ****** ****** ****** ****** ****** ******
      ****** ****** ****** ****** ****** ****** ****** ****** ****** ******

 HEAD WILL BE SAVED ON UNIT   51 AT END OF TIME STEP    1, STRESS PERIOD   10
1
  VOLUMETRIC BUDGET FOR ENTIRE MODEL AT END OF TIME STEP    1, STRESS PERIOD  10
  ------------------------------------------------------------------------------

     CUMULATIVE VOLUMES      L**3       RATES FOR THIS TIME STEP      L**3/T
     ------------------                 ------------------------

           IN:                                      IN:
           ---                                      ---
             STORAGE =    35002912.9547               STORAGE =           0.0000
       CONSTANT HEAD =    26281746.7413         CONSTANT HEAD =       32761.0651
               WELLS =           0.0000                 WELLS =           0.0000
            RECHARGE =    23901600.0000              RECHARGE =       55200.0000
      STREAM LEAKAGE =     6430277.4305        STREAM LEAKAGE =        7350.1759

            TOTAL IN =    91616537.1265              TOTAL IN =       95311.2410

          OUT:                                     OUT:
          ----                                     ----
             STORAGE =     2284866.8669               STORAGE =       15535.8474
       CONSTANT HEAD =           0.0000         CONSTANT HEAD =           0.0000
               WELLS =    27769396.1765                 WELLS =       30415.5489
            RECHARGE =           0.0000              RECHARGE =           0.0000
      STREAM LEAKAGE =    61562275.6850        STREAM LEAKAGE =       49359.8408

           TOTAL OUT =    91616538.7284             TOTAL OUT =       95311.2371

            IN - OUT =          -1.6019              IN - OUT =       3.8458E-03

 PERCENT DISCREPANCY =          -0.00     PERCENT DISCREPANCY =           0.00






         TIME SUMMARY AT END OF TIME STEP    1 IN STRESS PERIOD   10
                    SECONDS     MINUTES      HOURS       DAYS        YEARS
                    -----------------------------------------------------------
   TIME STEP LENGTH 7.86240E+06 1.31040E+05  2184.0      91.000     0.24914    
 STRESS PERIOD TIME 7.86240E+06 1.31040E+05  2184.0      91.000     0.24914    
         TOTAL TIME 7.88832E+07 1.31472E+06  21912.      913.00      2.4997    
1
1
                            STRESS PERIOD NO.   11, LENGTH =   91.00000    
                            -----------------------------------------------

                              NUMBER OF TIME STEPS =     1

                               MULTIPLIER FOR DELT =     1.500

                            INITIAL TIME STEP SIZE =   91.00000    

 WELL NO.  LAYER   ROW   COL   STRESS RATE         
 --------------------------------------------------
      1      1     10     17     -0.1009E+05
      2      1     11     19      -420.2    
      3      1     19     16     -0.1201E+05
      4      1      6     15      -7895.    

      4 WELLS

                 RECHARGE =   0.00000    

 REUSING STREAM SEGMENT DATA FROM LAST STRESS PERIOD
 
 SOLVING FOR HEAD 


     7 CALLS TO PCG ROUTINE FOR TIME STEP   1 IN STRESS PERIOD   11
    26 TOTAL ITERATIONS

 OUTPUT CONTROL FOR STRESS PERIOD   11   TIME STEP    1
    SAVE BUDGET
    SAVE HEAD FOR ALL LAYERS
    PRINT HEAD FOR ALL LAYERS
 UBDSV2 SAVING "STREAMFLOW OUT  " ON UNIT  50 AT TIME STEP  1, STRESS PERIOD  11



 STREAM LISTING     PERIOD     11   STEP        1

 LAYER ROW COL. STREAM  RCH.  FLOW INTO     FLOW TO   FLOW OUT OF   OVRLND.     DIRECT     STREAM       STREAM     STREAM     STREAM   STREAMBED  STREAMBED
                SEG.NO.  NO.  STRM. RCH.    AQUIFER    STRM. RCH.    RUNOFF     PRECIP       ET          HEAD       DEPTH      WIDTH   CONDCTNC.   GRADIENT

   1   13    1     1     1    1.0000E+05 -1.2902E+03   1.0129E+05  0.000E+00  0.000E+00  0.000E+00  4.84066E+01  1.452E-01  2.000E+01  2.000E+04 -6.451E-02
   1   13    2     1     2    1.0129E+05 -2.1946E+03   1.0348E+05  0.000E+00  0.000E+00  0.000E+00  4.79308E+01  1.467E-01  2.000E+01  2.000E+04 -1.097E-01
   1   14    3     1     3    1.0348E+05 -3.2650E+02   1.0381E+05  0.000E+00  0.000E+00  0.000E+00  4.74546E+01  1.478E-01  2.000E+01  2.000E+04 -1.633E-02
   1   15    4     1     4    1.0381E+05 -2.9780E+02   1.0411E+05  0.000E+00  0.000E+00  0.000E+00  4.69776E+01  1.481E-01  2.000E+01  2.000E+04 -1.489E-02
   1   16    5     1     5    1.0411E+05 -1.1991E+03   1.0531E+05  0.000E+00  0.000E+00  0.000E+00  4.65010E+01  1.487E-01  2.000E+01  2.000E+04 -5.995E-02
   1   16    6     1     6    1.0531E+05 -7.3642E+02   1.0604E+05  0.000E+00  0.000E+00  0.000E+00  4.60245E+01  1.495E-01  2.000E+01  2.000E+04 -3.682E-02
   1   16    7     1     7    1.0604E+05 -6.9328E+02   1.0674E+05  0.000E+00  0.000E+00  0.000E+00  4.55479E+01  1.501E-01  2.000E+01  2.000E+04 -3.466E-02
   1   16    8     1     8    1.0674E+05 -6.4555E+02   1.0738E+05  0.000E+00  0.000E+00  0.000E+00  4.50712E+01  1.507E-01  2.000E+01  2.000E+04 -3.228E-02
   1   16    9     1     9    1.0738E+05 -5.7468E+02   1.0796E+05  0.000E+00  0.000E+00  0.000E+00  4.45944E+01  1.512E-01  2.000E+01  2.000E+04 -2.873E-02
   1   16   10     1    10    1.0796E+05 -4.7025E+02   1.0843E+05  0.000E+00  0.000E+00  0.000E+00  4.41176E+01  1.517E-01  2.000E+01  2.000E+04 -2.351E-02
   1   16   11     1    11    1.0843E+05 -3.1463E+02   1.0874E+05  0.000E+00  0.000E+00  0.000E+00  4.36406E+01  1.520E-01  2.000E+01  2.000E+04 -1.573E-02
   1   16   12     1    12    1.0874E+05 -5.3587E+01   1.0880E+05  0.000E+00  0.000E+00  0.000E+00  4.31635E+01  1.521E-01  2.000E+01  2.000E+04 -2.679E-03
   1   15   13     1    13    1.0880E+05  8.8548E+01   1.0871E+05  0.000E+00  0.000E+00  0.000E+00  4.26862E+01  1.521E-01  2.000E+01  2.000E+04  4.427E-03
   1   14   14     1    14    1.0871E+05 -9.3043E+01   1.0880E+05  0.000E+00  0.000E+00  0.000E+00  4.22089E+01  1.521E-01  2.000E+01  2.000E+04 -4.652E-03
   1   13   15     1    15    1.0880E+05 -1.9398E+02   1.0900E+05  0.000E+00  0.000E+00  0.000E+00  4.17318E+01  1.522E-01  2.000E+01  2.000E+04 -9.699E-03
   1   12   16     1    16    1.0900E+05  3.0823E+02   1.0869E+05  0.000E+00  0.000E+00  0.000E+00  4.12545E+01  1.522E-01  2.000E+01  2.000E+04  1.541E-02
   1   12   17     1    17    1.0869E+05  1.0097E+03   1.0768E+05  0.000E+00  0.000E+00  0.000E+00  4.07766E+01  1.516E-01  2.000E+01  2.000E+04  5.049E-02
   1   12   18     1    18    1.0768E+05  4.5863E+02   1.0722E+05  0.000E+00  0.000E+00  0.000E+00  4.02988E+01  1.510E-01  2.000E+01  2.000E+04  2.293E-02
   1   12   19     1    19    1.0722E+05 -2.1383E+02   1.0743E+05  0.000E+00  0.000E+00  0.000E+00  3.98214E+01  1.509E-01  2.000E+01  2.000E+04 -1.069E-02
   1   13   20     1    20    1.0743E+05 -5.0744E+02   1.0794E+05  0.000E+00  0.000E+00  0.000E+00  3.93444E+01  1.512E-01  2.000E+01  2.000E+04 -2.537E-02
   1   14   21     1    21    1.0794E+05 -4.0232E+02   1.0834E+05  0.000E+00  0.000E+00  0.000E+00  3.88675E+01  1.516E-01  2.000E+01  2.000E+04 -2.012E-02
   1   14   22     1    22    1.0834E+05  5.0043E+03   1.0334E+05  0.000E+00  0.000E+00  0.000E+00  3.83883E+01  1.497E-01  2.000E+01  2.000E+04  2.502E-01
   1    9   30     2     1    5.0000E+04 -3.6945E+02   5.0369E+04  0.000E+00  0.000E+00  0.000E+00  4.02411E+01  1.161E-01  2.000E+01  2.000E+04 -1.847E-02
   1    9   29     2     2    5.0369E+04 -6.5408E+02   5.1024E+04  0.000E+00  0.000E+00  0.000E+00  3.99918E+01  1.168E-01  2.000E+01  2.000E+04 -3.270E-02
   1    9   28     2     3    5.1024E+04 -8.6876E+02   5.1892E+04  0.000E+00  0.000E+00  0.000E+00  3.97429E+01  1.179E-01  2.000E+01  2.000E+04 -4.344E-02
   1    9   27     2     4    5.1892E+04 -1.8206E+03   5.3713E+04  0.000E+00  0.000E+00  0.000E+00  3.94947E+01  1.197E-01  2.000E+01  2.000E+04 -9.103E-02
   1   10   26     2     5    5.3713E+04 -1.0319E+03   5.4745E+04  0.000E+00  0.000E+00  0.000E+00  3.92466E+01  1.216E-01  2.000E+01  2.000E+04 -5.159E-02
   1   11   25     2     6    5.4745E+04 -8.0990E+02   5.5555E+04  0.000E+00  0.000E+00  0.000E+00  3.89979E+01  1.229E-01  2.000E+01  2.000E+04 -4.049E-02
   1   12   24     2     7    5.5555E+04 -8.4541E+02   5.6400E+04  0.000E+00  0.000E+00  0.000E+00  3.87490E+01  1.240E-01  2.000E+01  2.000E+04 -4.227E-02
   1   13   23     2     8    5.6400E+04 -1.0335E+02   5.6503E+04  0.000E+00  0.000E+00  0.000E+00  3.84996E+01  1.246E-01  2.000E+01  2.000E+04 -5.167E-03
   1   14   22     2     9    5.6503E+04  2.2027E+03   5.4301E+04  0.000E+00  0.000E+00  0.000E+00  3.82482E+01  1.232E-01  2.000E+01  2.000E+04  1.101E-01
   1   14   22     3     1    1.5764E+05 -8.4457E+03   1.6608E+05  0.000E+00  0.000E+00  0.000E+00  3.77158E+01  1.602E-01  2.000E+01  2.000E+04 -4.223E-01
   1   15   23     3     2    1.6608E+05 -3.1346E+02   1.6640E+05  0.000E+00  0.000E+00  0.000E+00  3.68295E+01  1.628E-01  2.000E+01  2.000E+04 -1.567E-02
   1   15   24     3     3    1.6640E+05 -1.7280E+02   1.6657E+05  0.000E+00  0.000E+00  0.000E+00  3.59408E+01  1.630E-01  2.000E+01  2.000E+04 -8.640E-03
   1   15   25     3     4    1.6657E+05 -1.7946E+02   1.6675E+05  0.000E+00  0.000E+00  0.000E+00  3.50520E+01  1.631E-01  2.000E+01  2.000E+04 -8.973E-03
   1   15   26     3     5    1.6675E+05 -2.3926E+02   1.6699E+05  0.000E+00  0.000E+00  0.000E+00  3.41632E+01  1.632E-01  2.000E+01  2.000E+04 -1.196E-02
   1   16   27     3     6    1.6699E+05 -2.4772E+02   1.6724E+05  0.000E+00  0.000E+00  0.000E+00  3.32745E+01  1.633E-01  2.000E+01  2.000E+04 -1.239E-02
   1   17   28     3     7    1.6724E+05 -1.2081E+03   1.6844E+05  0.000E+00  0.000E+00  0.000E+00  3.23860E+01  1.638E-01  2.000E+01  2.000E+04 -6.041E-02
   1   18   29     3     8    1.6844E+05 -2.4102E+03   1.7086E+05  0.000E+00  0.000E+00  0.000E+00  3.14982E+01  1.648E-01  2.000E+01  2.000E+04 -1.205E-01
   1   18   30     3     9    1.7086E+05 -2.8385E+03   1.7369E+05  0.000E+00  0.000E+00  0.000E+00  3.06108E+01  1.664E-01  2.000E+01  2.000E+04 -1.419E-01



1
              HEAD IN LAYER   1 AT END OF TIME STEP   1 IN STRESS PERIOD   11
  ---------------------------------------------------------------------------

          1      2      3      4      5      6      7      8      9     10
         11     12     13     14     15     16     17     18     19     20
         21     22     23     24     25     26     27     28     29     30
 .........................................................................
   1  ****** ****** ****** ****** ****** ****** ****** ****** ****** ******
      ****** ****** ****** ****** ****** ****** ****** ****** ****** ******
      ****** ****** ****** ****** ****** ****** ****** ****** ****** ******
   2  ****** ****** ****** ****** ****** ****** ****** ****** ****** ******
      ****** ****** ****** ****** ****** ****** ****** ****** ****** ******
      ****** ****** ****** ****** ****** ****** ****** ****** ****** ******
   3  ****** ****** ****** ****** ****** ****** ****** ****** ****** ******
      ****** ****** ****** ****** ****** ****** ****** ****** ****** ******
      ****** ****** ****** ****** ****** ****** ****** ****** ****** ******
   4  ****** ****** ****** ****** ****** ****** ****** ****** ****** ******
      ****** ****** ****** ****** ****** ****** ****** ****** ****** ******
      ****** ****** ****** ****** ****** ****** ****** ****** ****** ******
   5  ****** ****** ****** ****** ****** ****** ****** ****** ****** ******
      ****** ****** ****** ****** ****** ****** ****** ****** ****** ******
      ****** ****** ****** ****** ****** ****** ****** ****** ****** ******
   6  ****** ****** ****** ****** ****** ****** ****** ****** ****** ******
      ****** ****** ****** ****** ****** ****** ****** ****** ****** ******
      ****** ****** ****** ****** ****** ****** ****** ****** ****** ******
   7  ****** ****** ****** ****** ****** ****** ****** ****** ****** ******
      ****** ****** ****** ****** ****** ****** ****** ****** ****** ******
      ****** ****** ****** ****** ****** ****** ****** ****** ****** ******
   8  ****** ****** ****** ****** ****** ****** ****** ****** ****** ******
      ****** ****** ****** ****** ****** ****** ****** ****** ****** ******
      ****** ****** ****** ****** ****** ****** ****** ****** ****** ******
   9  ****** ****** ****** ****** ****** ****** ****** ****** ****** ******
      ****** ****** ****** ****** ****** ****** ****** ****** ****** ******
      ****** ****** ****** ****** ****** ****** ****** ****** ****** ******
  10  ****** ****** ****** ****** ****** ****** ****** ****** ****** ******
      ****** ****** ****** ****** ****** ****** ****** ****** ****** ******
      ****** ****** ****** ****** ****** ****** ****** ****** ****** ******
  11  ****** ****** ****** ****** ****** ****** ****** ****** ****** ******
      ****** ****** ****** ****** ****** ****** ****** ****** ****** ******
      ****** ****** ****** ****** ****** ****** ****** ****** ****** ******
  12  ****** ****** ****** ****** ****** ****** ****** ****** ****** ******
      ****** ****** ****** ****** ****** ****** ****** ****** ****** ******
      ****** ****** ****** ****** ****** ****** ****** ****** ****** ******
  13  ****** ****** ****** ****** ****** ****** ****** ****** ****** ******
      ****** ****** ****** ****** ****** ****** ****** ****** ****** ******
      ****** ****** ****** ****** ****** ****** ****** ****** ****** ******
  14  ****** ****** ****** ****** ****** ****** ****** ****** ****** ******
      ****** ****** ****** ****** ****** ****** ****** ****** ****** ******
      ****** ****** ****** ****** ****** ****** ****** ****** ****** ******
  15  ****** ****** ****** ****** ****** ****** ****** ****** ****** ******
      ****** ****** ****** ****** ****** ****** ****** ****** ****** ******
      ****** ****** ****** ****** ****** ****** ****** ****** ****** ******
  16  ****** ****** ****** ****** ****** ****** ****** ****** ****** ******
      ****** ****** ****** ****** ****** ****** ****** ****** ****** ******
      ****** ****** ****** ****** ****** ****** ****** ****** ****** ******
  17  ****** ****** ****** ****** ****** ****** ****** ****** ****** ******
      ****** ****** ****** ****** ****** ****** ****** ****** ****** ******
      ****** ****** ****** ****** ****** ****** ****** ****** ****** ******
  18  ****** ****** ****** ****** ****** ****** ****** ****** ****** ******
      ****** ****** ****** ****** ****** ****** ****** ****** ****** ******
      ****** ****** ****** ****** ****** ****** ****** ****** ****** ******
  19  ****** ****** ****** ****** ****** ****** ****** ****** ****** ******
      ****** ****** ****** ****** ****** ****** ****** ****** ****** ******
      ****** ****** ****** ****** ****** ****** ****** ****** ****** ******
  20  ****** ****** ****** ****** ****** ****** ****** ****** ****** ******
      ****** ****** ****** ****** ****** ****** ****** ****** ****** ******
      ****** ****** ****** ****** ****** ****** ****** ****** ****** ******
  21  ****** ****** ****** ****** ****** ****** ****** ****** ****** ******
      ****** ****** ****** ****** ****** ****** ****** ****** ****** ******
      ****** ****** ****** ****** ****** ****** ****** ****** ****** ******
  22  ****** ****** ****** ****** ****** ****** ****** ****** ****** ******
      ****** ****** ****** ****** ****** ****** ****** ****** ****** ******
      ****** ****** ****** ****** ****** ****** ****** ****** ****** ******
  23  ****** ****** ****** ****** ****** ****** ****** ****** ****** ******
      ****** ****** ****** ****** ****** ****** ****** ****** ****** ******
      ****** ****** ****** ****** ****** ****** ****** ****** ****** ******
  24  ****** ****** ****** ****** ****** ****** ****** ****** ****** ******
      ****** ****** ****** ****** ****** ****** ****** ****** ****** ******
      ****** ****** ****** ****** ****** ****** ****** ****** ****** ******
  25  ****** ****** ****** ****** ****** ****** ****** ****** ****** ******
      ****** ****** ****** ****** ****** ****** ****** ****** ****** ******
      ****** ****** ****** ****** ****** ****** ****** ****** ****** ******

 HEAD WILL BE SAVED ON UNIT   51 AT END OF TIME STEP    1, STRESS PERIOD   11
1
  VOLUMETRIC BUDGET FOR ENTIRE MODEL AT END OF TIME STEP    1, STRESS PERIOD  11
  ------------------------------------------------------------------------------

     CUMULATIVE VOLUMES      L**3       RATES FOR THIS TIME STEP      L**3/T
     ------------------                 ------------------------

           IN:                                      IN:
           ---                                      ---
             STORAGE =    36645431.3933               STORAGE =       18049.6532
       CONSTANT HEAD =    29563166.8509         CONSTANT HEAD =       36059.5616
               WELLS =           0.0000                 WELLS =           0.0000
            RECHARGE =    23901600.0000              RECHARGE =           0.0000
      STREAM LEAKAGE =     7255844.5241        STREAM LEAKAGE =        9072.1659

            TOTAL IN =    97366042.7683              TOTAL IN =       63181.3807

          OUT:                                     OUT:
          ----                                     ----
             STORAGE =     2284866.8669               STORAGE =           0.0000
       CONSTANT HEAD =           0.0000         CONSTANT HEAD =           0.0000
               WELLS =    30537211.1294                 WELLS =       30415.5489
            RECHARGE =           0.0000              RECHARGE =           0.0000
      STREAM LEAKAGE =    64543966.8298        STREAM LEAKAGE =       32765.8368

           TOTAL OUT =    97366044.8262             TOTAL OUT =       63181.3857

            IN - OUT =          -2.0578              IN - OUT =      -5.0101E-03

 PERCENT DISCREPANCY =          -0.00     PERCENT DISCREPANCY =          -0.00






         TIME SUMMARY AT END OF TIME STEP    1 IN STRESS PERIOD   11
                    SECONDS     MINUTES      HOURS       DAYS        YEARS
                    -----------------------------------------------------------
   TIME STEP LENGTH 7.86240E+06 1.31040E+05  2184.0      91.000     0.24914    
 STRESS PERIOD TIME 7.86240E+06 1.31040E+05  2184.0      91.000     0.24914    
         TOTAL TIME 8.67456E+07 1.44576E+06  24096.      1004.0      2.7488    
1
1
                            STRESS PERIOD NO.   12, LENGTH =   91.00000    
                            -----------------------------------------------

                              NUMBER OF TIME STEPS =     1

                               MULTIPLIER FOR DELT =     1.500

                            INITIAL TIME STEP SIZE =   91.00000    

 WELL NO.  LAYER   ROW   COL   STRESS RATE         
 --------------------------------------------------
      1      1     10     17     -0.1009E+05
      2      1     11     19      -420.2    
      3      1     19     16     -0.1201E+05
      4      1      6     15      -7895.    

      4 WELLS

                 RECHARGE =  1.000000E-03

 REUSING STREAM SEGMENT DATA FROM LAST STRESS PERIOD
 
 SOLVING FOR HEAD 


     7 CALLS TO PCG ROUTINE FOR TIME STEP   1 IN STRESS PERIOD   12
    24 TOTAL ITERATIONS

 OUTPUT CONTROL FOR STRESS PERIOD   12   TIME STEP    1
    SAVE BUDGET
    SAVE HEAD FOR ALL LAYERS
    PRINT HEAD FOR ALL LAYERS
 UBDSV2 SAVING "STREAMFLOW OUT  " ON UNIT  50 AT TIME STEP  1, STRESS PERIOD  12



 STREAM LISTING     PERIOD     12   STEP        1

 LAYER ROW COL. STREAM  RCH.  FLOW INTO     FLOW TO   FLOW OUT OF   OVRLND.     DIRECT     STREAM       STREAM     STREAM     STREAM   STREAMBED  STREAMBED
                SEG.NO.  NO.  STRM. RCH.    AQUIFER    STRM. RCH.    RUNOFF     PRECIP       ET          HEAD       DEPTH      WIDTH   CONDCTNC.   GRADIENT

   1   13    1     1     1    1.0000E+05 -1.4317E+03   1.0143E+05  0.000E+00  0.000E+00  0.000E+00  4.84066E+01  1.453E-01  2.000E+01  2.000E+04 -7.159E-02
   1   13    2     1     2    1.0143E+05 -2.3466E+03   1.0378E+05  0.000E+00  0.000E+00  0.000E+00  4.79310E+01  1.469E-01  2.000E+01  2.000E+04 -1.173E-01
   1   14    3     1     3    1.0378E+05 -4.0456E+02   1.0418E+05  0.000E+00  0.000E+00  0.000E+00  4.74549E+01  1.481E-01  2.000E+01  2.000E+04 -2.023E-02
   1   15    4     1     4    1.0418E+05 -3.7975E+02   1.0456E+05  0.000E+00  0.000E+00  0.000E+00  4.69780E+01  1.484E-01  2.000E+01  2.000E+04 -1.899E-02
   1   16    5     1     5    1.0456E+05 -1.4085E+03   1.0597E+05  0.000E+00  0.000E+00  0.000E+00  4.65014E+01  1.492E-01  2.000E+01  2.000E+04 -7.043E-02
   1   16    6     1     6    1.0597E+05 -8.6647E+02   1.0684E+05  0.000E+00  0.000E+00  0.000E+00  4.60251E+01  1.501E-01  2.000E+01  2.000E+04 -4.332E-02
   1   16    7     1     7    1.0684E+05 -8.1822E+02   1.0766E+05  0.000E+00  0.000E+00  0.000E+00  4.55486E+01  1.509E-01  2.000E+01  2.000E+04 -4.091E-02
   1   16    8     1     8    1.0766E+05 -7.6945E+02   1.0843E+05  0.000E+00  0.000E+00  0.000E+00  4.50720E+01  1.515E-01  2.000E+01  2.000E+04 -3.847E-02
   1   16    9     1     9    1.0843E+05 -6.9905E+02   1.0912E+05  0.000E+00  0.000E+00  0.000E+00  4.45953E+01  1.521E-01  2.000E+01  2.000E+04 -3.495E-02
   1   16   10     1    10    1.0912E+05 -5.9601E+02   1.0972E+05  0.000E+00  0.000E+00  0.000E+00  4.41186E+01  1.527E-01  2.000E+01  2.000E+04 -2.980E-02
   1   16   11     1    11    1.0972E+05 -4.4269E+02   1.1016E+05  0.000E+00  0.000E+00  0.000E+00  4.36418E+01  1.531E-01  2.000E+01  2.000E+04 -2.213E-02
   1   16   12     1    12    1.1016E+05 -2.5474E+02   1.1042E+05  0.000E+00  0.000E+00  0.000E+00  4.31648E+01  1.534E-01  2.000E+01  2.000E+04 -1.274E-02
   1   15   13     1    13    1.1042E+05 -1.2735E+02   1.1055E+05  0.000E+00  0.000E+00  0.000E+00  4.26877E+01  1.536E-01  2.000E+01  2.000E+04 -6.368E-03
   1   14   14     1    14    1.1055E+05 -3.0917E+02   1.1085E+05  0.000E+00  0.000E+00  0.000E+00  4.22106E+01  1.537E-01  2.000E+01  2.000E+04 -1.546E-02
   1   13   15     1    15    1.1085E+05 -4.0254E+02   1.1126E+05  0.000E+00  0.000E+00  0.000E+00  4.17336E+01  1.540E-01  2.000E+01  2.000E+04 -2.013E-02
   1   12   16     1    16    1.1126E+05  1.2660E+02   1.1113E+05  0.000E+00  0.000E+00  0.000E+00  4.12564E+01  1.542E-01  2.000E+01  2.000E+04  6.330E-03
   1   12   17     1    17    1.1113E+05  8.5718E+02   1.1027E+05  0.000E+00  0.000E+00  0.000E+00  4.07788E+01  1.538E-01  2.000E+01  2.000E+04  4.286E-02
   1   12   18     1    18    1.1027E+05  3.0377E+02   1.0997E+05  0.000E+00  0.000E+00  0.000E+00  4.03010E+01  1.533E-01  2.000E+01  2.000E+04  1.519E-02
   1   12   19     1    19    1.0997E+05 -4.0537E+02   1.1037E+05  0.000E+00  0.000E+00  0.000E+00  3.98238E+01  1.533E-01  2.000E+01  2.000E+04 -2.027E-02
   1   13   20     1    20    1.1037E+05 -7.1735E+02   1.1109E+05  0.000E+00  0.000E+00  0.000E+00  3.93470E+01  1.538E-01  2.000E+01  2.000E+04 -3.587E-02
   1   14   21     1    21    1.1109E+05 -5.9606E+02   1.1169E+05  0.000E+00  0.000E+00  0.000E+00  3.88702E+01  1.543E-01  2.000E+01  2.000E+04 -2.980E-02
   1   14   22     1    22    1.1169E+05  4.9524E+03   1.0674E+05  0.000E+00  0.000E+00  0.000E+00  3.83911E+01  1.525E-01  2.000E+01  2.000E+04  2.476E-01
   1    9   30     2     1    5.0000E+04 -5.4569E+02   5.0546E+04  0.000E+00  0.000E+00  0.000E+00  4.02412E+01  1.162E-01  2.000E+01  2.000E+04 -2.728E-02
   1    9   29     2     2    5.0546E+04 -8.2826E+02   5.1374E+04  0.000E+00  0.000E+00  0.000E+00  3.99922E+01  1.172E-01  2.000E+01  2.000E+04 -4.141E-02
   1    9   28     2     3    5.1374E+04 -1.0394E+03   5.2413E+04  0.000E+00  0.000E+00  0.000E+00  3.97435E+01  1.185E-01  2.000E+01  2.000E+04 -5.197E-02
   1    9   27     2     4    5.2413E+04 -2.0292E+03   5.4443E+04  0.000E+00  0.000E+00  0.000E+00  3.94956E+01  1.206E-01  2.000E+01  2.000E+04 -1.015E-01
   1   10   26     2     5    5.4443E+04 -1.2612E+03   5.5704E+04  0.000E+00  0.000E+00  0.000E+00  3.92478E+01  1.228E-01  2.000E+01  2.000E+04 -6.306E-02
   1   11   25     2     6    5.5704E+04 -1.0354E+03   5.6739E+04  0.000E+00  0.000E+00  0.000E+00  3.89993E+01  1.243E-01  2.000E+01  2.000E+04 -5.177E-02
   1   12   24     2     7    5.6739E+04 -1.0512E+03   5.7790E+04  0.000E+00  0.000E+00  0.000E+00  3.87507E+01  1.257E-01  2.000E+01  2.000E+04 -5.256E-02
   1   13   23     2     8    5.7790E+04 -1.8093E+02   5.7971E+04  0.000E+00  0.000E+00  0.000E+00  3.85015E+01  1.265E-01  2.000E+01  2.000E+04 -9.046E-03
   1   14   22     2     9    5.7971E+04  2.1339E+03   5.5837E+04  0.000E+00  0.000E+00  0.000E+00  3.82502E+01  1.252E-01  2.000E+01  2.000E+04  1.067E-01
   1   14   22     3     1    1.6257E+05 -8.4958E+03   1.7107E+05  0.000E+00  0.000E+00  0.000E+00  3.77187E+01  1.632E-01  2.000E+01  2.000E+04 -4.248E-01
   1   15   23     3     2    1.7107E+05 -3.8545E+02   1.7145E+05  0.000E+00  0.000E+00  0.000E+00  3.68324E+01  1.658E-01  2.000E+01  2.000E+04 -1.927E-02
   1   15   24     3     3    1.7145E+05 -2.3786E+02   1.7169E+05  0.000E+00  0.000E+00  0.000E+00  3.59437E+01  1.659E-01  2.000E+01  2.000E+04 -1.189E-02
   1   15   25     3     4    1.7169E+05 -2.4580E+02   1.7194E+05  0.000E+00  0.000E+00  0.000E+00  3.50550E+01  1.661E-01  2.000E+01  2.000E+04 -1.229E-02
   1   15   26     3     5    1.7194E+05 -3.1673E+02   1.7225E+05  0.000E+00  0.000E+00  0.000E+00  3.41663E+01  1.663E-01  2.000E+01  2.000E+04 -1.584E-02
   1   16   27     3     6    1.7225E+05 -3.3448E+02   1.7259E+05  0.000E+00  0.000E+00  0.000E+00  3.32776E+01  1.664E-01  2.000E+01  2.000E+04 -1.672E-02
   1   17   28     3     7    1.7259E+05 -1.4288E+03   1.7402E+05  0.000E+00  0.000E+00  0.000E+00  3.23892E+01  1.669E-01  2.000E+01  2.000E+04 -7.144E-02
   1   18   29     3     8    1.7402E+05 -2.6107E+03   1.7663E+05  0.000E+00  0.000E+00  0.000E+00  3.15014E+01  1.681E-01  2.000E+01  2.000E+04 -1.305E-01
   1   18   30     3     9    1.7663E+05 -3.0066E+03   1.7964E+05  0.000E+00  0.000E+00  0.000E+00  3.06142E+01  1.697E-01  2.000E+01  2.000E+04 -1.503E-01



1
              HEAD IN LAYER   1 AT END OF TIME STEP   1 IN STRESS PERIOD   12
  ---------------------------------------------------------------------------

          1      2      3      4      5      6      7      8      9     10
         11     12     13     14     15     16     17     18     19     20
         21     22     23     24     25     26     27     28     29     30
 .........................................................................
   1  ****** ****** ****** ****** ****** ****** ****** ****** ****** ******
      ****** ****** ****** ****** ****** ****** ****** ****** ****** ******
      ****** ****** ****** ****** ****** ****** ****** ****** ****** ******
   2  ****** ****** ****** ****** ****** ****** ****** ****** ****** ******
      ****** ****** ****** ****** ****** ****** ****** ****** ****** ******
      ****** ****** ****** ****** ****** ****** ****** ****** ****** ******
   3  ****** ****** ****** ****** ****** ****** ****** ****** ****** ******
      ****** ****** ****** ****** ****** ****** ****** ****** ****** ******
      ****** ****** ****** ****** ****** ****** ****** ****** ****** ******
   4  ****** ****** ****** ****** ****** ****** ****** ****** ****** ******
      ****** ****** ****** ****** ****** ****** ****** ****** ****** ******
      ****** ****** ****** ****** ****** ****** ****** ****** ****** ******
   5  ****** ****** ****** ****** ****** ****** ****** ****** ****** ******
      ****** ****** ****** ****** ****** ****** ****** ****** ****** ******
      ****** ****** ****** ****** ****** ****** ****** ****** ****** ******
   6  ****** ****** ****** ****** ****** ****** ****** ****** ****** ******
      ****** ****** ****** ****** ****** ****** ****** ****** ****** ******
      ****** ****** ****** ****** ****** ****** ****** ****** ****** ******
   7  ****** ****** ****** ****** ****** ****** ****** ****** ****** ******
      ****** ****** ****** ****** ****** ****** ****** ****** ****** ******
      ****** ****** ****** ****** ****** ****** ****** ****** ****** ******
   8  ****** ****** ****** ****** ****** ****** ****** ****** ****** ******
      ****** ****** ****** ****** ****** ****** ****** ****** ****** ******
      ****** ****** ****** ****** ****** ****** ****** ****** ****** ******
   9  ****** ****** ****** ****** ****** ****** ****** ****** ****** ******
      ****** ****** ****** ****** ****** ****** ****** ****** ****** ******
      ****** ****** ****** ****** ****** ****** ****** ****** ****** ******
  10  ****** ****** ****** ****** ****** ****** ****** ****** ****** ******
      ****** ****** ****** ****** ****** ****** ****** ****** ****** ******
      ****** ****** ****** ****** ****** ****** ****** ****** ****** ******
  11  ****** ****** ****** ****** ****** ****** ****** ****** ****** ******
      ****** ****** ****** ****** ****** ****** ****** ****** ****** ******
      ****** ****** ****** ****** ****** ****** ****** ****** ****** ******
  12  ****** ****** ****** ****** ****** ****** ****** ****** ****** ******
      ****** ****** ****** ****** ****** ****** ****** ****** ****** ******
      ****** ****** ****** ****** ****** ****** ****** ****** ****** ******
  13  ****** ****** ****** ****** ****** ****** ****** ****** ****** ******
      ****** ****** ****** ****** ****** ****** ****** ****** ****** ******
      ****** ****** ****** ****** ****** ****** ****** ****** ****** ******
  14  ****** ****** ****** ****** ****** ****** ****** ****** ****** ******
      ****** ****** ****** ****** ****** ****** ****** ****** ****** ******
      ****** ****** ****** ****** ****** ****** ****** ****** ****** ******
  15  ****** ****** ****** ****** ****** ****** ****** ****** ****** ******
      ****** ****** ****** ****** ****** ****** ****** ****** ****** ******
      ****** ****** ****** ****** ****** ****** ****** ****** ****** ******
  16  ****** ****** ****** ****** ****** ****** ****** ****** ****** ******
      ****** ****** ****** ****** ****** ****** ****** ****** ****** ******
      ****** ****** ****** ****** ****** ****** ****** ****** ****** ******
  17  ****** ****** ****** ****** ****** ****** ****** ****** ****** ******
      ****** ****** ****** ****** ****** ****** ****** ****** ****** ******
      ****** ****** ****** ****** ****** ****** ****** ****** ****** ******
  18  ****** ****** ****** ****** ****** ****** ****** ****** ****** ******
      ****** ****** ****** ****** ****** ****** ****** ****** ****** ******
      ****** ****** ****** ****** ****** ****** ****** ****** ****** ******
  19  ****** ****** ****** ****** ****** ****** ****** ****** ****** ******
      ****** ****** ****** ****** ****** ****** ****** ****** ****** ******
      ****** ****** ****** ****** ****** ****** ****** ****** ****** ******
  20  ****** ****** ****** ****** ****** ****** ****** ****** ****** ******
      ****** ****** ****** ****** ****** ****** ****** ****** ****** ******
      ****** ****** ****** ****** ****** ****** ****** ****** ****** ******
  21  ****** ****** ****** ****** ****** ****** ****** ****** ****** ******
      ****** ****** ****** ****** ****** ****** ****** ****** ****** ******
      ****** ****** ****** ****** ****** ****** ****** ****** ****** ******
  22  ****** ****** ****** ****** ****** ****** ****** ****** ****** ******
      ****** ****** ****** ****** ****** ****** ****** ****** ****** ******
      ****** ****** ****** ****** ****** ****** ****** ****** ****** ******
  23  ****** ****** ****** ****** ****** ****** ****** ****** ****** ******
      ****** ****** ****** ****** ****** ****** ****** ****** ****** ******
      ****** ****** ****** ****** ****** ****** ****** ****** ****** ******
  24  ****** ****** ****** ****** ****** ****** ****** ****** ****** ******
      ****** ****** ****** ****** ****** ****** ****** ****** ****** ******
      ****** ****** ****** ****** ****** ****** ****** ****** ****** ******
  25  ****** ****** ****** ****** ****** ****** ****** ****** ****** ******
      ****** ****** ****** ****** ****** ****** ****** ****** ****** ******
      ****** ****** ****** ****** ****** ****** ****** ****** ****** ******

 HEAD WILL BE SAVED ON UNIT   51 AT END OF TIME STEP    1, STRESS PERIOD   12
1
  VOLUMETRIC BUDGET FOR ENTIRE MODEL AT END OF TIME STEP    1, STRESS PERIOD  12
  ------------------------------------------------------------------------------

     CUMULATIVE VOLUMES      L**3       RATES FOR THIS TIME STEP      L**3/T
     ------------------                 ------------------------

           IN:                                      IN:
           ---                                      ---
             STORAGE =    36647716.5196               STORAGE =          25.1113
       CONSTANT HEAD =    32782053.3883         CONSTANT HEAD =       35372.3795
               WELLS =           0.0000                 WELLS =           0.0000
            RECHARGE =    26413200.0000              RECHARGE =       27600.0000
      STREAM LEAKAGE =     8017866.5735        STREAM LEAKAGE =        8373.8687

            TOTAL IN =   103860836.4814              TOTAL IN =       71371.3595

          OUT:                                     OUT:
          ----                                     ----
             STORAGE =     2553009.9390               STORAGE =        2946.6272
       CONSTANT HEAD =           0.0000         CONSTANT HEAD =           0.0000
               WELLS =    33305026.0824                 WELLS =       30415.5489
            RECHARGE =           0.0000              RECHARGE =           0.0000
      STREAM LEAKAGE =    68002802.4301        STREAM LEAKAGE =       38009.1824

           TOTAL OUT =   103860838.4515             TOTAL OUT =       71371.3585

            IN - OUT =          -1.9700              IN - OUT =       9.6470E-04

 PERCENT DISCREPANCY =          -0.00     PERCENT DISCREPANCY =           0.00






         TIME SUMMARY AT END OF TIME STEP    1 IN STRESS PERIOD   12
                    SECONDS     MINUTES      HOURS       DAYS        YEARS
                    -----------------------------------------------------------
   TIME STEP LENGTH 7.86240E+06 1.31040E+05  2184.0      91.000     0.24914    
 STRESS PERIOD TIME 7.86240E+06 1.31040E+05  2184.0      91.000     0.24914    
         TOTAL TIME 9.46080E+07 1.57680E+06  26280.      1095.0      2.9979    
1

 Run end date and time (yyyy/mm/dd hh:mm:ss): 2019/03/27 18:04:33
 Elapsed run time:  0.079 Seconds

