                                  MODFLOW-2005     
      U.S. GEOLOGICAL SURVEY MODULAR FINITE-DIFFERENCE GROUND-WATER FLOW MODEL
                            VERSION 1.11.00 8/8/2013

 LIST FILE: supply2.lst
                         UNIT   10

 OPENING ..\data\supply.dis
 FILE TYPE:DIS   UNIT   11   STATUS:OLD    
 FORMAT:FORMATTED              ACCESS:SEQUENTIAL          

 OPENING ..\data\supply.ba6
 FILE TYPE:BAS6   UNIT   12   STATUS:OLD    
 FORMAT:FORMATTED              ACCESS:SEQUENTIAL          

 OPENING ..\data\supply.bc6
 FILE TYPE:BCF6   UNIT   13   STATUS:OLD    
 FORMAT:FORMATTED              ACCESS:SEQUENTIAL          

 OPENING ..\data\supply.rch
 FILE TYPE:RCH   UNIT   15   STATUS:OLD    
 FORMAT:FORMATTED              ACCESS:SEQUENTIAL          

 OPENING ..\data\supply2.sfr
 FILE TYPE:SFR   UNIT   16   STATUS:OLD    
 FORMAT:FORMATTED              ACCESS:SEQUENTIAL          

 OPENING ..\data\supply.oc
 FILE TYPE:OC   UNIT   17   STATUS:OLD    
 FORMAT:FORMATTED              ACCESS:SEQUENTIAL          

 OPENING ..\data\supply.pcg
 FILE TYPE:PCG   UNIT   18   STATUS:OLD    
 FORMAT:FORMATTED              ACCESS:SEQUENTIAL          

 OPENING supply2.wel
 FILE TYPE:WEL   UNIT   19   STATUS:OLD    
 FORMAT:FORMATTED              ACCESS:SEQUENTIAL          

 OPENING supply2sf.bin
 FILE TYPE:DATA(BINARY)   UNIT   50   STATUS:UNKNOWN
 FORMAT:BINARY                 ACCESS:SEQUENTIAL          

 OPENING supply2hd.bin
 FILE TYPE:DATA(BINARY)   UNIT   51   STATUS:UNKNOWN
 FORMAT:BINARY                 ACCESS:SEQUENTIAL          

 BAS -- BASIC PACKAGE, VERSION 7, 5/2/2005 INPUT READ FROM UNIT   12
 
 MODFLOW was compiled using uniform precision
 Precision of REAL and DOUBLE PRECISION variables:          15

 DISCRETIZATION INPUT DATA READ FROM UNIT   11
    1 LAYERS        25 ROWS        30 COLUMNS
   12 STRESS PERIOD(S) IN SIMULATION
 MODEL TIME UNIT IS DAYS
 MODEL LENGTH UNIT IS UNDEFINED
  Confining bed flag for each layer:
   0

                     DELR =   200.000    

                     DELC =   200.000    

 TOP ELEVATION OF LAYER 1 =  100.0000    

   MODEL LAYER BOTTOM EL. =   0.00000     FOR LAYER   1


 STRESS PERIOD     LENGTH       TIME STEPS     MULTIPLIER FOR DELT    SS FLAG
 ----------------------------------------------------------------------------
        1         92.00000          1                    1.500         TR
        2         91.00000          1                    1.500         TR
        3         91.00000          1                    1.500         TR
        4         91.00000          1                    1.500         TR
        5         92.00000          1                    1.500         TR
        6         91.00000          1                    1.500         TR
        7         91.00000          1                    1.500         TR
        8         91.00000          1                    1.500         TR
        9         92.00000          1                    1.500         TR
       10         91.00000          1                    1.500         TR
       11         91.00000          1                    1.500         TR
       12         91.00000          1                    1.500         TR

 TRANSIENT SIMULATION



 
 #MODOFC transient water supply sample problem                                   
 #                                                                               
 THE FREE FORMAT OPTION HAS BEEN SELECTED



                     BOUNDARY ARRAY FOR LAYER   1
 READING ON UNIT   12 WITH FORMAT: (20I4)              

 AQUIFER HEAD WILL BE SET TO   0.0000     AT ALL NO-FLOW NODES (IBOUND=0).



                       INITIAL HEAD FOR LAYER   1
 READING ON UNIT   12 WITH FORMAT: (10F13.0)           

 OUTPUT CONTROL IS SPECIFIED ONLY AT TIME STEPS FOR WHICH OUTPUT IS DESIRED
 COMPACT CELL-BY-CELL BUDGET FILES WILL BE WRITTEN
 HEAD PRINT FORMAT CODE IS  18    DRAWDOWN PRINT FORMAT CODE IS   0
 HEADS WILL BE SAVED ON UNIT   51    DRAWDOWNS WILL BE SAVED ON UNIT    0

 BCF -- BLOCK-CENTERED FLOW PACKAGE, VERSION 7, 5/2/2005
         INPUT READ FROM UNIT 13
 TRANSIENT SIMULATION
 HEAD AT CELLS THAT CONVERT TO DRY=   0.0000    
 WETTING CAPABILITY IS NOT ACTIVE
      LAYER  LAYER-TYPE CODE     INTERBLOCK T
      --------------------------------------------
         1            0          0 -- HARMONIC    

 COLUMN TO ROW ANISOTROPY =  1.000000    

     PRIMARY STORAGE COEF =  5.000000E-02 FOR LAYER   1

     TRANSMIS. ALONG ROWS =   5000.00     FOR LAYER   1

 WEL -- WELL PACKAGE, VERSION 7, 5/2/2005 INPUT READ FROM UNIT   19
 # Well package input file written by MMProc
 No named parameters
 MAXIMUM OF      5 ACTIVE WELLS AT ONE TIME


     0 Well parameters

 RCH -- RECHARGE PACKAGE, VERSION 7, 5/2/2005 INPUT READ FROM UNIT   15
 No named parameters
 OPTION 1 -- RECHARGE TO TOP LAYER


     0 Recharge parameters

 SFR7 -- STREAMFLOW ROUTING PACKAGE, VERSION 1.0.7, 2013-01-15
         INPUT READ FROM UNIT  16
 #  Supply2 test problem for GWM-VI
 #  The eighth entry in the first data line is ISTCB2 -
 #    Setting this to a negative number indicates that
 #    streamflows out of the reach will be saved to a
 #    binary file.  The absolute value of ISTCB2 is the
 #    unit to which unformatted flows will be written.
 #
 No named parameters
 Segment information will not be 
 read by reach
 No named parameters
 No specifed inflow files


 NUMBER OF STREAM REACHES IS   40

 NUMBER OF STREAM SEGMENTS IS    3

 NUMBER OF STREAM PARAMETERS IS    0

 NUMBER OF STREAM SEGMENTS DEFINED USING PARAMETERS IS              0

 MAXIMUM ERROR FOR STREAM LEAKAGE RATES IS  1.00E-04

 CONSTANT FOR MANNINGS EQUATION IS  1.2839E+05





   STREAM NETWORK DESCRIPTION: 

   LAYER    ROW    COL   SEGMENT   REACH     LENGTH
                          NUMBER   NUMBER    IN CELL        
   --------------------------------------------------
      1     13      1       1        1    2.0000E+02
      1     13      2       1        2    2.0000E+02
      1     14      3       1        3    2.0000E+02
      1     15      4       1        4    2.0000E+02
      1     16      5       1        5    2.0000E+02
      1     16      6       1        6    2.0000E+02
      1     16      7       1        7    2.0000E+02
      1     16      8       1        8    2.0000E+02
      1     16      9       1        9    2.0000E+02
      1     16     10       1       10    2.0000E+02
      1     16     11       1       11    2.0000E+02
      1     16     12       1       12    2.0000E+02
      1     15     13       1       13    2.0000E+02
      1     14     14       1       14    2.0000E+02
      1     13     15       1       15    2.0000E+02
      1     12     16       1       16    2.0000E+02
      1     12     17       1       17    2.0000E+02
      1     12     18       1       18    2.0000E+02
      1     12     19       1       19    2.0000E+02
      1     13     20       1       20    2.0000E+02
      1     14     21       1       21    2.0000E+02
      1     14     22       1       22    2.0000E+02
      1      9     30       2        1    2.0000E+02
      1      9     29       2        2    2.0000E+02
      1      9     28       2        3    2.0000E+02
      1      9     27       2        4    2.0000E+02
      1     10     26       2        5    2.0000E+02
      1     11     25       2        6    2.0000E+02
      1     12     24       2        7    2.0000E+02
      1     13     23       2        8    2.0000E+02
      1     14     22       2        9    2.0000E+02
      1     14     22       3        1    2.0000E+02
      1     15     23       3        2    2.0000E+02
      1     15     24       3        3    2.0000E+02
      1     15     25       3        4    2.0000E+02
      1     15     26       3        5    2.0000E+02
      1     16     27       3        6    2.0000E+02
      1     17     28       3        7    2.0000E+02
      1     18     29       3        8    2.0000E+02
      1     18     30       3        9    2.0000E+02




 PCG -- CONJUGATE-GRADIENT SOLUTION PACKAGE, VERSION 7, 5/2/2005
 MAXIMUM OF    500 CALLS OF SOLUTION ROUTINE
 MAXIMUM OF      5 INTERNAL ITERATIONS PER CALL TO SOLUTION ROUTINE
 MATRIX PRECONDITIONING TYPE :    1



                                    SOLUTION BY THE CONJUGATE-GRADIENT METHOD
                                   -------------------------------------------
                    MAXIMUM NUMBER OF CALLS TO PCG ROUTINE =      500
                        MAXIMUM ITERATIONS PER CALL TO PCG =        5
                               MATRIX PRECONDITIONING TYPE =        1
        RELAXATION FACTOR (ONLY USED WITH PRECOND. TYPE 1) =    0.10000E+01
 PARAMETER OF POLYNOMIAL PRECOND. = 2 (2) OR IS CALCULATED :        0
                         HEAD CHANGE CRITERION FOR CLOSURE =    0.10000E-05
                     RESIDUAL CHANGE CRITERION FOR CLOSURE =    0.10000E+01
            PCG HEAD AND RESIDUAL CHANGE PRINTOUT INTERVAL =        1
     PRINTING FROM SOLVER IS LIMITED(1) OR SUPPRESSED (>1) =        1
                            STEADY-STATE DAMPING PARAMETER =    0.10000E+01
                               TRANSIENT DAMPING PARAMETER =    0.10000E+01
1
                            STRESS PERIOD NO.    1, LENGTH =   92.00000    
                            -----------------------------------------------

                              NUMBER OF TIME STEPS =     1

                               MULTIPLIER FOR DELT =     1.500

                            INITIAL TIME STEP SIZE =   92.00000    

 WELL NO.  LAYER   ROW   COL   STRESS RATE         
 --------------------------------------------------
      1      1      4      5     -0.5000E+05
      2      1      2     11     -0.5000E+05
      3      1      6     11     -0.5000E+05

      3 WELLS

                 RECHARGE =  5.000000E-04



 CLASSIFICATION & COUNT OF STREAM SEGMENTS BASED ON SOURCE OF INFLOW:

                HEADWATER     DIVERSION     RECEIVES TRIBUTARY FLOW
                ---------     ---------     -----------------------
                     2              0               1



                    INPUT DATA FOR EACH STREAM SEGMENT
 ---------------------------------------------------------------------------------------------

 SEGMENT    SEG.     INFLOW   OVERLAND   STREAM    STREAM   ICALC  OUTFLOW  DIVERSION PRIORITY
    NO.    LENGTH     RATE     RUNOFF      ET       PPT.    METH.  TO SEG.  FROM SEG.    NO.

      1  4.400E+03 1.000E+05 0.000E+00 0.000E+00 0.000E+00    1        3        0        0
      2  1.800E+03 5.000E+04 0.000E+00 0.000E+00 0.000E+00    1        3        0        0
      3  1.800E+03 0.000E+00 0.000E+00 0.000E+00 0.000E+00    1        0        0        0


         STREAMBED PROPERTIES AND STREAM DIMENSIONS

 SEGMENT     BED HYD. COND.      BED THICKNESS     ELEV.-TOP OF BED     WIDTH OF STREAM     DEPTH OF STREAM    STREAM ROUGHNESS
    No.     UPPER     LOWER     UPPER     LOWER     UPPER     LOWER     UPPER     LOWER     UPPER     LOWER   CHANNEL      BANK

     1  5.000E+00 5.000E+00 1.000E+00 1.000E+00 4.850E+01 3.800E+01 2.000E+01 2.000E+01                     5.000E-02
     2  5.000E+00 5.000E+00 1.000E+00 1.000E+00 4.025E+01 3.800E+01 2.000E+01 2.000E+01                     5.000E-02
     3  5.000E+00 5.000E+00 1.000E+00 1.000E+00 3.800E+01 3.000E+01 2.000E+01 2.000E+01                     5.000E-02



 
 SOLVING FOR HEAD 


     8 CALLS TO PCG ROUTINE FOR TIME STEP   1 IN STRESS PERIOD    1
    32 TOTAL ITERATIONS

 OUTPUT CONTROL FOR STRESS PERIOD    1   TIME STEP    1
    SAVE BUDGET
    SAVE HEAD FOR ALL LAYERS
    PRINT HEAD FOR ALL LAYERS
 UBDSV2 SAVING "STREAMFLOW OUT  " ON UNIT  50 AT TIME STEP  1, STRESS PERIOD   1



 STREAM LISTING     PERIOD      1   STEP        1

 LAYER ROW COL. STREAM  RCH.  FLOW INTO     FLOW TO   FLOW OUT OF   OVRLND.     DIRECT     STREAM       STREAM     STREAM     STREAM   STREAMBED  STREAMBED
                SEG.NO.  NO.  STRM. RCH.    AQUIFER    STRM. RCH.    RUNOFF     PRECIP       ET          HEAD       DEPTH      WIDTH   CONDCTNC.   GRADIENT

   1   13    1     1     1    1.0000E+05 -2.9505E+04   1.2951E+05  0.000E+00  0.000E+00  0.000E+00  4.84185E+01  1.571E-01  2.000E+01  2.000E+04 -1.475E+00
   1   13    2     1     2    1.2951E+05 -3.9303E+04   1.6881E+05  0.000E+00  0.000E+00  0.000E+00  4.79680E+01  1.839E-01  2.000E+01  2.000E+04 -1.965E+00
   1   14    3     1     3    1.6881E+05 -3.5652E+04   2.0446E+05  0.000E+00  0.000E+00  0.000E+00  4.75172E+01  2.103E-01  2.000E+01  2.000E+04 -1.783E+00
   1   15    4     1     4    2.0446E+05 -3.5271E+04   2.3973E+05  0.000E+00  0.000E+00  0.000E+00  4.70630E+01  2.335E-01  2.000E+01  2.000E+04 -1.764E+00
   1   16    5     1     5    2.3973E+05 -3.6860E+04   2.7659E+05  0.000E+00  0.000E+00  0.000E+00  4.66078E+01  2.555E-01  2.000E+01  2.000E+04 -1.843E+00
   1   16    6     1     6    2.7659E+05 -3.2026E+04   3.0862E+05  0.000E+00  0.000E+00  0.000E+00  4.61505E+01  2.755E-01  2.000E+01  2.000E+04 -1.601E+00
   1   16    7     1     7    3.0862E+05 -3.1747E+04   3.4036E+05  0.000E+00  0.000E+00  0.000E+00  4.56908E+01  2.931E-01  2.000E+01  2.000E+04 -1.587E+00
   1   16    8     1     8    3.4036E+05 -3.1917E+04   3.7228E+05  0.000E+00  0.000E+00  0.000E+00  4.52305E+01  3.100E-01  2.000E+01  2.000E+04 -1.596E+00
   1   16    9     1     9    3.7228E+05 -3.2022E+04   4.0430E+05  0.000E+00  0.000E+00  0.000E+00  4.47696E+01  3.265E-01  2.000E+01  2.000E+04 -1.601E+00
   1   16   10     1    10    4.0430E+05 -3.2119E+04   4.3642E+05  0.000E+00  0.000E+00  0.000E+00  4.43083E+01  3.424E-01  2.000E+01  2.000E+04 -1.606E+00
   1   16   11     1    11    4.3642E+05 -3.2902E+04   4.6932E+05  0.000E+00  0.000E+00  0.000E+00  4.38467E+01  3.580E-01  2.000E+01  2.000E+04 -1.645E+00
   1   16   12     1    12    4.6932E+05 -3.9147E+04   5.0847E+05  0.000E+00  0.000E+00  0.000E+00  4.33862E+01  3.748E-01  2.000E+01  2.000E+04 -1.957E+00
   1   15   13     1    13    5.0847E+05 -3.7920E+04   5.4639E+05  0.000E+00  0.000E+00  0.000E+00  4.29264E+01  3.923E-01  2.000E+01  2.000E+04 -1.896E+00
   1   14   14     1    14    5.4639E+05 -3.8325E+04   5.8472E+05  0.000E+00  0.000E+00  0.000E+00  4.24659E+01  4.091E-01  2.000E+01  2.000E+04 -1.916E+00
   1   13   15     1    15    5.8472E+05 -4.0188E+04   6.2490E+05  0.000E+00  0.000E+00  0.000E+00  4.20054E+01  4.259E-01  2.000E+01  2.000E+04 -2.009E+00
   1   12   16     1    16    6.2490E+05 -4.5619E+04   6.7052E+05  0.000E+00  0.000E+00  0.000E+00  4.15460E+01  4.438E-01  2.000E+01  2.000E+04 -2.281E+00
   1   12   17     1    17    6.7052E+05 -3.6405E+04   7.0693E+05  0.000E+00  0.000E+00  0.000E+00  4.10854E+01  4.604E-01  2.000E+01  2.000E+04 -1.820E+00
   1   12   18     1    18    7.0693E+05 -3.5062E+04   7.4199E+05  0.000E+00  0.000E+00  0.000E+00  4.06223E+01  4.746E-01  2.000E+01  2.000E+04 -1.753E+00
   1   12   19     1    19    7.4199E+05 -3.9646E+04   7.8164E+05  0.000E+00  0.000E+00  0.000E+00  4.01596E+01  4.891E-01  2.000E+01  2.000E+04 -1.982E+00
   1   13   20     1    20    7.8164E+05 -3.0325E+04   8.1196E+05  0.000E+00  0.000E+00  0.000E+00  3.96957E+01  5.025E-01  2.000E+01  2.000E+04 -1.516E+00
   1   14   21     1    21    8.1196E+05 -2.2912E+04   8.3487E+05  0.000E+00  0.000E+00  0.000E+00  3.92284E+01  5.125E-01  2.000E+01  2.000E+04 -1.146E+00
   1   14   22     1    22    8.3487E+05 -3.0039E+03   8.3788E+05  0.000E+00  0.000E+00  0.000E+00  3.87560E+01  5.173E-01  2.000E+01  2.000E+04 -1.502E-01
   1    9   30     2     1    5.0000E+04 -2.9621E+04   7.9621E+04  0.000E+00  0.000E+00  0.000E+00  4.02604E+01  1.354E-01  2.000E+01  2.000E+04 -1.481E+00
   1    9   29     2     2    7.9621E+04 -3.2051E+04   1.1167E+05  0.000E+00  0.000E+00  0.000E+00  4.00460E+01  1.710E-01  2.000E+01  2.000E+04 -1.603E+00
   1    9   28     2     3    1.1167E+05 -3.6346E+04   1.4802E+05  0.000E+00  0.000E+00  0.000E+00  3.98304E+01  2.054E-01  2.000E+01  2.000E+04 -1.817E+00
   1    9   27     2     4    1.4802E+05 -5.0895E+04   1.9891E+05  0.000E+00  0.000E+00  0.000E+00  3.96194E+01  2.444E-01  2.000E+01  2.000E+04 -2.545E+00
   1   10   26     2     5    1.9891E+05 -3.7276E+04   2.3619E+05  0.000E+00  0.000E+00  0.000E+00  3.94050E+01  2.800E-01  2.000E+01  2.000E+04 -1.864E+00
   1   11   25     2     6    2.3619E+05 -2.8865E+04   2.6505E+05  0.000E+00  0.000E+00  0.000E+00  3.91798E+01  3.048E-01  2.000E+01  2.000E+04 -1.443E+00
   1   12   24     2     7    2.6505E+05 -2.1915E+04   2.8697E+05  0.000E+00  0.000E+00  0.000E+00  3.89479E+01  3.229E-01  2.000E+01  2.000E+04 -1.096E+00
   1   13   23     2     8    2.8697E+05 -1.5924E+04   3.0289E+05  0.000E+00  0.000E+00  0.000E+00  3.87111E+01  3.361E-01  2.000E+01  2.000E+04 -7.962E-01
   1   14   22     2     9    3.0289E+05 -8.7349E+03   3.1163E+05  0.000E+00  0.000E+00  0.000E+00  3.84694E+01  3.444E-01  2.000E+01  2.000E+04 -4.367E-01
   1   14   22     3     1    1.1495E+06 -1.6577E+04   1.1661E+06  0.000E+00  0.000E+00  0.000E+00  3.80773E+01  5.218E-01  2.000E+01  2.000E+04 -8.288E-01
   1   15   23     3     2    1.1661E+06 -2.6729E+04   1.1928E+06  0.000E+00  0.000E+00  0.000E+00  3.71943E+01  5.276E-01  2.000E+01  2.000E+04 -1.336E+00
   1   15   24     3     3    1.1928E+06 -2.2378E+04   1.2152E+06  0.000E+00  0.000E+00  0.000E+00  3.63119E+01  5.342E-01  2.000E+01  2.000E+04 -1.119E+00
   1   15   25     3     4    1.2152E+06 -2.2105E+04   1.2373E+06  0.000E+00  0.000E+00  0.000E+00  3.54290E+01  5.401E-01  2.000E+01  2.000E+04 -1.105E+00
   1   15   26     3     5    1.2373E+06 -2.5534E+04   1.2628E+06  0.000E+00  0.000E+00  0.000E+00  3.45463E+01  5.463E-01  2.000E+01  2.000E+04 -1.277E+00
   1   16   27     3     6    1.2628E+06 -3.3262E+04   1.2961E+06  0.000E+00  0.000E+00  0.000E+00  3.36651E+01  5.540E-01  2.000E+01  2.000E+04 -1.663E+00
   1   17   28     3     7    1.2961E+06 -4.0272E+04   1.3364E+06  0.000E+00  0.000E+00  0.000E+00  3.27857E+01  5.635E-01  2.000E+01  2.000E+04 -2.014E+00
   1   18   29     3     8    1.3364E+06 -5.0724E+04   1.3871E+06  0.000E+00  0.000E+00  0.000E+00  3.19084E+01  5.751E-01  2.000E+01  2.000E+04 -2.536E+00
   1   18   30     3     9    1.3871E+06 -4.6720E+04   1.4338E+06  0.000E+00  0.000E+00  0.000E+00  3.10318E+01  5.874E-01  2.000E+01  2.000E+04 -2.336E+00



1
              HEAD IN LAYER   1 AT END OF TIME STEP   1 IN STRESS PERIOD    1
  ---------------------------------------------------------------------------

          1      2      3      4      5      6      7      8      9     10
         11     12     13     14     15     16     17     18     19     20
         21     22     23     24     25     26     27     28     29     30
 .........................................................................
   1  ****** ****** ****** ****** ****** ****** ****** ****** ****** ******
      ****** ****** ****** ****** ****** ****** ****** ****** ****** ******
      ****** ****** ****** ****** ****** ****** ****** ****** ****** ******
   2  ****** ****** ****** ****** ****** ****** ****** ****** ****** ******
      ****** ****** ****** ****** ****** ****** ****** ****** ****** ******
      ****** ****** ****** ****** ****** ****** ****** ****** ****** ******
   3  ****** ****** ****** ****** ****** ****** ****** ****** ****** ******
      ****** ****** ****** ****** ****** ****** ****** ****** ****** ******
      ****** ****** ****** ****** ****** ****** ****** ****** ****** ******
   4  ****** ****** ****** ****** ****** ****** ****** ****** ****** ******
      ****** ****** ****** ****** ****** ****** ****** ****** ****** ******
      ****** ****** ****** ****** ****** ****** ****** ****** ****** ******
   5  ****** ****** ****** ****** ****** ****** ****** ****** ****** ******
      ****** ****** ****** ****** ****** ****** ****** ****** ****** ******
      ****** ****** ****** ****** ****** ****** ****** ****** ****** ******
   6  ****** ****** ****** ****** ****** ****** ****** ****** ****** ******
      ****** ****** ****** ****** ****** ****** ****** ****** ****** ******
      ****** ****** ****** ****** ****** ****** ****** ****** ****** ******
   7  ****** ****** ****** ****** ****** ****** ****** ****** ****** ******
      ****** ****** ****** ****** ****** ****** ****** ****** ****** ******
      ****** ****** ****** ****** ****** ****** ****** ****** ****** ******
   8  ****** ****** ****** ****** ****** ****** ****** ****** ****** ******
      ****** ****** ****** ****** ****** ****** ****** ****** ****** ******
      ****** ****** ****** ****** ****** ****** ****** ****** ****** ******
   9  ****** ****** ****** ****** ****** ****** ****** ****** ****** ******
      ****** ****** ****** ****** ****** ****** ****** ****** ****** ******
      ****** ****** ****** ****** ****** ****** ****** ****** ****** ******
  10  ****** ****** ****** ****** ****** ****** ****** ****** ****** ******
      ****** ****** ****** ****** ****** ****** ****** ****** ****** ******
      ****** ****** ****** ****** ****** ****** ****** ****** ****** ******
  11  ****** ****** ****** ****** ****** ****** ****** ****** ****** ******
      ****** ****** ****** ****** ****** ****** ****** ****** ****** ******
      ****** ****** ****** ****** ****** ****** ****** ****** ****** ******
  12  ****** ****** ****** ****** ****** ****** ****** ****** ****** ******
      ****** ****** ****** ****** ****** ****** ****** ****** ****** ******
      ****** ****** ****** ****** ****** ****** ****** ****** ****** ******
  13  ****** ****** ****** ****** ****** ****** ****** ****** ****** ******
      ****** ****** ****** ****** ****** ****** ****** ****** ****** ******
      ****** ****** ****** ****** ****** ****** ****** ****** ****** ******
  14  ****** ****** ****** ****** ****** ****** ****** ****** ****** ******
      ****** ****** ****** ****** ****** ****** ****** ****** ****** ******
      ****** ****** ****** ****** ****** ****** ****** ****** ****** ******
  15  ****** ****** ****** ****** ****** ****** ****** ****** ****** ******
      ****** ****** ****** ****** ****** ****** ****** ****** ****** ******
      ****** ****** ****** ****** ****** ****** ****** ****** ****** ******
  16  ****** ****** ****** ****** ****** ****** ****** ****** ****** ******
      ****** ****** ****** ****** ****** ****** ****** ****** ****** ******
      ****** ****** ****** ****** ****** ****** ****** ****** ****** ******
  17  ****** ****** ****** ****** ****** ****** ****** ****** ****** ******
      ****** ****** ****** ****** ****** ****** ****** ****** ****** ******
      ****** ****** ****** ****** ****** ****** ****** ****** ****** ******
  18  ****** ****** ****** ****** ****** ****** ****** ****** ****** ******
      ****** ****** ****** ****** ****** ****** ****** ****** ****** ******
      ****** ****** ****** ****** ****** ****** ****** ****** ****** ******
  19  ****** ****** ****** ****** ****** ****** ****** ****** ****** ******
      ****** ****** ****** ****** ****** ****** ****** ****** ****** ******
      ****** ****** ****** ****** ****** ****** ****** ****** ****** ******
  20  ****** ****** ****** ****** ****** ****** ****** ****** ****** ******
      ****** ****** ****** ****** ****** ****** ****** ****** ****** ******
      ****** ****** ****** ****** ****** ****** ****** ****** ****** ******
  21  ****** ****** ****** ****** ****** ****** ****** ****** ****** ******
      ****** ****** ****** ****** ****** ****** ****** ****** ****** ******
      ****** ****** ****** ****** ****** ****** ****** ****** ****** ******
  22  ****** ****** ****** ****** ****** ****** ****** ****** ****** ******
      ****** ****** ****** ****** ****** ****** ****** ****** ****** ******
      ****** ****** ****** ****** ****** ****** ****** ****** ****** ******
  23  ****** ****** ****** ****** ****** ****** ****** ****** ****** ******
      ****** ****** ****** ****** ****** ****** ****** ****** ****** ******
      ****** ****** ****** ****** ****** ****** ****** ****** ****** ******
  24  ****** ****** ****** ****** ****** ****** ****** ****** ****** ******
      ****** ****** ****** ****** ****** ****** ****** ****** ****** ******
      ****** ****** ****** ****** ****** ****** ****** ****** ****** ******
  25  ****** ****** ****** ****** ****** ****** ****** ****** ****** ******
      ****** ****** ****** ****** ****** ****** ****** ****** ****** ******
      ****** ****** ****** ****** ****** ****** ****** ****** ****** ******

 HEAD WILL BE SAVED ON UNIT   51 AT END OF TIME STEP    1, STRESS PERIOD    1
1
  VOLUMETRIC BUDGET FOR ENTIRE MODEL AT END OF TIME STEP    1, STRESS PERIOD   1
  ------------------------------------------------------------------------------

     CUMULATIVE VOLUMES      L**3       RATES FOR THIS TIME STEP      L**3/T
     ------------------                 ------------------------

           IN:                                      IN:
           ---                                      ---
             STORAGE =    19656116.4600               STORAGE =      213653.4398
       CONSTANT HEAD =   110984317.4916         CONSTANT HEAD =     1206351.2771
               WELLS =           0.0000                 WELLS =           0.0000
            RECHARGE =     1269600.0000              RECHARGE =       13800.0000
      STREAM LEAKAGE =           0.0000        STREAM LEAKAGE =           0.0000

            TOTAL IN =   131910033.9517              TOTAL IN =     1433804.7169

          OUT:                                     OUT:
          ----                                     ----
             STORAGE =           0.0000               STORAGE =           0.0000
       CONSTANT HEAD =           0.0000         CONSTANT HEAD =           0.0000
               WELLS =    13800000.0000                 WELLS =      150000.0000
            RECHARGE =           0.0000              RECHARGE =           0.0000
      STREAM LEAKAGE =   118110035.9068        STREAM LEAKAGE =     1283804.7381

           TOTAL OUT =   131910035.9068             TOTAL OUT =     1433804.7381

            IN - OUT =          -1.9551              IN - OUT =      -2.1252E-02

 PERCENT DISCREPANCY =          -0.00     PERCENT DISCREPANCY =          -0.00






         TIME SUMMARY AT END OF TIME STEP    1 IN STRESS PERIOD    1
                    SECONDS     MINUTES      HOURS       DAYS        YEARS
                    -----------------------------------------------------------
   TIME STEP LENGTH 7.94880E+06 1.32480E+05  2208.0      92.000     0.25188    
 STRESS PERIOD TIME 7.94880E+06 1.32480E+05  2208.0      92.000     0.25188    
         TOTAL TIME 7.94880E+06 1.32480E+05  2208.0      92.000     0.25188    
1
1
                            STRESS PERIOD NO.    2, LENGTH =   91.00000    
                            -----------------------------------------------

                              NUMBER OF TIME STEPS =     1

                               MULTIPLIER FOR DELT =     1.500

                            INITIAL TIME STEP SIZE =   91.00000    

 WELL NO.  LAYER   ROW   COL   STRESS RATE         
 --------------------------------------------------
      1      1      4      5     -0.5000E+05
      2      1      2     11     -0.5000E+05
      3      1      6     11     -0.5000E+05

      3 WELLS

                 RECHARGE =  2.000000E-03

 REUSING STREAM SEGMENT DATA FROM LAST STRESS PERIOD
 
 SOLVING FOR HEAD 


     6 CALLS TO PCG ROUTINE FOR TIME STEP   1 IN STRESS PERIOD    2
    25 TOTAL ITERATIONS

 OUTPUT CONTROL FOR STRESS PERIOD    2   TIME STEP    1
    SAVE BUDGET
    SAVE HEAD FOR ALL LAYERS
    PRINT HEAD FOR ALL LAYERS
 UBDSV2 SAVING "STREAMFLOW OUT  " ON UNIT  50 AT TIME STEP  1, STRESS PERIOD   2



 STREAM LISTING     PERIOD      2   STEP        1

 LAYER ROW COL. STREAM  RCH.  FLOW INTO     FLOW TO   FLOW OUT OF   OVRLND.     DIRECT     STREAM       STREAM     STREAM     STREAM   STREAMBED  STREAMBED
                SEG.NO.  NO.  STRM. RCH.    AQUIFER    STRM. RCH.    RUNOFF     PRECIP       ET          HEAD       DEPTH      WIDTH   CONDCTNC.   GRADIENT

   1   13    1     1     1    1.0000E+05 -2.6112E+04   1.2611E+05  0.000E+00  0.000E+00  0.000E+00  4.84171E+01  1.557E-01  2.000E+01  2.000E+04 -1.306E+00
   1   13    2     1     2    1.2611E+05 -3.5261E+04   1.6137E+05  0.000E+00  0.000E+00  0.000E+00  4.79639E+01  1.798E-01  2.000E+01  2.000E+04 -1.763E+00
   1   14    3     1     3    1.6137E+05 -3.1600E+04   1.9297E+05  0.000E+00  0.000E+00  0.000E+00  4.75107E+01  2.039E-01  2.000E+01  2.000E+04 -1.580E+00
   1   15    4     1     4    1.9297E+05 -3.1420E+04   2.2439E+05  0.000E+00  0.000E+00  0.000E+00  4.70545E+01  2.249E-01  2.000E+01  2.000E+04 -1.571E+00
   1   16    5     1     5    2.2439E+05 -3.3576E+04   2.5797E+05  0.000E+00  0.000E+00  0.000E+00  4.65976E+01  2.453E-01  2.000E+01  2.000E+04 -1.679E+00
   1   16    6     1     6    2.5797E+05 -2.9107E+04   2.8708E+05  0.000E+00  0.000E+00  0.000E+00  4.61390E+01  2.640E-01  2.000E+01  2.000E+04 -1.455E+00
   1   16    7     1     7    2.8708E+05 -2.8828E+04   3.1590E+05  0.000E+00  0.000E+00  0.000E+00  4.56782E+01  2.805E-01  2.000E+01  2.000E+04 -1.441E+00
   1   16    8     1     8    3.1590E+05 -2.8973E+04   3.4488E+05  0.000E+00  0.000E+00  0.000E+00  4.52168E+01  2.963E-01  2.000E+01  2.000E+04 -1.449E+00
   1   16    9     1     9    3.4488E+05 -2.9070E+04   3.7395E+05  0.000E+00  0.000E+00  0.000E+00  4.47548E+01  3.117E-01  2.000E+01  2.000E+04 -1.453E+00
   1   16   10     1    10    3.7395E+05 -2.9173E+04   4.0312E+05  0.000E+00  0.000E+00  0.000E+00  4.42925E+01  3.266E-01  2.000E+01  2.000E+04 -1.459E+00
   1   16   11     1    11    4.0312E+05 -2.9933E+04   4.3305E+05  0.000E+00  0.000E+00  0.000E+00  4.38299E+01  3.413E-01  2.000E+01  2.000E+04 -1.497E+00
   1   16   12     1    12    4.3305E+05 -3.5752E+04   4.6881E+05  0.000E+00  0.000E+00  0.000E+00  4.33685E+01  3.571E-01  2.000E+01  2.000E+04 -1.788E+00
   1   15   13     1    13    4.6881E+05 -3.3917E+04   5.0272E+05  0.000E+00  0.000E+00  0.000E+00  4.29075E+01  3.734E-01  2.000E+01  2.000E+04 -1.696E+00
   1   14   14     1    14    5.0272E+05 -3.4090E+04   5.3681E+05  0.000E+00  0.000E+00  0.000E+00  4.24457E+01  3.889E-01  2.000E+01  2.000E+04 -1.704E+00
   1   13   15     1    15    5.3681E+05 -3.5965E+04   5.7278E+05  0.000E+00  0.000E+00  0.000E+00  4.19839E+01  4.044E-01  2.000E+01  2.000E+04 -1.798E+00
   1   12   16     1    16    5.7278E+05 -4.1658E+04   6.1443E+05  0.000E+00  0.000E+00  0.000E+00  4.15234E+01  4.211E-01  2.000E+01  2.000E+04 -2.083E+00
   1   12   17     1    17    6.1443E+05 -3.3166E+04   6.4760E+05  0.000E+00  0.000E+00  0.000E+00  4.10619E+01  4.369E-01  2.000E+01  2.000E+04 -1.658E+00
   1   12   18     1    18    6.4760E+05 -3.1951E+04   6.7955E+05  0.000E+00  0.000E+00  0.000E+00  4.05980E+01  4.503E-01  2.000E+01  2.000E+04 -1.598E+00
   1   12   19     1    19    6.7955E+05 -3.6245E+04   7.1580E+05  0.000E+00  0.000E+00  0.000E+00  4.01345E+01  4.640E-01  2.000E+01  2.000E+04 -1.812E+00
   1   13   20     1    20    7.1580E+05 -2.7028E+04   7.4282E+05  0.000E+00  0.000E+00  0.000E+00  3.96697E+01  4.765E-01  2.000E+01  2.000E+04 -1.351E+00
   1   14   21     1    21    7.4282E+05 -2.0140E+04   7.6296E+05  0.000E+00  0.000E+00  0.000E+00  3.92016E+01  4.857E-01  2.000E+01  2.000E+04 -1.007E+00
   1   14   22     1    22    7.6296E+05 -1.9622E+03   7.6493E+05  0.000E+00  0.000E+00  0.000E+00  3.87286E+01  4.900E-01  2.000E+01  2.000E+04 -9.811E-02
   1    9   30     2     1    5.0000E+04 -2.6959E+04   7.6959E+04  0.000E+00  0.000E+00  0.000E+00  4.02587E+01  1.337E-01  2.000E+01  2.000E+04 -1.348E+00
   1    9   29     2     2    7.6959E+04 -2.9415E+04   1.0637E+05  0.000E+00  0.000E+00  0.000E+00  4.00417E+01  1.667E-01  2.000E+01  2.000E+04 -1.471E+00
   1    9   28     2     3    1.0637E+05 -3.3690E+04   1.4006E+05  0.000E+00  0.000E+00  0.000E+00  3.98241E+01  1.991E-01  2.000E+01  2.000E+04 -1.685E+00
   1    9   27     2     4    1.4006E+05 -4.7832E+04   1.8790E+05  0.000E+00  0.000E+00  0.000E+00  3.96113E+01  2.363E-01  2.000E+01  2.000E+04 -2.392E+00
   1   10   26     2     5    1.8790E+05 -3.3800E+04   2.2170E+05  0.000E+00  0.000E+00  0.000E+00  3.93950E+01  2.700E-01  2.000E+01  2.000E+04 -1.690E+00
   1   11   25     2     6    2.2170E+05 -2.5409E+04   2.4711E+05  0.000E+00  0.000E+00  0.000E+00  3.91678E+01  2.928E-01  2.000E+01  2.000E+04 -1.270E+00
   1   12   24     2     7    2.4711E+05 -1.8782E+04   2.6589E+05  0.000E+00  0.000E+00  0.000E+00  3.89340E+01  3.090E-01  2.000E+01  2.000E+04 -9.391E-01
   1   13   23     2     8    2.6589E+05 -1.3378E+04   2.7927E+05  0.000E+00  0.000E+00  0.000E+00  3.86955E+01  3.205E-01  2.000E+01  2.000E+04 -6.689E-01
   1   14   22     2     9    2.7927E+05 -7.4776E+03   2.8674E+05  0.000E+00  0.000E+00  0.000E+00  3.84528E+01  3.278E-01  2.000E+01  2.000E+04 -3.739E-01
   1   14   22     3     1    1.0517E+06 -1.5529E+04   1.0672E+06  0.000E+00  0.000E+00  0.000E+00  3.80503E+01  4.947E-01  2.000E+01  2.000E+04 -7.764E-01
   1   15   23     3     2    1.0672E+06 -2.4194E+04   1.0914E+06  0.000E+00  0.000E+00  0.000E+00  3.71669E+01  5.002E-01  2.000E+01  2.000E+04 -1.210E+00
   1   15   24     3     3    1.0914E+06 -2.0137E+04   1.1115E+06  0.000E+00  0.000E+00  0.000E+00  3.62842E+01  5.064E-01  2.000E+01  2.000E+04 -1.007E+00
   1   15   25     3     4    1.1115E+06 -1.9730E+04   1.1313E+06  0.000E+00  0.000E+00  0.000E+00  3.54008E+01  5.119E-01  2.000E+01  2.000E+04 -9.865E-01
   1   15   26     3     5    1.1313E+06 -2.2551E+04   1.1538E+06  0.000E+00  0.000E+00  0.000E+00  3.45176E+01  5.176E-01  2.000E+01  2.000E+04 -1.128E+00
   1   16   27     3     6    1.1538E+06 -2.9834E+04   1.1836E+06  0.000E+00  0.000E+00  0.000E+00  3.36358E+01  5.247E-01  2.000E+01  2.000E+04 -1.492E+00
   1   17   28     3     7    1.1836E+06 -3.6910E+04   1.2206E+06  0.000E+00  0.000E+00  0.000E+00  3.27559E+01  5.337E-01  2.000E+01  2.000E+04 -1.846E+00
   1   18   29     3     8    1.2206E+06 -4.7867E+04   1.2684E+06  0.000E+00  0.000E+00  0.000E+00  3.18782E+01  5.449E-01  2.000E+01  2.000E+04 -2.393E+00
   1   18   30     3     9    1.2684E+06 -4.4193E+04   1.3126E+06  0.000E+00  0.000E+00  0.000E+00  3.10013E+01  5.569E-01  2.000E+01  2.000E+04 -2.210E+00



1
              HEAD IN LAYER   1 AT END OF TIME STEP   1 IN STRESS PERIOD    2
  ---------------------------------------------------------------------------

          1      2      3      4      5      6      7      8      9     10
         11     12     13     14     15     16     17     18     19     20
         21     22     23     24     25     26     27     28     29     30
 .........................................................................
   1  ****** ****** ****** ****** ****** ****** ****** ****** ****** ******
      ****** ****** ****** ****** ****** ****** ****** ****** ****** ******
      ****** ****** ****** ****** ****** ****** ****** ****** ****** ******
   2  ****** ****** ****** ****** ****** ****** ****** ****** ****** ******
      ****** ****** ****** ****** ****** ****** ****** ****** ****** ******
      ****** ****** ****** ****** ****** ****** ****** ****** ****** ******
   3  ****** ****** ****** ****** ****** ****** ****** ****** ****** ******
      ****** ****** ****** ****** ****** ****** ****** ****** ****** ******
      ****** ****** ****** ****** ****** ****** ****** ****** ****** ******
   4  ****** ****** ****** ****** ****** ****** ****** ****** ****** ******
      ****** ****** ****** ****** ****** ****** ****** ****** ****** ******
      ****** ****** ****** ****** ****** ****** ****** ****** ****** ******
   5  ****** ****** ****** ****** ****** ****** ****** ****** ****** ******
      ****** ****** ****** ****** ****** ****** ****** ****** ****** ******
      ****** ****** ****** ****** ****** ****** ****** ****** ****** ******
   6  ****** ****** ****** ****** ****** ****** ****** ****** ****** ******
      ****** ****** ****** ****** ****** ****** ****** ****** ****** ******
      ****** ****** ****** ****** ****** ****** ****** ****** ****** ******
   7  ****** ****** ****** ****** ****** ****** ****** ****** ****** ******
      ****** ****** ****** ****** ****** ****** ****** ****** ****** ******
      ****** ****** ****** ****** ****** ****** ****** ****** ****** ******
   8  ****** ****** ****** ****** ****** ****** ****** ****** ****** ******
      ****** ****** ****** ****** ****** ****** ****** ****** ****** ******
      ****** ****** ****** ****** ****** ****** ****** ****** ****** ******
   9  ****** ****** ****** ****** ****** ****** ****** ****** ****** ******
      ****** ****** ****** ****** ****** ****** ****** ****** ****** ******
      ****** ****** ****** ****** ****** ****** ****** ****** ****** ******
  10  ****** ****** ****** ****** ****** ****** ****** ****** ****** ******
      ****** ****** ****** ****** ****** ****** ****** ****** ****** ******
      ****** ****** ****** ****** ****** ****** ****** ****** ****** ******
  11  ****** ****** ****** ****** ****** ****** ****** ****** ****** ******
      ****** ****** ****** ****** ****** ****** ****** ****** ****** ******
      ****** ****** ****** ****** ****** ****** ****** ****** ****** ******
  12  ****** ****** ****** ****** ****** ****** ****** ****** ****** ******
      ****** ****** ****** ****** ****** ****** ****** ****** ****** ******
      ****** ****** ****** ****** ****** ****** ****** ****** ****** ******
  13  ****** ****** ****** ****** ****** ****** ****** ****** ****** ******
      ****** ****** ****** ****** ****** ****** ****** ****** ****** ******
      ****** ****** ****** ****** ****** ****** ****** ****** ****** ******
  14  ****** ****** ****** ****** ****** ****** ****** ****** ****** ******
      ****** ****** ****** ****** ****** ****** ****** ****** ****** ******
      ****** ****** ****** ****** ****** ****** ****** ****** ****** ******
  15  ****** ****** ****** ****** ****** ****** ****** ****** ****** ******
      ****** ****** ****** ****** ****** ****** ****** ****** ****** ******
      ****** ****** ****** ****** ****** ****** ****** ****** ****** ******
  16  ****** ****** ****** ****** ****** ****** ****** ****** ****** ******
      ****** ****** ****** ****** ****** ****** ****** ****** ****** ******
      ****** ****** ****** ****** ****** ****** ****** ****** ****** ******
  17  ****** ****** ****** ****** ****** ****** ****** ****** ****** ******
      ****** ****** ****** ****** ****** ****** ****** ****** ****** ******
      ****** ****** ****** ****** ****** ****** ****** ****** ****** ******
  18  ****** ****** ****** ****** ****** ****** ****** ****** ****** ******
      ****** ****** ****** ****** ****** ****** ****** ****** ****** ******
      ****** ****** ****** ****** ****** ****** ****** ****** ****** ******
  19  ****** ****** ****** ****** ****** ****** ****** ****** ****** ******
      ****** ****** ****** ****** ****** ****** ****** ****** ****** ******
      ****** ****** ****** ****** ****** ****** ****** ****** ****** ******
  20  ****** ****** ****** ****** ****** ****** ****** ****** ****** ******
      ****** ****** ****** ****** ****** ****** ****** ****** ****** ******
      ****** ****** ****** ****** ****** ****** ****** ****** ****** ******
  21  ****** ****** ****** ****** ****** ****** ****** ****** ****** ******
      ****** ****** ****** ****** ****** ****** ****** ****** ****** ******
      ****** ****** ****** ****** ****** ****** ****** ****** ****** ******
  22  ****** ****** ****** ****** ****** ****** ****** ****** ****** ******
      ****** ****** ****** ****** ****** ****** ****** ****** ****** ******
      ****** ****** ****** ****** ****** ****** ****** ****** ****** ******
  23  ****** ****** ****** ****** ****** ****** ****** ****** ****** ******
      ****** ****** ****** ****** ****** ****** ****** ****** ****** ******
      ****** ****** ****** ****** ****** ****** ****** ****** ****** ******
  24  ****** ****** ****** ****** ****** ****** ****** ****** ****** ******
      ****** ****** ****** ****** ****** ****** ****** ****** ****** ******
      ****** ****** ****** ****** ****** ****** ****** ****** ****** ******
  25  ****** ****** ****** ****** ****** ****** ****** ****** ****** ******
      ****** ****** ****** ****** ****** ****** ****** ****** ****** ******
      ****** ****** ****** ****** ****** ****** ****** ****** ****** ******

 HEAD WILL BE SAVED ON UNIT   51 AT END OF TIME STEP    1, STRESS PERIOD    2
1
  VOLUMETRIC BUDGET FOR ENTIRE MODEL AT END OF TIME STEP    1, STRESS PERIOD   2
  ------------------------------------------------------------------------------

     CUMULATIVE VOLUMES      L**3       RATES FOR THIS TIME STEP      L**3/T
     ------------------                 ------------------------

           IN:                                      IN:
           ---                                      ---
             STORAGE =    20377170.2475               STORAGE =        7923.6680
       CONSTANT HEAD =   224688025.6432         CONSTANT HEAD =     1249491.2984
               WELLS =           0.0000                 WELLS =           0.0000
            RECHARGE =     6292800.0000              RECHARGE =       55200.0000
      STREAM LEAKAGE =           0.0000        STREAM LEAKAGE =           0.0000

            TOTAL IN =   251357995.8907              TOTAL IN =     1312614.9664

          OUT:                                     OUT:
          ----                                     ----
             STORAGE =           0.0000               STORAGE =           0.0000
       CONSTANT HEAD =           0.0000         CONSTANT HEAD =           0.0000
               WELLS =    27450000.0000                 WELLS =      150000.0000
            RECHARGE =           0.0000              RECHARGE =           0.0000
      STREAM LEAKAGE =   223907999.5842        STREAM LEAKAGE =     1162614.9855

           TOTAL OUT =   251357999.5842             TOTAL OUT =     1312614.9855

            IN - OUT =          -3.6935              IN - OUT =      -1.9103E-02

 PERCENT DISCREPANCY =          -0.00     PERCENT DISCREPANCY =          -0.00






         TIME SUMMARY AT END OF TIME STEP    1 IN STRESS PERIOD    2
                    SECONDS     MINUTES      HOURS       DAYS        YEARS
                    -----------------------------------------------------------
   TIME STEP LENGTH 7.86240E+06 1.31040E+05  2184.0      91.000     0.24914    
 STRESS PERIOD TIME 7.86240E+06 1.31040E+05  2184.0      91.000     0.24914    
         TOTAL TIME 1.58112E+07 2.63520E+05  4392.0      183.00     0.50103    
1
1
                            STRESS PERIOD NO.    3, LENGTH =   91.00000    
                            -----------------------------------------------

                              NUMBER OF TIME STEPS =     1

                               MULTIPLIER FOR DELT =     1.500

                            INITIAL TIME STEP SIZE =   91.00000    

 WELL NO.  LAYER   ROW   COL   STRESS RATE         
 --------------------------------------------------
      1      1      4      5     -0.5000E+05
      2      1      2     11     -0.5000E+05
      3      1      6     11     -0.5000E+05

      3 WELLS

                 RECHARGE =   0.00000    

 REUSING STREAM SEGMENT DATA FROM LAST STRESS PERIOD
 
 SOLVING FOR HEAD 


     6 CALLS TO PCG ROUTINE FOR TIME STEP   1 IN STRESS PERIOD    3
    23 TOTAL ITERATIONS

 OUTPUT CONTROL FOR STRESS PERIOD    3   TIME STEP    1
    SAVE BUDGET
    SAVE HEAD FOR ALL LAYERS
    PRINT HEAD FOR ALL LAYERS
 UBDSV2 SAVING "STREAMFLOW OUT  " ON UNIT  50 AT TIME STEP  1, STRESS PERIOD   3



 STREAM LISTING     PERIOD      3   STEP        1

 LAYER ROW COL. STREAM  RCH.  FLOW INTO     FLOW TO   FLOW OUT OF   OVRLND.     DIRECT     STREAM       STREAM     STREAM     STREAM   STREAMBED  STREAMBED
                SEG.NO.  NO.  STRM. RCH.    AQUIFER    STRM. RCH.    RUNOFF     PRECIP       ET          HEAD       DEPTH      WIDTH   CONDCTNC.   GRADIENT

   1   13    1     1     1    1.0000E+05 -2.5060E+04   1.2506E+05  0.000E+00  0.000E+00  0.000E+00  4.84166E+01  1.553E-01  2.000E+01  2.000E+04 -1.253E+00
   1   13    2     1     2    1.2506E+05 -3.3993E+04   1.5905E+05  0.000E+00  0.000E+00  0.000E+00  4.79627E+01  1.786E-01  2.000E+01  2.000E+04 -1.700E+00
   1   14    3     1     3    1.5905E+05 -3.0380E+04   1.8943E+05  0.000E+00  0.000E+00  0.000E+00  4.75087E+01  2.018E-01  2.000E+01  2.000E+04 -1.519E+00
   1   15    4     1     4    1.8943E+05 -3.0262E+04   2.1969E+05  0.000E+00  0.000E+00  0.000E+00  4.70518E+01  2.222E-01  2.000E+01  2.000E+04 -1.513E+00
   1   16    5     1     5    2.1969E+05 -3.2549E+04   2.5224E+05  0.000E+00  0.000E+00  0.000E+00  4.65944E+01  2.421E-01  2.000E+01  2.000E+04 -1.627E+00
   1   16    6     1     6    2.5224E+05 -2.8208E+04   2.8045E+05  0.000E+00  0.000E+00  0.000E+00  4.61354E+01  2.604E-01  2.000E+01  2.000E+04 -1.410E+00
   1   16    7     1     7    2.8045E+05 -2.7935E+04   3.0839E+05  0.000E+00  0.000E+00  0.000E+00  4.56742E+01  2.765E-01  2.000E+01  2.000E+04 -1.397E+00
   1   16    8     1     8    3.0839E+05 -2.8076E+04   3.3646E+05  0.000E+00  0.000E+00  0.000E+00  4.52125E+01  2.920E-01  2.000E+01  2.000E+04 -1.404E+00
   1   16    9     1     9    3.3646E+05 -2.8173E+04   3.6463E+05  0.000E+00  0.000E+00  0.000E+00  4.47502E+01  3.070E-01  2.000E+01  2.000E+04 -1.409E+00
   1   16   10     1    10    3.6463E+05 -2.8280E+04   3.9291E+05  0.000E+00  0.000E+00  0.000E+00  4.42875E+01  3.216E-01  2.000E+01  2.000E+04 -1.414E+00
   1   16   11     1    11    3.9291E+05 -2.9030E+04   4.2194E+05  0.000E+00  0.000E+00  0.000E+00  4.38246E+01  3.360E-01  2.000E+01  2.000E+04 -1.452E+00
   1   16   12     1    12    4.2194E+05 -3.4704E+04   4.5665E+05  0.000E+00  0.000E+00  0.000E+00  4.33629E+01  3.515E-01  2.000E+01  2.000E+04 -1.735E+00
   1   15   13     1    13    4.5665E+05 -3.2743E+04   4.8939E+05  0.000E+00  0.000E+00  0.000E+00  4.29016E+01  3.675E-01  2.000E+01  2.000E+04 -1.637E+00
   1   14   14     1    14    4.8939E+05 -3.2869E+04   5.2226E+05  0.000E+00  0.000E+00  0.000E+00  4.24394E+01  3.826E-01  2.000E+01  2.000E+04 -1.643E+00
   1   13   15     1    15    5.2226E+05 -3.4749E+04   5.5701E+05  0.000E+00  0.000E+00  0.000E+00  4.19773E+01  3.977E-01  2.000E+01  2.000E+04 -1.737E+00
   1   12   16     1    16    5.5701E+05 -4.0478E+04   5.9749E+05  0.000E+00  0.000E+00  0.000E+00  4.15164E+01  4.141E-01  2.000E+01  2.000E+04 -2.024E+00
   1   12   17     1    17    5.9749E+05 -3.2229E+04   6.2972E+05  0.000E+00  0.000E+00  0.000E+00  4.10546E+01  4.296E-01  2.000E+01  2.000E+04 -1.611E+00
   1   12   18     1    18    6.2972E+05 -3.1064E+04   6.6078E+05  0.000E+00  0.000E+00  0.000E+00  4.05905E+01  4.428E-01  2.000E+01  2.000E+04 -1.553E+00
   1   12   19     1    19    6.6078E+05 -3.5280E+04   6.9606E+05  0.000E+00  0.000E+00  0.000E+00  4.01267E+01  4.563E-01  2.000E+01  2.000E+04 -1.764E+00
   1   13   20     1    20    6.9606E+05 -2.6138E+04   7.2220E+05  0.000E+00  0.000E+00  0.000E+00  3.96617E+01  4.686E-01  2.000E+01  2.000E+04 -1.307E+00
   1   14   21     1    21    7.2220E+05 -1.9378E+04   7.4157E+05  0.000E+00  0.000E+00  0.000E+00  3.91934E+01  4.775E-01  2.000E+01  2.000E+04 -9.689E-01
   1   14   22     1    22    7.4157E+05 -1.7013E+03   7.4328E+05  0.000E+00  0.000E+00  0.000E+00  3.87203E+01  4.816E-01  2.000E+01  2.000E+04 -8.506E-02
   1    9   30     2     1    5.0000E+04 -2.6290E+04   7.6290E+04  0.000E+00  0.000E+00  0.000E+00  4.02583E+01  1.333E-01  2.000E+01  2.000E+04 -1.314E+00
   1    9   29     2     2    7.6290E+04 -2.8746E+04   1.0504E+05  0.000E+00  0.000E+00  0.000E+00  4.00406E+01  1.656E-01  2.000E+01  2.000E+04 -1.437E+00
   1    9   28     2     3    1.0504E+05 -3.2996E+04   1.3803E+05  0.000E+00  0.000E+00  0.000E+00  3.98224E+01  1.974E-01  2.000E+01  2.000E+04 -1.650E+00
   1    9   27     2     4    1.3803E+05 -4.6976E+04   1.8501E+05  0.000E+00  0.000E+00  0.000E+00  3.96092E+01  2.342E-01  2.000E+01  2.000E+04 -2.349E+00
   1   10   26     2     5    1.8501E+05 -3.2907E+04   2.1792E+05  0.000E+00  0.000E+00  0.000E+00  3.93924E+01  2.674E-01  2.000E+01  2.000E+04 -1.645E+00
   1   11   25     2     6    2.1792E+05 -2.4547E+04   2.4246E+05  0.000E+00  0.000E+00  0.000E+00  3.91646E+01  2.896E-01  2.000E+01  2.000E+04 -1.227E+00
   1   12   24     2     7    2.4246E+05 -1.8013E+04   2.6048E+05  0.000E+00  0.000E+00  0.000E+00  3.89304E+01  3.054E-01  2.000E+01  2.000E+04 -9.006E-01
   1   13   23     2     8    2.6048E+05 -1.2756E+04   2.7323E+05  0.000E+00  0.000E+00  0.000E+00  3.86915E+01  3.165E-01  2.000E+01  2.000E+04 -6.378E-01
   1   14   22     2     9    2.7323E+05 -7.1367E+03   2.8037E+05  0.000E+00  0.000E+00  0.000E+00  3.84485E+01  3.235E-01  2.000E+01  2.000E+04 -3.568E-01
   1   14   22     3     1    1.0236E+06 -1.5260E+04   1.0389E+06  0.000E+00  0.000E+00  0.000E+00  3.80423E+01  4.868E-01  2.000E+01  2.000E+04 -7.630E-01
   1   15   23     3     2    1.0389E+06 -2.3492E+04   1.0624E+06  0.000E+00  0.000E+00  0.000E+00  3.71589E+01  4.922E-01  2.000E+01  2.000E+04 -1.175E+00
   1   15   24     3     3    1.0624E+06 -1.9563E+04   1.0820E+06  0.000E+00  0.000E+00  0.000E+00  3.62760E+01  4.983E-01  2.000E+01  2.000E+04 -9.781E-01
   1   15   25     3     4    1.0820E+06 -1.9161E+04   1.1011E+06  0.000E+00  0.000E+00  0.000E+00  3.53925E+01  5.036E-01  2.000E+01  2.000E+04 -9.580E-01
   1   15   26     3     5    1.1011E+06 -2.1886E+04   1.1230E+06  0.000E+00  0.000E+00  0.000E+00  3.45093E+01  5.093E-01  2.000E+01  2.000E+04 -1.094E+00
   1   16   27     3     6    1.1230E+06 -2.9028E+04   1.1520E+06  0.000E+00  0.000E+00  0.000E+00  3.36274E+01  5.163E-01  2.000E+01  2.000E+04 -1.451E+00
   1   17   28     3     7    1.1520E+06 -3.6087E+04   1.1881E+06  0.000E+00  0.000E+00  0.000E+00  3.27473E+01  5.251E-01  2.000E+01  2.000E+04 -1.804E+00
   1   18   29     3     8    1.1881E+06 -4.7099E+04   1.2352E+06  0.000E+00  0.000E+00  0.000E+00  3.18695E+01  5.362E-01  2.000E+01  2.000E+04 -2.355E+00
   1   18   30     3     9    1.2352E+06 -4.3555E+04   1.2788E+06  0.000E+00  0.000E+00  0.000E+00  3.09926E+01  5.482E-01  2.000E+01  2.000E+04 -2.178E+00



1
              HEAD IN LAYER   1 AT END OF TIME STEP   1 IN STRESS PERIOD    3
  ---------------------------------------------------------------------------

          1      2      3      4      5      6      7      8      9     10
         11     12     13     14     15     16     17     18     19     20
         21     22     23     24     25     26     27     28     29     30
 .........................................................................
   1  ****** ****** ****** ****** ****** ****** ****** ****** ****** ******
      ****** ****** ****** ****** ****** ****** ****** ****** ****** ******
      ****** ****** ****** ****** ****** ****** ****** ****** ****** ******
   2  ****** ****** ****** ****** ****** ****** ****** ****** ****** ******
      ****** ****** ****** ****** ****** ****** ****** ****** ****** ******
      ****** ****** ****** ****** ****** ****** ****** ****** ****** ******
   3  ****** ****** ****** ****** ****** ****** ****** ****** ****** ******
      ****** ****** ****** ****** ****** ****** ****** ****** ****** ******
      ****** ****** ****** ****** ****** ****** ****** ****** ****** ******
   4  ****** ****** ****** ****** ****** ****** ****** ****** ****** ******
      ****** ****** ****** ****** ****** ****** ****** ****** ****** ******
      ****** ****** ****** ****** ****** ****** ****** ****** ****** ******
   5  ****** ****** ****** ****** ****** ****** ****** ****** ****** ******
      ****** ****** ****** ****** ****** ****** ****** ****** ****** ******
      ****** ****** ****** ****** ****** ****** ****** ****** ****** ******
   6  ****** ****** ****** ****** ****** ****** ****** ****** ****** ******
      ****** ****** ****** ****** ****** ****** ****** ****** ****** ******
      ****** ****** ****** ****** ****** ****** ****** ****** ****** ******
   7  ****** ****** ****** ****** ****** ****** ****** ****** ****** ******
      ****** ****** ****** ****** ****** ****** ****** ****** ****** ******
      ****** ****** ****** ****** ****** ****** ****** ****** ****** ******
   8  ****** ****** ****** ****** ****** ****** ****** ****** ****** ******
      ****** ****** ****** ****** ****** ****** ****** ****** ****** ******
      ****** ****** ****** ****** ****** ****** ****** ****** ****** ******
   9  ****** ****** ****** ****** ****** ****** ****** ****** ****** ******
      ****** ****** ****** ****** ****** ****** ****** ****** ****** ******
      ****** ****** ****** ****** ****** ****** ****** ****** ****** ******
  10  ****** ****** ****** ****** ****** ****** ****** ****** ****** ******
      ****** ****** ****** ****** ****** ****** ****** ****** ****** ******
      ****** ****** ****** ****** ****** ****** ****** ****** ****** ******
  11  ****** ****** ****** ****** ****** ****** ****** ****** ****** ******
      ****** ****** ****** ****** ****** ****** ****** ****** ****** ******
      ****** ****** ****** ****** ****** ****** ****** ****** ****** ******
  12  ****** ****** ****** ****** ****** ****** ****** ****** ****** ******
      ****** ****** ****** ****** ****** ****** ****** ****** ****** ******
      ****** ****** ****** ****** ****** ****** ****** ****** ****** ******
  13  ****** ****** ****** ****** ****** ****** ****** ****** ****** ******
      ****** ****** ****** ****** ****** ****** ****** ****** ****** ******
      ****** ****** ****** ****** ****** ****** ****** ****** ****** ******
  14  ****** ****** ****** ****** ****** ****** ****** ****** ****** ******
      ****** ****** ****** ****** ****** ****** ****** ****** ****** ******
      ****** ****** ****** ****** ****** ****** ****** ****** ****** ******
  15  ****** ****** ****** ****** ****** ****** ****** ****** ****** ******
      ****** ****** ****** ****** ****** ****** ****** ****** ****** ******
      ****** ****** ****** ****** ****** ****** ****** ****** ****** ******
  16  ****** ****** ****** ****** ****** ****** ****** ****** ****** ******
      ****** ****** ****** ****** ****** ****** ****** ****** ****** ******
      ****** ****** ****** ****** ****** ****** ****** ****** ****** ******
  17  ****** ****** ****** ****** ****** ****** ****** ****** ****** ******
      ****** ****** ****** ****** ****** ****** ****** ****** ****** ******
      ****** ****** ****** ****** ****** ****** ****** ****** ****** ******
  18  ****** ****** ****** ****** ****** ****** ****** ****** ****** ******
      ****** ****** ****** ****** ****** ****** ****** ****** ****** ******
      ****** ****** ****** ****** ****** ****** ****** ****** ****** ******
  19  ****** ****** ****** ****** ****** ****** ****** ****** ****** ******
      ****** ****** ****** ****** ****** ****** ****** ****** ****** ******
      ****** ****** ****** ****** ****** ****** ****** ****** ****** ******
  20  ****** ****** ****** ****** ****** ****** ****** ****** ****** ******
      ****** ****** ****** ****** ****** ****** ****** ****** ****** ******
      ****** ****** ****** ****** ****** ****** ****** ****** ****** ******
  21  ****** ****** ****** ****** ****** ****** ****** ****** ****** ******
      ****** ****** ****** ****** ****** ****** ****** ****** ****** ******
      ****** ****** ****** ****** ****** ****** ****** ****** ****** ******
  22  ****** ****** ****** ****** ****** ****** ****** ****** ****** ******
      ****** ****** ****** ****** ****** ****** ****** ****** ****** ******
      ****** ****** ****** ****** ****** ****** ****** ****** ****** ******
  23  ****** ****** ****** ****** ****** ****** ****** ****** ****** ******
      ****** ****** ****** ****** ****** ****** ****** ****** ****** ******
      ****** ****** ****** ****** ****** ****** ****** ****** ****** ******
  24  ****** ****** ****** ****** ****** ****** ****** ****** ****** ******
      ****** ****** ****** ****** ****** ****** ****** ****** ****** ******
      ****** ****** ****** ****** ****** ****** ****** ****** ****** ******
  25  ****** ****** ****** ****** ****** ****** ****** ****** ****** ******
      ****** ****** ****** ****** ****** ****** ****** ****** ****** ******
      ****** ****** ****** ****** ****** ****** ****** ****** ****** ******

 HEAD WILL BE SAVED ON UNIT   51 AT END OF TIME STEP    1, STRESS PERIOD    3
1
  VOLUMETRIC BUDGET FOR ENTIRE MODEL AT END OF TIME STEP    1, STRESS PERIOD   3
  ------------------------------------------------------------------------------

     CUMULATIVE VOLUMES      L**3       RATES FOR THIS TIME STEP      L**3/T
     ------------------                 ------------------------

           IN:                                      IN:
           ---                                      ---
             STORAGE =    20658244.0377               STORAGE =        3088.7230
       CONSTANT HEAD =   340775663.0698         CONSTANT HEAD =     1275688.3234
               WELLS =           0.0000                 WELLS =           0.0000
            RECHARGE =     6292800.0000              RECHARGE =           0.0000
      STREAM LEAKAGE =           0.0000        STREAM LEAKAGE =           0.0000

            TOTAL IN =   367726707.1075              TOTAL IN =     1278777.0463

          OUT:                                     OUT:
          ----                                     ----
             STORAGE =           0.0000               STORAGE =           0.0000
       CONSTANT HEAD =           0.0000         CONSTANT HEAD =           0.0000
               WELLS =    41100000.0000                 WELLS =      150000.0000
            RECHARGE =           0.0000              RECHARGE =           0.0000
      STREAM LEAKAGE =   326626714.8952        STREAM LEAKAGE =     1128777.0913

           TOTAL OUT =   367726714.8952             TOTAL OUT =     1278777.0913

            IN - OUT =          -7.7877              IN - OUT =      -4.4991E-02

 PERCENT DISCREPANCY =          -0.00     PERCENT DISCREPANCY =          -0.00






         TIME SUMMARY AT END OF TIME STEP    1 IN STRESS PERIOD    3
                    SECONDS     MINUTES      HOURS       DAYS        YEARS
                    -----------------------------------------------------------
   TIME STEP LENGTH 7.86240E+06 1.31040E+05  2184.0      91.000     0.24914    
 STRESS PERIOD TIME 7.86240E+06 1.31040E+05  2184.0      91.000     0.24914    
         TOTAL TIME 2.36736E+07 3.94560E+05  6576.0      274.00     0.75017    
1
1
                            STRESS PERIOD NO.    4, LENGTH =   91.00000    
                            -----------------------------------------------

                              NUMBER OF TIME STEPS =     1

                               MULTIPLIER FOR DELT =     1.500

                            INITIAL TIME STEP SIZE =   91.00000    

 WELL NO.  LAYER   ROW   COL   STRESS RATE         
 --------------------------------------------------
      1      1      4      5     -0.5000E+05
      2      1      2     11     -0.5000E+05
      3      1      6     11     -0.5000E+05

      3 WELLS

                 RECHARGE =  1.000000E-03

 REUSING STREAM SEGMENT DATA FROM LAST STRESS PERIOD
 
 SOLVING FOR HEAD 


     6 CALLS TO PCG ROUTINE FOR TIME STEP   1 IN STRESS PERIOD    4
    22 TOTAL ITERATIONS

 OUTPUT CONTROL FOR STRESS PERIOD    4   TIME STEP    1
    SAVE BUDGET
    SAVE HEAD FOR ALL LAYERS
    PRINT HEAD FOR ALL LAYERS
 UBDSV2 SAVING "STREAMFLOW OUT  " ON UNIT  50 AT TIME STEP  1, STRESS PERIOD   4



 STREAM LISTING     PERIOD      4   STEP        1

 LAYER ROW COL. STREAM  RCH.  FLOW INTO     FLOW TO   FLOW OUT OF   OVRLND.     DIRECT     STREAM       STREAM     STREAM     STREAM   STREAMBED  STREAMBED
                SEG.NO.  NO.  STRM. RCH.    AQUIFER    STRM. RCH.    RUNOFF     PRECIP       ET          HEAD       DEPTH      WIDTH   CONDCTNC.   GRADIENT

   1   13    1     1     1    1.0000E+05 -2.5438E+04   1.2544E+05  0.000E+00  0.000E+00  0.000E+00  4.84168E+01  1.554E-01  2.000E+01  2.000E+04 -1.272E+00
   1   13    2     1     2    1.2544E+05 -3.4442E+04   1.5988E+05  0.000E+00  0.000E+00  0.000E+00  4.79631E+01  1.790E-01  2.000E+01  2.000E+04 -1.722E+00
   1   14    3     1     3    1.5988E+05 -3.0827E+04   1.9071E+05  0.000E+00  0.000E+00  0.000E+00  4.75094E+01  2.026E-01  2.000E+01  2.000E+04 -1.541E+00
   1   15    4     1     4    1.9071E+05 -3.0696E+04   2.2140E+05  0.000E+00  0.000E+00  0.000E+00  4.70528E+01  2.232E-01  2.000E+01  2.000E+04 -1.535E+00
   1   16    5     1     5    2.2140E+05 -3.2945E+04   2.5435E+05  0.000E+00  0.000E+00  0.000E+00  4.65956E+01  2.433E-01  2.000E+01  2.000E+04 -1.647E+00
   1   16    6     1     6    2.5435E+05 -2.8551E+04   2.8290E+05  0.000E+00  0.000E+00  0.000E+00  4.61367E+01  2.617E-01  2.000E+01  2.000E+04 -1.428E+00
   1   16    7     1     7    2.8290E+05 -2.8274E+04   3.1117E+05  0.000E+00  0.000E+00  0.000E+00  4.56757E+01  2.780E-01  2.000E+01  2.000E+04 -1.414E+00
   1   16    8     1     8    3.1117E+05 -2.8415E+04   3.3959E+05  0.000E+00  0.000E+00  0.000E+00  4.52141E+01  2.936E-01  2.000E+01  2.000E+04 -1.421E+00
   1   16    9     1     9    3.3959E+05 -2.8512E+04   3.6810E+05  0.000E+00  0.000E+00  0.000E+00  4.47519E+01  3.088E-01  2.000E+01  2.000E+04 -1.426E+00
   1   16   10     1    10    3.6810E+05 -2.8619E+04   3.9672E+05  0.000E+00  0.000E+00  0.000E+00  4.42894E+01  3.235E-01  2.000E+01  2.000E+04 -1.431E+00
   1   16   11     1    11    3.9672E+05 -2.9374E+04   4.2609E+05  0.000E+00  0.000E+00  0.000E+00  4.38266E+01  3.380E-01  2.000E+01  2.000E+04 -1.469E+00
   1   16   12     1    12    4.2609E+05 -3.5106E+04   4.6120E+05  0.000E+00  0.000E+00  0.000E+00  4.33650E+01  3.536E-01  2.000E+01  2.000E+04 -1.755E+00
   1   15   13     1    13    4.6120E+05 -3.3184E+04   4.9438E+05  0.000E+00  0.000E+00  0.000E+00  4.29038E+01  3.697E-01  2.000E+01  2.000E+04 -1.659E+00
   1   14   14     1    14    4.9438E+05 -3.3322E+04   5.2771E+05  0.000E+00  0.000E+00  0.000E+00  4.24418E+01  3.849E-01  2.000E+01  2.000E+04 -1.666E+00
   1   13   15     1    15    5.2771E+05 -3.5197E+04   5.6290E+05  0.000E+00  0.000E+00  0.000E+00  4.19798E+01  4.002E-01  2.000E+01  2.000E+04 -1.760E+00
   1   12   16     1    16    5.6290E+05 -4.0908E+04   6.0381E+05  0.000E+00  0.000E+00  0.000E+00  4.15190E+01  4.168E-01  2.000E+01  2.000E+04 -2.045E+00
   1   12   17     1    17    6.0381E+05 -3.2579E+04   6.3639E+05  0.000E+00  0.000E+00  0.000E+00  4.10573E+01  4.323E-01  2.000E+01  2.000E+04 -1.629E+00
   1   12   18     1    18    6.3639E+05 -3.1401E+04   6.6779E+05  0.000E+00  0.000E+00  0.000E+00  4.05933E+01  4.456E-01  2.000E+01  2.000E+04 -1.570E+00
   1   12   19     1    19    6.6779E+05 -3.5650E+04   7.0344E+05  0.000E+00  0.000E+00  0.000E+00  4.01296E+01  4.592E-01  2.000E+01  2.000E+04 -1.782E+00
   1   13   20     1    20    7.0344E+05 -2.6488E+04   7.2993E+05  0.000E+00  0.000E+00  0.000E+00  3.96647E+01  4.715E-01  2.000E+01  2.000E+04 -1.324E+00
   1   14   21     1    21    7.2993E+05 -1.9681E+04   7.4961E+05  0.000E+00  0.000E+00  0.000E+00  3.91965E+01  4.806E-01  2.000E+01  2.000E+04 -9.840E-01
   1   14   22     1    22    7.4961E+05 -1.8094E+03   7.5142E+05  0.000E+00  0.000E+00  0.000E+00  3.87234E+01  4.848E-01  2.000E+01  2.000E+04 -9.047E-02
   1    9   30     2     1    5.0000E+04 -2.6568E+04   7.6568E+04  0.000E+00  0.000E+00  0.000E+00  4.02585E+01  1.335E-01  2.000E+01  2.000E+04 -1.328E+00
   1    9   29     2     2    7.6568E+04 -2.9024E+04   1.0559E+05  0.000E+00  0.000E+00  0.000E+00  4.00410E+01  1.660E-01  2.000E+01  2.000E+04 -1.451E+00
   1    9   28     2     3    1.0559E+05 -3.3283E+04   1.3887E+05  0.000E+00  0.000E+00  0.000E+00  3.98231E+01  1.981E-01  2.000E+01  2.000E+04 -1.664E+00
   1    9   27     2     4    1.3887E+05 -4.7324E+04   1.8620E+05  0.000E+00  0.000E+00  0.000E+00  3.96100E+01  2.350E-01  2.000E+01  2.000E+04 -2.366E+00
   1   10   26     2     5    1.8620E+05 -3.3269E+04   2.1947E+05  0.000E+00  0.000E+00  0.000E+00  3.93934E+01  2.684E-01  2.000E+01  2.000E+04 -1.663E+00
   1   11   25     2     6    2.1947E+05 -2.4896E+04   2.4436E+05  0.000E+00  0.000E+00  0.000E+00  3.91659E+01  2.909E-01  2.000E+01  2.000E+04 -1.245E+00
   1   12   24     2     7    2.4436E+05 -1.8325E+04   2.6269E+05  0.000E+00  0.000E+00  0.000E+00  3.89319E+01  3.069E-01  2.000E+01  2.000E+04 -9.162E-01
   1   13   23     2     8    2.6269E+05 -1.3010E+04   2.7570E+05  0.000E+00  0.000E+00  0.000E+00  3.86931E+01  3.181E-01  2.000E+01  2.000E+04 -6.505E-01
   1   14   22     2     9    2.7570E+05 -7.2722E+03   2.8297E+05  0.000E+00  0.000E+00  0.000E+00  3.84503E+01  3.253E-01  2.000E+01  2.000E+04 -3.636E-01
   1   14   22     3     1    1.0344E+06 -1.5370E+04   1.0498E+06  0.000E+00  0.000E+00  0.000E+00  3.80454E+01  4.898E-01  2.000E+01  2.000E+04 -7.685E-01
   1   15   23     3     2    1.0498E+06 -2.3776E+04   1.0735E+06  0.000E+00  0.000E+00  0.000E+00  3.71620E+01  4.953E-01  2.000E+01  2.000E+04 -1.189E+00
   1   15   24     3     3    1.0735E+06 -1.9800E+04   1.0933E+06  0.000E+00  0.000E+00  0.000E+00  3.62792E+01  5.014E-01  2.000E+01  2.000E+04 -9.900E-01
   1   15   25     3     4    1.0933E+06 -1.9397E+04   1.1127E+06  0.000E+00  0.000E+00  0.000E+00  3.53957E+01  5.068E-01  2.000E+01  2.000E+04 -9.699E-01
   1   15   26     3     5    1.1127E+06 -2.2163E+04   1.1349E+06  0.000E+00  0.000E+00  0.000E+00  3.45125E+01  5.125E-01  2.000E+01  2.000E+04 -1.108E+00
   1   16   27     3     6    1.1349E+06 -2.9361E+04   1.1643E+06  0.000E+00  0.000E+00  0.000E+00  3.36307E+01  5.195E-01  2.000E+01  2.000E+04 -1.468E+00
   1   17   28     3     7    1.1643E+06 -3.6428E+04   1.2007E+06  0.000E+00  0.000E+00  0.000E+00  3.27506E+01  5.284E-01  2.000E+01  2.000E+04 -1.821E+00
   1   18   29     3     8    1.2007E+06 -4.7418E+04   1.2481E+06  0.000E+00  0.000E+00  0.000E+00  3.18729E+01  5.396E-01  2.000E+01  2.000E+04 -2.371E+00
   1   18   30     3     9    1.2481E+06 -4.3823E+04   1.2919E+06  0.000E+00  0.000E+00  0.000E+00  3.09960E+01  5.515E-01  2.000E+01  2.000E+04 -2.191E+00



1
              HEAD IN LAYER   1 AT END OF TIME STEP   1 IN STRESS PERIOD    4
  ---------------------------------------------------------------------------

          1      2      3      4      5      6      7      8      9     10
         11     12     13     14     15     16     17     18     19     20
         21     22     23     24     25     26     27     28     29     30
 .........................................................................
   1  ****** ****** ****** ****** ****** ****** ****** ****** ****** ******
      ****** ****** ****** ****** ****** ****** ****** ****** ****** ******
      ****** ****** ****** ****** ****** ****** ****** ****** ****** ******
   2  ****** ****** ****** ****** ****** ****** ****** ****** ****** ******
      ****** ****** ****** ****** ****** ****** ****** ****** ****** ******
      ****** ****** ****** ****** ****** ****** ****** ****** ****** ******
   3  ****** ****** ****** ****** ****** ****** ****** ****** ****** ******
      ****** ****** ****** ****** ****** ****** ****** ****** ****** ******
      ****** ****** ****** ****** ****** ****** ****** ****** ****** ******
   4  ****** ****** ****** ****** ****** ****** ****** ****** ****** ******
      ****** ****** ****** ****** ****** ****** ****** ****** ****** ******
      ****** ****** ****** ****** ****** ****** ****** ****** ****** ******
   5  ****** ****** ****** ****** ****** ****** ****** ****** ****** ******
      ****** ****** ****** ****** ****** ****** ****** ****** ****** ******
      ****** ****** ****** ****** ****** ****** ****** ****** ****** ******
   6  ****** ****** ****** ****** ****** ****** ****** ****** ****** ******
      ****** ****** ****** ****** ****** ****** ****** ****** ****** ******
      ****** ****** ****** ****** ****** ****** ****** ****** ****** ******
   7  ****** ****** ****** ****** ****** ****** ****** ****** ****** ******
      ****** ****** ****** ****** ****** ****** ****** ****** ****** ******
      ****** ****** ****** ****** ****** ****** ****** ****** ****** ******
   8  ****** ****** ****** ****** ****** ****** ****** ****** ****** ******
      ****** ****** ****** ****** ****** ****** ****** ****** ****** ******
      ****** ****** ****** ****** ****** ****** ****** ****** ****** ******
   9  ****** ****** ****** ****** ****** ****** ****** ****** ****** ******
      ****** ****** ****** ****** ****** ****** ****** ****** ****** ******
      ****** ****** ****** ****** ****** ****** ****** ****** ****** ******
  10  ****** ****** ****** ****** ****** ****** ****** ****** ****** ******
      ****** ****** ****** ****** ****** ****** ****** ****** ****** ******
      ****** ****** ****** ****** ****** ****** ****** ****** ****** ******
  11  ****** ****** ****** ****** ****** ****** ****** ****** ****** ******
      ****** ****** ****** ****** ****** ****** ****** ****** ****** ******
      ****** ****** ****** ****** ****** ****** ****** ****** ****** ******
  12  ****** ****** ****** ****** ****** ****** ****** ****** ****** ******
      ****** ****** ****** ****** ****** ****** ****** ****** ****** ******
      ****** ****** ****** ****** ****** ****** ****** ****** ****** ******
  13  ****** ****** ****** ****** ****** ****** ****** ****** ****** ******
      ****** ****** ****** ****** ****** ****** ****** ****** ****** ******
      ****** ****** ****** ****** ****** ****** ****** ****** ****** ******
  14  ****** ****** ****** ****** ****** ****** ****** ****** ****** ******
      ****** ****** ****** ****** ****** ****** ****** ****** ****** ******
      ****** ****** ****** ****** ****** ****** ****** ****** ****** ******
  15  ****** ****** ****** ****** ****** ****** ****** ****** ****** ******
      ****** ****** ****** ****** ****** ****** ****** ****** ****** ******
      ****** ****** ****** ****** ****** ****** ****** ****** ****** ******
  16  ****** ****** ****** ****** ****** ****** ****** ****** ****** ******
      ****** ****** ****** ****** ****** ****** ****** ****** ****** ******
      ****** ****** ****** ****** ****** ****** ****** ****** ****** ******
  17  ****** ****** ****** ****** ****** ****** ****** ****** ****** ******
      ****** ****** ****** ****** ****** ****** ****** ****** ****** ******
      ****** ****** ****** ****** ****** ****** ****** ****** ****** ******
  18  ****** ****** ****** ****** ****** ****** ****** ****** ****** ******
      ****** ****** ****** ****** ****** ****** ****** ****** ****** ******
      ****** ****** ****** ****** ****** ****** ****** ****** ****** ******
  19  ****** ****** ****** ****** ****** ****** ****** ****** ****** ******
      ****** ****** ****** ****** ****** ****** ****** ****** ****** ******
      ****** ****** ****** ****** ****** ****** ****** ****** ****** ******
  20  ****** ****** ****** ****** ****** ****** ****** ****** ****** ******
      ****** ****** ****** ****** ****** ****** ****** ****** ****** ******
      ****** ****** ****** ****** ****** ****** ****** ****** ****** ******
  21  ****** ****** ****** ****** ****** ****** ****** ****** ****** ******
      ****** ****** ****** ****** ****** ****** ****** ****** ****** ******
      ****** ****** ****** ****** ****** ****** ****** ****** ****** ******
  22  ****** ****** ****** ****** ****** ****** ****** ****** ****** ******
      ****** ****** ****** ****** ****** ****** ****** ****** ****** ******
      ****** ****** ****** ****** ****** ****** ****** ****** ****** ******
  23  ****** ****** ****** ****** ****** ****** ****** ****** ****** ******
      ****** ****** ****** ****** ****** ****** ****** ****** ****** ******
      ****** ****** ****** ****** ****** ****** ****** ****** ****** ******
  24  ****** ****** ****** ****** ****** ****** ****** ****** ****** ******
      ****** ****** ****** ****** ****** ****** ****** ****** ****** ******
      ****** ****** ****** ****** ****** ****** ****** ****** ****** ******
  25  ****** ****** ****** ****** ****** ****** ****** ****** ****** ******
      ****** ****** ****** ****** ****** ****** ****** ****** ****** ******
      ****** ****** ****** ****** ****** ****** ****** ****** ****** ******

 HEAD WILL BE SAVED ON UNIT   51 AT END OF TIME STEP    1, STRESS PERIOD    4
1
  VOLUMETRIC BUDGET FOR ENTIRE MODEL AT END OF TIME STEP    1, STRESS PERIOD   4
  ------------------------------------------------------------------------------

     CUMULATIVE VOLUMES      L**3       RATES FOR THIS TIME STEP      L**3/T
     ------------------                 ------------------------

           IN:                                      IN:
           ---                                      ---
             STORAGE =    20658244.0377               STORAGE =           0.0000
       CONSTANT HEAD =   455932212.6410         CONSTANT HEAD =     1265456.5887
               WELLS =           0.0000                 WELLS =           0.0000
            RECHARGE =     8804400.0000              RECHARGE =       27600.0000
      STREAM LEAKAGE =           0.0000        STREAM LEAKAGE =           0.0000

            TOTAL IN =   485394856.6787              TOTAL IN =     1293056.5887

          OUT:                                     OUT:
          ----                                     ----
             STORAGE =      103095.5684               STORAGE =        1132.9183
       CONSTANT HEAD =           0.0000         CONSTANT HEAD =           0.0000
               WELLS =    54750000.0000                 WELLS =      150000.0000
            RECHARGE =           0.0000              RECHARGE =           0.0000
      STREAM LEAKAGE =   430541767.0259        STREAM LEAKAGE =     1141923.6498

           TOTAL OUT =   485394862.5944             TOTAL OUT =     1293056.5681

            IN - OUT =          -5.9156              IN - OUT =       2.0572E-02

 PERCENT DISCREPANCY =          -0.00     PERCENT DISCREPANCY =           0.00






         TIME SUMMARY AT END OF TIME STEP    1 IN STRESS PERIOD    4
                    SECONDS     MINUTES      HOURS       DAYS        YEARS
                    -----------------------------------------------------------
   TIME STEP LENGTH 7.86240E+06 1.31040E+05  2184.0      91.000     0.24914    
 STRESS PERIOD TIME 7.86240E+06 1.31040E+05  2184.0      91.000     0.24914    
         TOTAL TIME 3.15360E+07 5.25600E+05  8760.0      365.00     0.99932    
1
1
                            STRESS PERIOD NO.    5, LENGTH =   92.00000    
                            -----------------------------------------------

                              NUMBER OF TIME STEPS =     1

                               MULTIPLIER FOR DELT =     1.500

                            INITIAL TIME STEP SIZE =   92.00000    

 WELL NO.  LAYER   ROW   COL   STRESS RATE         
 --------------------------------------------------
      1      1      4      5     -0.5000E+05
      2      1      2     11     -0.5000E+05
      3      1      6     11     -0.5000E+05

      3 WELLS

                 RECHARGE =  5.000000E-04

 REUSING STREAM SEGMENT DATA FROM LAST STRESS PERIOD
 
 SOLVING FOR HEAD 


     5 CALLS TO PCG ROUTINE FOR TIME STEP   1 IN STRESS PERIOD    5
    20 TOTAL ITERATIONS

 OUTPUT CONTROL FOR STRESS PERIOD    5   TIME STEP    1
    SAVE BUDGET
    SAVE HEAD FOR ALL LAYERS
    PRINT HEAD FOR ALL LAYERS
 UBDSV2 SAVING "STREAMFLOW OUT  " ON UNIT  50 AT TIME STEP  1, STRESS PERIOD   5



 STREAM LISTING     PERIOD      5   STEP        1

 LAYER ROW COL. STREAM  RCH.  FLOW INTO     FLOW TO   FLOW OUT OF   OVRLND.     DIRECT     STREAM       STREAM     STREAM     STREAM   STREAMBED  STREAMBED
                SEG.NO.  NO.  STRM. RCH.    AQUIFER    STRM. RCH.    RUNOFF     PRECIP       ET          HEAD       DEPTH      WIDTH   CONDCTNC.   GRADIENT

   1   13    1     1     1    1.0000E+05 -2.5239E+04   1.2524E+05  0.000E+00  0.000E+00  0.000E+00  4.84167E+01  1.553E-01  2.000E+01  2.000E+04 -1.262E+00
   1   13    2     1     2    1.2524E+05 -3.4204E+04   1.5944E+05  0.000E+00  0.000E+00  0.000E+00  4.79629E+01  1.788E-01  2.000E+01  2.000E+04 -1.710E+00
   1   14    3     1     3    1.5944E+05 -3.0593E+04   1.9004E+05  0.000E+00  0.000E+00  0.000E+00  4.75090E+01  2.022E-01  2.000E+01  2.000E+04 -1.530E+00
   1   15    4     1     4    1.9004E+05 -3.0470E+04   2.2051E+05  0.000E+00  0.000E+00  0.000E+00  4.70522E+01  2.227E-01  2.000E+01  2.000E+04 -1.523E+00
   1   16    5     1     5    2.2051E+05 -3.2740E+04   2.5325E+05  0.000E+00  0.000E+00  0.000E+00  4.65950E+01  2.427E-01  2.000E+01  2.000E+04 -1.637E+00
   1   16    6     1     6    2.5325E+05 -2.8373E+04   2.8162E+05  0.000E+00  0.000E+00  0.000E+00  4.61360E+01  2.610E-01  2.000E+01  2.000E+04 -1.419E+00
   1   16    7     1     7    2.8162E+05 -2.8097E+04   3.0972E+05  0.000E+00  0.000E+00  0.000E+00  4.56749E+01  2.772E-01  2.000E+01  2.000E+04 -1.405E+00
   1   16    8     1     8    3.0972E+05 -2.8239E+04   3.3796E+05  0.000E+00  0.000E+00  0.000E+00  4.52132E+01  2.928E-01  2.000E+01  2.000E+04 -1.412E+00
   1   16    9     1     9    3.3796E+05 -2.8336E+04   3.6629E+05  0.000E+00  0.000E+00  0.000E+00  4.47510E+01  3.079E-01  2.000E+01  2.000E+04 -1.417E+00
   1   16   10     1    10    3.6629E+05 -2.8443E+04   3.9473E+05  0.000E+00  0.000E+00  0.000E+00  4.42884E+01  3.225E-01  2.000E+01  2.000E+04 -1.422E+00
   1   16   11     1    11    3.9473E+05 -2.9196E+04   4.2393E+05  0.000E+00  0.000E+00  0.000E+00  4.38256E+01  3.370E-01  2.000E+01  2.000E+04 -1.460E+00
   1   16   12     1    12    4.2393E+05 -3.4898E+04   4.5883E+05  0.000E+00  0.000E+00  0.000E+00  4.33639E+01  3.525E-01  2.000E+01  2.000E+04 -1.745E+00
   1   15   13     1    13    4.5883E+05 -3.2955E+04   4.9178E+05  0.000E+00  0.000E+00  0.000E+00  4.29027E+01  3.686E-01  2.000E+01  2.000E+04 -1.648E+00
   1   14   14     1    14    4.9178E+05 -3.3086E+04   5.2487E+05  0.000E+00  0.000E+00  0.000E+00  4.24405E+01  3.837E-01  2.000E+01  2.000E+04 -1.654E+00
   1   13   15     1    15    5.2487E+05 -3.4963E+04   5.5983E+05  0.000E+00  0.000E+00  0.000E+00  4.19785E+01  3.989E-01  2.000E+01  2.000E+04 -1.748E+00
   1   12   16     1    16    5.5983E+05 -4.0683E+04   6.0051E+05  0.000E+00  0.000E+00  0.000E+00  4.15177E+01  4.154E-01  2.000E+01  2.000E+04 -2.034E+00
   1   12   17     1    17    6.0051E+05 -3.2397E+04   6.3291E+05  0.000E+00  0.000E+00  0.000E+00  4.10559E+01  4.309E-01  2.000E+01  2.000E+04 -1.620E+00
   1   12   18     1    18    6.3291E+05 -3.1226E+04   6.6414E+05  0.000E+00  0.000E+00  0.000E+00  4.05918E+01  4.441E-01  2.000E+01  2.000E+04 -1.561E+00
   1   12   19     1    19    6.6414E+05 -3.5458E+04   6.9960E+05  0.000E+00  0.000E+00  0.000E+00  4.01281E+01  4.577E-01  2.000E+01  2.000E+04 -1.773E+00
   1   13   20     1    20    6.9960E+05 -2.6308E+04   7.2590E+05  0.000E+00  0.000E+00  0.000E+00  3.96632E+01  4.700E-01  2.000E+01  2.000E+04 -1.315E+00
   1   14   21     1    21    7.2590E+05 -1.9525E+04   7.4543E+05  0.000E+00  0.000E+00  0.000E+00  3.91949E+01  4.790E-01  2.000E+01  2.000E+04 -9.763E-01
   1   14   22     1    22    7.4543E+05 -1.7544E+03   7.4718E+05  0.000E+00  0.000E+00  0.000E+00  3.87218E+01  4.831E-01  2.000E+01  2.000E+04 -8.772E-02
   1    9   30     2     1    5.0000E+04 -2.6427E+04   7.6427E+04  0.000E+00  0.000E+00  0.000E+00  4.02584E+01  1.334E-01  2.000E+01  2.000E+04 -1.321E+00
   1    9   29     2     2    7.6427E+04 -2.8883E+04   1.0531E+05  0.000E+00  0.000E+00  0.000E+00  4.00408E+01  1.658E-01  2.000E+01  2.000E+04 -1.444E+00
   1    9   28     2     3    1.0531E+05 -3.3137E+04   1.3845E+05  0.000E+00  0.000E+00  0.000E+00  3.98228E+01  1.978E-01  2.000E+01  2.000E+04 -1.657E+00
   1    9   27     2     4    1.3845E+05 -4.7147E+04   1.8559E+05  0.000E+00  0.000E+00  0.000E+00  3.96096E+01  2.346E-01  2.000E+01  2.000E+04 -2.357E+00
   1   10   26     2     5    1.8559E+05 -3.3084E+04   2.1868E+05  0.000E+00  0.000E+00  0.000E+00  3.93929E+01  2.679E-01  2.000E+01  2.000E+04 -1.654E+00
   1   11   25     2     6    2.1868E+05 -2.4718E+04   2.4339E+05  0.000E+00  0.000E+00  0.000E+00  3.91653E+01  2.903E-01  2.000E+01  2.000E+04 -1.236E+00
   1   12   24     2     7    2.4339E+05 -1.8165E+04   2.6156E+05  0.000E+00  0.000E+00  0.000E+00  3.89311E+01  3.061E-01  2.000E+01  2.000E+04 -9.083E-01
   1   13   23     2     8    2.6156E+05 -1.2881E+04   2.7444E+05  0.000E+00  0.000E+00  0.000E+00  3.86923E+01  3.173E-01  2.000E+01  2.000E+04 -6.440E-01
   1   14   22     2     9    2.7444E+05 -7.2025E+03   2.8164E+05  0.000E+00  0.000E+00  0.000E+00  3.84494E+01  3.244E-01  2.000E+01  2.000E+04 -3.601E-01
   1   14   22     3     1    1.0288E+06 -1.5314E+04   1.0441E+06  0.000E+00  0.000E+00  0.000E+00  3.80438E+01  4.882E-01  2.000E+01  2.000E+04 -7.657E-01
   1   15   23     3     2    1.0441E+06 -2.3631E+04   1.0678E+06  0.000E+00  0.000E+00  0.000E+00  3.71604E+01  4.937E-01  2.000E+01  2.000E+04 -1.182E+00
   1   15   24     3     3    1.0678E+06 -1.9679E+04   1.0874E+06  0.000E+00  0.000E+00  0.000E+00  3.62776E+01  4.998E-01  2.000E+01  2.000E+04 -9.840E-01
   1   15   25     3     4    1.0874E+06 -1.9277E+04   1.1067E+06  0.000E+00  0.000E+00  0.000E+00  3.53941E+01  5.052E-01  2.000E+01  2.000E+04 -9.638E-01
   1   15   26     3     5    1.1067E+06 -2.2023E+04   1.1287E+06  0.000E+00  0.000E+00  0.000E+00  3.45109E+01  5.109E-01  2.000E+01  2.000E+04 -1.101E+00
   1   16   27     3     6    1.1287E+06 -2.9192E+04   1.1579E+06  0.000E+00  0.000E+00  0.000E+00  3.36290E+01  5.179E-01  2.000E+01  2.000E+04 -1.460E+00
   1   17   28     3     7    1.1579E+06 -3.6255E+04   1.1942E+06  0.000E+00  0.000E+00  0.000E+00  3.27489E+01  5.267E-01  2.000E+01  2.000E+04 -1.813E+00
   1   18   29     3     8    1.1942E+06 -4.7256E+04   1.2415E+06  0.000E+00  0.000E+00  0.000E+00  3.18712E+01  5.378E-01  2.000E+01  2.000E+04 -2.363E+00
   1   18   30     3     9    1.2415E+06 -4.3687E+04   1.2851E+06  0.000E+00  0.000E+00  0.000E+00  3.09942E+01  5.498E-01  2.000E+01  2.000E+04 -2.184E+00



1
              HEAD IN LAYER   1 AT END OF TIME STEP   1 IN STRESS PERIOD    5
  ---------------------------------------------------------------------------

          1      2      3      4      5      6      7      8      9     10
         11     12     13     14     15     16     17     18     19     20
         21     22     23     24     25     26     27     28     29     30
 .........................................................................
   1  ****** ****** ****** ****** ****** ****** ****** ****** ****** ******
      ****** ****** ****** ****** ****** ****** ****** ****** ****** ******
      ****** ****** ****** ****** ****** ****** ****** ****** ****** ******
   2  ****** ****** ****** ****** ****** ****** ****** ****** ****** ******
      ****** ****** ****** ****** ****** ****** ****** ****** ****** ******
      ****** ****** ****** ****** ****** ****** ****** ****** ****** ******
   3  ****** ****** ****** ****** ****** ****** ****** ****** ****** ******
      ****** ****** ****** ****** ****** ****** ****** ****** ****** ******
      ****** ****** ****** ****** ****** ****** ****** ****** ****** ******
   4  ****** ****** ****** ****** ****** ****** ****** ****** ****** ******
      ****** ****** ****** ****** ****** ****** ****** ****** ****** ******
      ****** ****** ****** ****** ****** ****** ****** ****** ****** ******
   5  ****** ****** ****** ****** ****** ****** ****** ****** ****** ******
      ****** ****** ****** ****** ****** ****** ****** ****** ****** ******
      ****** ****** ****** ****** ****** ****** ****** ****** ****** ******
   6  ****** ****** ****** ****** ****** ****** ****** ****** ****** ******
      ****** ****** ****** ****** ****** ****** ****** ****** ****** ******
      ****** ****** ****** ****** ****** ****** ****** ****** ****** ******
   7  ****** ****** ****** ****** ****** ****** ****** ****** ****** ******
      ****** ****** ****** ****** ****** ****** ****** ****** ****** ******
      ****** ****** ****** ****** ****** ****** ****** ****** ****** ******
   8  ****** ****** ****** ****** ****** ****** ****** ****** ****** ******
      ****** ****** ****** ****** ****** ****** ****** ****** ****** ******
      ****** ****** ****** ****** ****** ****** ****** ****** ****** ******
   9  ****** ****** ****** ****** ****** ****** ****** ****** ****** ******
      ****** ****** ****** ****** ****** ****** ****** ****** ****** ******
      ****** ****** ****** ****** ****** ****** ****** ****** ****** ******
  10  ****** ****** ****** ****** ****** ****** ****** ****** ****** ******
      ****** ****** ****** ****** ****** ****** ****** ****** ****** ******
      ****** ****** ****** ****** ****** ****** ****** ****** ****** ******
  11  ****** ****** ****** ****** ****** ****** ****** ****** ****** ******
      ****** ****** ****** ****** ****** ****** ****** ****** ****** ******
      ****** ****** ****** ****** ****** ****** ****** ****** ****** ******
  12  ****** ****** ****** ****** ****** ****** ****** ****** ****** ******
      ****** ****** ****** ****** ****** ****** ****** ****** ****** ******
      ****** ****** ****** ****** ****** ****** ****** ****** ****** ******
  13  ****** ****** ****** ****** ****** ****** ****** ****** ****** ******
      ****** ****** ****** ****** ****** ****** ****** ****** ****** ******
      ****** ****** ****** ****** ****** ****** ****** ****** ****** ******
  14  ****** ****** ****** ****** ****** ****** ****** ****** ****** ******
      ****** ****** ****** ****** ****** ****** ****** ****** ****** ******
      ****** ****** ****** ****** ****** ****** ****** ****** ****** ******
  15  ****** ****** ****** ****** ****** ****** ****** ****** ****** ******
      ****** ****** ****** ****** ****** ****** ****** ****** ****** ******
      ****** ****** ****** ****** ****** ****** ****** ****** ****** ******
  16  ****** ****** ****** ****** ****** ****** ****** ****** ****** ******
      ****** ****** ****** ****** ****** ****** ****** ****** ****** ******
      ****** ****** ****** ****** ****** ****** ****** ****** ****** ******
  17  ****** ****** ****** ****** ****** ****** ****** ****** ****** ******
      ****** ****** ****** ****** ****** ****** ****** ****** ****** ******
      ****** ****** ****** ****** ****** ****** ****** ****** ****** ******
  18  ****** ****** ****** ****** ****** ****** ****** ****** ****** ******
      ****** ****** ****** ****** ****** ****** ****** ****** ****** ******
      ****** ****** ****** ****** ****** ****** ****** ****** ****** ******
  19  ****** ****** ****** ****** ****** ****** ****** ****** ****** ******
      ****** ****** ****** ****** ****** ****** ****** ****** ****** ******
      ****** ****** ****** ****** ****** ****** ****** ****** ****** ******
  20  ****** ****** ****** ****** ****** ****** ****** ****** ****** ******
      ****** ****** ****** ****** ****** ****** ****** ****** ****** ******
      ****** ****** ****** ****** ****** ****** ****** ****** ****** ******
  21  ****** ****** ****** ****** ****** ****** ****** ****** ****** ******
      ****** ****** ****** ****** ****** ****** ****** ****** ****** ******
      ****** ****** ****** ****** ****** ****** ****** ****** ****** ******
  22  ****** ****** ****** ****** ****** ****** ****** ****** ****** ******
      ****** ****** ****** ****** ****** ****** ****** ****** ****** ******
      ****** ****** ****** ****** ****** ****** ****** ****** ****** ******
  23  ****** ****** ****** ****** ****** ****** ****** ****** ****** ******
      ****** ****** ****** ****** ****** ****** ****** ****** ****** ******
      ****** ****** ****** ****** ****** ****** ****** ****** ****** ******
  24  ****** ****** ****** ****** ****** ****** ****** ****** ****** ******
      ****** ****** ****** ****** ****** ****** ****** ****** ****** ******
      ****** ****** ****** ****** ****** ****** ****** ****** ****** ******
  25  ****** ****** ****** ****** ****** ****** ****** ****** ****** ******
      ****** ****** ****** ****** ****** ****** ****** ****** ****** ******
      ****** ****** ****** ****** ****** ****** ****** ****** ****** ******

 HEAD WILL BE SAVED ON UNIT   51 AT END OF TIME STEP    1, STRESS PERIOD    5
1
  VOLUMETRIC BUDGET FOR ENTIRE MODEL AT END OF TIME STEP    1, STRESS PERIOD   5
  ------------------------------------------------------------------------------

     CUMULATIVE VOLUMES      L**3       RATES FOR THIS TIME STEP      L**3/T
     ------------------                 ------------------------

           IN:                                      IN:
           ---                                      ---
             STORAGE =    20712176.0798               STORAGE =         586.2178
       CONSTANT HEAD =   572841491.4528         CONSTANT HEAD =     1270753.0306
               WELLS =           0.0000                 WELLS =           0.0000
            RECHARGE =    10074000.0000              RECHARGE =       13800.0000
      STREAM LEAKAGE =           0.0000        STREAM LEAKAGE =           0.0000

            TOTAL IN =   603627667.5326              TOTAL IN =     1285139.2484

          OUT:                                     OUT:
          ----                                     ----
             STORAGE =      103095.5684               STORAGE =           0.0000
       CONSTANT HEAD =           0.0000         CONSTANT HEAD =           0.0000
               WELLS =    68550000.0000                 WELLS =      150000.0000
            RECHARGE =           0.0000              RECHARGE =           0.0000
      STREAM LEAKAGE =   534974579.7466        STREAM LEAKAGE =     1135139.2687

           TOTAL OUT =   603627675.3150             TOTAL OUT =     1285139.2687

            IN - OUT =          -7.7824              IN - OUT =      -2.0291E-02

 PERCENT DISCREPANCY =          -0.00     PERCENT DISCREPANCY =          -0.00






         TIME SUMMARY AT END OF TIME STEP    1 IN STRESS PERIOD    5
                    SECONDS     MINUTES      HOURS       DAYS        YEARS
                    -----------------------------------------------------------
   TIME STEP LENGTH 7.94880E+06 1.32480E+05  2208.0      92.000     0.25188    
 STRESS PERIOD TIME 7.94880E+06 1.32480E+05  2208.0      92.000     0.25188    
         TOTAL TIME 3.94848E+07 6.58080E+05  10968.      457.00      1.2512    
1
1
                            STRESS PERIOD NO.    6, LENGTH =   91.00000    
                            -----------------------------------------------

                              NUMBER OF TIME STEPS =     1

                               MULTIPLIER FOR DELT =     1.500

                            INITIAL TIME STEP SIZE =   91.00000    

 WELL NO.  LAYER   ROW   COL   STRESS RATE         
 --------------------------------------------------
      1      1      4      5     -0.5000E+05
      2      1      2     11     -0.5000E+05
      3      1      6     11     -0.5000E+05

      3 WELLS

                 RECHARGE =  2.000000E-03

 REUSING STREAM SEGMENT DATA FROM LAST STRESS PERIOD
 
 SOLVING FOR HEAD 


     6 CALLS TO PCG ROUTINE FOR TIME STEP   1 IN STRESS PERIOD    6
    22 TOTAL ITERATIONS

 OUTPUT CONTROL FOR STRESS PERIOD    6   TIME STEP    1
    SAVE BUDGET
    SAVE HEAD FOR ALL LAYERS
    PRINT HEAD FOR ALL LAYERS
 UBDSV2 SAVING "STREAMFLOW OUT  " ON UNIT  50 AT TIME STEP  1, STRESS PERIOD   6



 STREAM LISTING     PERIOD      6   STEP        1

 LAYER ROW COL. STREAM  RCH.  FLOW INTO     FLOW TO   FLOW OUT OF   OVRLND.     DIRECT     STREAM       STREAM     STREAM     STREAM   STREAMBED  STREAMBED
                SEG.NO.  NO.  STRM. RCH.    AQUIFER    STRM. RCH.    RUNOFF     PRECIP       ET          HEAD       DEPTH      WIDTH   CONDCTNC.   GRADIENT

   1   13    1     1     1    1.0000E+05 -2.5891E+04   1.2589E+05  0.000E+00  0.000E+00  0.000E+00  4.84170E+01  1.556E-01  2.000E+01  2.000E+04 -1.295E+00
   1   13    2     1     2    1.2589E+05 -3.4984E+04   1.6087E+05  0.000E+00  0.000E+00  0.000E+00  4.79637E+01  1.796E-01  2.000E+01  2.000E+04 -1.749E+00
   1   14    3     1     3    1.6087E+05 -3.1355E+04   1.9223E+05  0.000E+00  0.000E+00  0.000E+00  4.75103E+01  2.034E-01  2.000E+01  2.000E+04 -1.568E+00
   1   15    4     1     4    1.9223E+05 -3.1202E+04   2.2343E+05  0.000E+00  0.000E+00  0.000E+00  4.70539E+01  2.244E-01  2.000E+01  2.000E+04 -1.560E+00
   1   16    5     1     5    2.2343E+05 -3.3401E+04   2.5683E+05  0.000E+00  0.000E+00  0.000E+00  4.65970E+01  2.447E-01  2.000E+01  2.000E+04 -1.670E+00
   1   16    6     1     6    2.5683E+05 -2.8948E+04   2.8578E+05  0.000E+00  0.000E+00  0.000E+00  4.61383E+01  2.633E-01  2.000E+01  2.000E+04 -1.447E+00
   1   16    7     1     7    2.8578E+05 -2.8667E+04   3.1445E+05  0.000E+00  0.000E+00  0.000E+00  4.56774E+01  2.797E-01  2.000E+01  2.000E+04 -1.433E+00
   1   16    8     1     8    3.1445E+05 -2.8809E+04   3.4326E+05  0.000E+00  0.000E+00  0.000E+00  4.52159E+01  2.955E-01  2.000E+01  2.000E+04 -1.440E+00
   1   16    9     1     9    3.4326E+05 -2.8906E+04   3.7216E+05  0.000E+00  0.000E+00  0.000E+00  4.47540E+01  3.108E-01  2.000E+01  2.000E+04 -1.445E+00
   1   16   10     1    10    3.7216E+05 -2.9012E+04   4.0118E+05  0.000E+00  0.000E+00  0.000E+00  4.42915E+01  3.256E-01  2.000E+01  2.000E+04 -1.451E+00
   1   16   11     1    11    4.0118E+05 -2.9772E+04   4.3095E+05  0.000E+00  0.000E+00  0.000E+00  4.38289E+01  3.403E-01  2.000E+01  2.000E+04 -1.489E+00
   1   16   12     1    12    4.3095E+05 -3.5570E+04   4.6652E+05  0.000E+00  0.000E+00  0.000E+00  4.33674E+01  3.561E-01  2.000E+01  2.000E+04 -1.778E+00
   1   15   13     1    13    4.6652E+05 -3.3697E+04   5.0021E+05  0.000E+00  0.000E+00  0.000E+00  4.29064E+01  3.723E-01  2.000E+01  2.000E+04 -1.685E+00
   1   14   14     1    14    5.0021E+05 -3.3852E+04   5.3407E+05  0.000E+00  0.000E+00  0.000E+00  4.24445E+01  3.877E-01  2.000E+01  2.000E+04 -1.693E+00
   1   13   15     1    15    5.3407E+05 -3.5723E+04   5.6979E+05  0.000E+00  0.000E+00  0.000E+00  4.19827E+01  4.031E-01  2.000E+01  2.000E+04 -1.786E+00
   1   12   16     1    16    5.6979E+05 -4.1417E+04   6.1121E+05  0.000E+00  0.000E+00  0.000E+00  4.15221E+01  4.198E-01  2.000E+01  2.000E+04 -2.071E+00
   1   12   17     1    17    6.1121E+05 -3.2988E+04   6.4419E+05  0.000E+00  0.000E+00  0.000E+00  4.10605E+01  4.355E-01  2.000E+01  2.000E+04 -1.649E+00
   1   12   18     1    18    6.4419E+05 -3.1790E+04   6.7598E+05  0.000E+00  0.000E+00  0.000E+00  4.05966E+01  4.488E-01  2.000E+01  2.000E+04 -1.590E+00
   1   12   19     1    19    6.7598E+05 -3.6075E+04   7.1206E+05  0.000E+00  0.000E+00  0.000E+00  4.01330E+01  4.625E-01  2.000E+01  2.000E+04 -1.804E+00
   1   13   20     1    20    7.1206E+05 -2.6884E+04   7.3894E+05  0.000E+00  0.000E+00  0.000E+00  3.96682E+01  4.750E-01  2.000E+01  2.000E+04 -1.344E+00
   1   14   21     1    21    7.3894E+05 -2.0022E+04   7.5897E+05  0.000E+00  0.000E+00  0.000E+00  3.92001E+01  4.842E-01  2.000E+01  2.000E+04 -1.001E+00
   1   14   22     1    22    7.5897E+05 -1.9282E+03   7.6089E+05  0.000E+00  0.000E+00  0.000E+00  3.87271E+01  4.884E-01  2.000E+01  2.000E+04 -9.641E-02
   1    9   30     2     1    5.0000E+04 -2.6872E+04   7.6872E+04  0.000E+00  0.000E+00  0.000E+00  4.02587E+01  1.337E-01  2.000E+01  2.000E+04 -1.344E+00
   1    9   29     2     2    7.6872E+04 -2.9328E+04   1.0620E+05  0.000E+00  0.000E+00  0.000E+00  4.00415E+01  1.665E-01  2.000E+01  2.000E+04 -1.466E+00
   1    9   28     2     3    1.0620E+05 -3.3598E+04   1.3980E+05  0.000E+00  0.000E+00  0.000E+00  3.98238E+01  1.988E-01  2.000E+01  2.000E+04 -1.680E+00
   1    9   27     2     4    1.3980E+05 -4.7711E+04   1.8751E+05  0.000E+00  0.000E+00  0.000E+00  3.96110E+01  2.360E-01  2.000E+01  2.000E+04 -2.386E+00
   1   10   26     2     5    1.8751E+05 -3.3670E+04   2.2118E+05  0.000E+00  0.000E+00  0.000E+00  3.93946E+01  2.696E-01  2.000E+01  2.000E+04 -1.683E+00
   1   11   25     2     6    2.2118E+05 -2.5282E+04   2.4646E+05  0.000E+00  0.000E+00  0.000E+00  3.91673E+01  2.923E-01  2.000E+01  2.000E+04 -1.264E+00
   1   12   24     2     7    2.4646E+05 -1.8670E+04   2.6513E+05  0.000E+00  0.000E+00  0.000E+00  3.89335E+01  3.085E-01  2.000E+01  2.000E+04 -9.335E-01
   1   13   23     2     8    2.6513E+05 -1.3291E+04   2.7842E+05  0.000E+00  0.000E+00  0.000E+00  3.86950E+01  3.200E-01  2.000E+01  2.000E+04 -6.646E-01
   1   14   22     2     9    2.7842E+05 -7.4248E+03   2.8585E+05  0.000E+00  0.000E+00  0.000E+00  3.84522E+01  3.272E-01  2.000E+01  2.000E+04 -3.712E-01
   1   14   22     3     1    1.0467E+06 -1.5492E+04   1.0622E+06  0.000E+00  0.000E+00  0.000E+00  3.80489E+01  4.933E-01  2.000E+01  2.000E+04 -7.746E-01
   1   15   23     3     2    1.0622E+06 -2.4093E+04   1.0863E+06  0.000E+00  0.000E+00  0.000E+00  3.71655E+01  4.989E-01  2.000E+01  2.000E+04 -1.205E+00
   1   15   24     3     3    1.0863E+06 -2.0061E+04   1.1064E+06  0.000E+00  0.000E+00  0.000E+00  3.62828E+01  5.050E-01  2.000E+01  2.000E+04 -1.003E+00
   1   15   25     3     4    1.1064E+06 -1.9656E+04   1.1260E+06  0.000E+00  0.000E+00  0.000E+00  3.53993E+01  5.104E-01  2.000E+01  2.000E+04 -9.828E-01
   1   15   26     3     5    1.1260E+06 -2.2463E+04   1.1485E+06  0.000E+00  0.000E+00  0.000E+00  3.45162E+01  5.162E-01  2.000E+01  2.000E+04 -1.123E+00
   1   16   27     3     6    1.1485E+06 -2.9725E+04   1.1782E+06  0.000E+00  0.000E+00  0.000E+00  3.36344E+01  5.233E-01  2.000E+01  2.000E+04 -1.486E+00
   1   17   28     3     7    1.1782E+06 -3.6800E+04   1.2150E+06  0.000E+00  0.000E+00  0.000E+00  3.27544E+01  5.322E-01  2.000E+01  2.000E+04 -1.840E+00
   1   18   29     3     8    1.2150E+06 -4.7768E+04   1.2628E+06  0.000E+00  0.000E+00  0.000E+00  3.18767E+01  5.434E-01  2.000E+01  2.000E+04 -2.388E+00
   1   18   30     3     9    1.2628E+06 -4.4114E+04   1.3069E+06  0.000E+00  0.000E+00  0.000E+00  3.09999E+01  5.554E-01  2.000E+01  2.000E+04 -2.206E+00



1
              HEAD IN LAYER   1 AT END OF TIME STEP   1 IN STRESS PERIOD    6
  ---------------------------------------------------------------------------

          1      2      3      4      5      6      7      8      9     10
         11     12     13     14     15     16     17     18     19     20
         21     22     23     24     25     26     27     28     29     30
 .........................................................................
   1  ****** ****** ****** ****** ****** ****** ****** ****** ****** ******
      ****** ****** ****** ****** ****** ****** ****** ****** ****** ******
      ****** ****** ****** ****** ****** ****** ****** ****** ****** ******
   2  ****** ****** ****** ****** ****** ****** ****** ****** ****** ******
      ****** ****** ****** ****** ****** ****** ****** ****** ****** ******
      ****** ****** ****** ****** ****** ****** ****** ****** ****** ******
   3  ****** ****** ****** ****** ****** ****** ****** ****** ****** ******
      ****** ****** ****** ****** ****** ****** ****** ****** ****** ******
      ****** ****** ****** ****** ****** ****** ****** ****** ****** ******
   4  ****** ****** ****** ****** ****** ****** ****** ****** ****** ******
      ****** ****** ****** ****** ****** ****** ****** ****** ****** ******
      ****** ****** ****** ****** ****** ****** ****** ****** ****** ******
   5  ****** ****** ****** ****** ****** ****** ****** ****** ****** ******
      ****** ****** ****** ****** ****** ****** ****** ****** ****** ******
      ****** ****** ****** ****** ****** ****** ****** ****** ****** ******
   6  ****** ****** ****** ****** ****** ****** ****** ****** ****** ******
      ****** ****** ****** ****** ****** ****** ****** ****** ****** ******
      ****** ****** ****** ****** ****** ****** ****** ****** ****** ******
   7  ****** ****** ****** ****** ****** ****** ****** ****** ****** ******
      ****** ****** ****** ****** ****** ****** ****** ****** ****** ******
      ****** ****** ****** ****** ****** ****** ****** ****** ****** ******
   8  ****** ****** ****** ****** ****** ****** ****** ****** ****** ******
      ****** ****** ****** ****** ****** ****** ****** ****** ****** ******
      ****** ****** ****** ****** ****** ****** ****** ****** ****** ******
   9  ****** ****** ****** ****** ****** ****** ****** ****** ****** ******
      ****** ****** ****** ****** ****** ****** ****** ****** ****** ******
      ****** ****** ****** ****** ****** ****** ****** ****** ****** ******
  10  ****** ****** ****** ****** ****** ****** ****** ****** ****** ******
      ****** ****** ****** ****** ****** ****** ****** ****** ****** ******
      ****** ****** ****** ****** ****** ****** ****** ****** ****** ******
  11  ****** ****** ****** ****** ****** ****** ****** ****** ****** ******
      ****** ****** ****** ****** ****** ****** ****** ****** ****** ******
      ****** ****** ****** ****** ****** ****** ****** ****** ****** ******
  12  ****** ****** ****** ****** ****** ****** ****** ****** ****** ******
      ****** ****** ****** ****** ****** ****** ****** ****** ****** ******
      ****** ****** ****** ****** ****** ****** ****** ****** ****** ******
  13  ****** ****** ****** ****** ****** ****** ****** ****** ****** ******
      ****** ****** ****** ****** ****** ****** ****** ****** ****** ******
      ****** ****** ****** ****** ****** ****** ****** ****** ****** ******
  14  ****** ****** ****** ****** ****** ****** ****** ****** ****** ******
      ****** ****** ****** ****** ****** ****** ****** ****** ****** ******
      ****** ****** ****** ****** ****** ****** ****** ****** ****** ******
  15  ****** ****** ****** ****** ****** ****** ****** ****** ****** ******
      ****** ****** ****** ****** ****** ****** ****** ****** ****** ******
      ****** ****** ****** ****** ****** ****** ****** ****** ****** ******
  16  ****** ****** ****** ****** ****** ****** ****** ****** ****** ******
      ****** ****** ****** ****** ****** ****** ****** ****** ****** ******
      ****** ****** ****** ****** ****** ****** ****** ****** ****** ******
  17  ****** ****** ****** ****** ****** ****** ****** ****** ****** ******
      ****** ****** ****** ****** ****** ****** ****** ****** ****** ******
      ****** ****** ****** ****** ****** ****** ****** ****** ****** ******
  18  ****** ****** ****** ****** ****** ****** ****** ****** ****** ******
      ****** ****** ****** ****** ****** ****** ****** ****** ****** ******
      ****** ****** ****** ****** ****** ****** ****** ****** ****** ******
  19  ****** ****** ****** ****** ****** ****** ****** ****** ****** ******
      ****** ****** ****** ****** ****** ****** ****** ****** ****** ******
      ****** ****** ****** ****** ****** ****** ****** ****** ****** ******
  20  ****** ****** ****** ****** ****** ****** ****** ****** ****** ******
      ****** ****** ****** ****** ****** ****** ****** ****** ****** ******
      ****** ****** ****** ****** ****** ****** ****** ****** ****** ******
  21  ****** ****** ****** ****** ****** ****** ****** ****** ****** ******
      ****** ****** ****** ****** ****** ****** ****** ****** ****** ******
      ****** ****** ****** ****** ****** ****** ****** ****** ****** ******
  22  ****** ****** ****** ****** ****** ****** ****** ****** ****** ******
      ****** ****** ****** ****** ****** ****** ****** ****** ****** ******
      ****** ****** ****** ****** ****** ****** ****** ****** ****** ******
  23  ****** ****** ****** ****** ****** ****** ****** ****** ****** ******
      ****** ****** ****** ****** ****** ****** ****** ****** ****** ******
      ****** ****** ****** ****** ****** ****** ****** ****** ****** ******
  24  ****** ****** ****** ****** ****** ****** ****** ****** ****** ******
      ****** ****** ****** ****** ****** ****** ****** ****** ****** ******
      ****** ****** ****** ****** ****** ****** ****** ****** ****** ******
  25  ****** ****** ****** ****** ****** ****** ****** ****** ****** ******
      ****** ****** ****** ****** ****** ****** ****** ****** ****** ******
      ****** ****** ****** ****** ****** ****** ****** ****** ****** ******

 HEAD WILL BE SAVED ON UNIT   51 AT END OF TIME STEP    1, STRESS PERIOD    6
1
  VOLUMETRIC BUDGET FOR ENTIRE MODEL AT END OF TIME STEP    1, STRESS PERIOD   6
  ------------------------------------------------------------------------------

     CUMULATIVE VOLUMES      L**3       RATES FOR THIS TIME STEP      L**3/T
     ------------------                 ------------------------

           IN:                                      IN:
           ---                                      ---
             STORAGE =    20712176.0798               STORAGE =           0.0000
       CONSTANT HEAD =   686923677.1119         CONSTANT HEAD =     1253650.3919
               WELLS =           0.0000                 WELLS =           0.0000
            RECHARGE =    15097200.0000              RECHARGE =       55200.0000
      STREAM LEAKAGE =           0.0000        STREAM LEAKAGE =           0.0000

            TOTAL IN =   722733053.1917              TOTAL IN =     1308850.3919

          OUT:                                     OUT:
          ----                                     ----
             STORAGE =      279464.7379               STORAGE =        1938.1227
       CONSTANT HEAD =           0.0000         CONSTANT HEAD =           0.0000
               WELLS =    82200000.0000                 WELLS =      150000.0000
            RECHARGE =           0.0000              RECHARGE =           0.0000
      STREAM LEAKAGE =   640253593.1013        STREAM LEAKAGE =     1156912.2347

           TOTAL OUT =   722733057.8392             TOTAL OUT =     1308850.3574

            IN - OUT =          -4.6475              IN - OUT =       3.4450E-02

 PERCENT DISCREPANCY =          -0.00     PERCENT DISCREPANCY =           0.00






         TIME SUMMARY AT END OF TIME STEP    1 IN STRESS PERIOD    6
                    SECONDS     MINUTES      HOURS       DAYS        YEARS
                    -----------------------------------------------------------
   TIME STEP LENGTH 7.86240E+06 1.31040E+05  2184.0      91.000     0.24914    
 STRESS PERIOD TIME 7.86240E+06 1.31040E+05  2184.0      91.000     0.24914    
         TOTAL TIME 4.73472E+07 7.89120E+05  13152.      548.00      1.5003    
1
1
                            STRESS PERIOD NO.    7, LENGTH =   91.00000    
                            -----------------------------------------------

                              NUMBER OF TIME STEPS =     1

                               MULTIPLIER FOR DELT =     1.500

                            INITIAL TIME STEP SIZE =   91.00000    

 WELL NO.  LAYER   ROW   COL   STRESS RATE         
 --------------------------------------------------
      1      1      4      5     -0.5000E+05
      2      1      2     11     -0.5000E+05
      3      1      6     11     -0.1914E+05

      3 WELLS

                 RECHARGE =   0.00000    

 REUSING STREAM SEGMENT DATA FROM LAST STRESS PERIOD
 
 SOLVING FOR HEAD 


     6 CALLS TO PCG ROUTINE FOR TIME STEP   1 IN STRESS PERIOD    7
    22 TOTAL ITERATIONS

 OUTPUT CONTROL FOR STRESS PERIOD    7   TIME STEP    1
    SAVE BUDGET
    SAVE HEAD FOR ALL LAYERS
    PRINT HEAD FOR ALL LAYERS
 UBDSV2 SAVING "STREAMFLOW OUT  " ON UNIT  50 AT TIME STEP  1, STRESS PERIOD   7



 STREAM LISTING     PERIOD      7   STEP        1

 LAYER ROW COL. STREAM  RCH.  FLOW INTO     FLOW TO   FLOW OUT OF   OVRLND.     DIRECT     STREAM       STREAM     STREAM     STREAM   STREAMBED  STREAMBED
                SEG.NO.  NO.  STRM. RCH.    AQUIFER    STRM. RCH.    RUNOFF     PRECIP       ET          HEAD       DEPTH      WIDTH   CONDCTNC.   GRADIENT

   1   13    1     1     1    1.0000E+05 -2.5493E+04   1.2549E+05  0.000E+00  0.000E+00  0.000E+00  4.84168E+01  1.554E-01  2.000E+01  2.000E+04 -1.275E+00
   1   13    2     1     2    1.2549E+05 -3.4597E+04   1.6009E+05  0.000E+00  0.000E+00  0.000E+00  4.79632E+01  1.791E-01  2.000E+01  2.000E+04 -1.730E+00
   1   14    3     1     3    1.6009E+05 -3.0867E+04   1.9096E+05  0.000E+00  0.000E+00  0.000E+00  4.75096E+01  2.027E-01  2.000E+01  2.000E+04 -1.543E+00
   1   15    4     1     4    1.9096E+05 -3.0650E+04   2.2161E+05  0.000E+00  0.000E+00  0.000E+00  4.70529E+01  2.234E-01  2.000E+01  2.000E+04 -1.533E+00
   1   16    5     1     5    2.2161E+05 -3.2779E+04   2.5439E+05  0.000E+00  0.000E+00  0.000E+00  4.65956E+01  2.434E-01  2.000E+01  2.000E+04 -1.639E+00
   1   16    6     1     6    2.5439E+05 -2.8487E+04   2.8287E+05  0.000E+00  0.000E+00  0.000E+00  4.61367E+01  2.617E-01  2.000E+01  2.000E+04 -1.424E+00
   1   16    7     1     7    2.8287E+05 -2.8261E+04   3.1114E+05  0.000E+00  0.000E+00  0.000E+00  4.56757E+01  2.780E-01  2.000E+01  2.000E+04 -1.413E+00
   1   16    8     1     8    3.1114E+05 -2.8438E+04   3.3957E+05  0.000E+00  0.000E+00  0.000E+00  4.52140E+01  2.936E-01  2.000E+01  2.000E+04 -1.422E+00
   1   16    9     1     9    3.3957E+05 -2.8554E+04   3.6813E+05  0.000E+00  0.000E+00  0.000E+00  4.47519E+01  3.088E-01  2.000E+01  2.000E+04 -1.428E+00
   1   16   10     1    10    3.6813E+05 -2.8660E+04   3.9679E+05  0.000E+00  0.000E+00  0.000E+00  4.42894E+01  3.235E-01  2.000E+01  2.000E+04 -1.433E+00
   1   16   11     1    11    3.9679E+05 -2.9383E+04   4.2617E+05  0.000E+00  0.000E+00  0.000E+00  4.38266E+01  3.380E-01  2.000E+01  2.000E+04 -1.469E+00
   1   16   12     1    12    4.2617E+05 -3.5014E+04   4.6118E+05  0.000E+00  0.000E+00  0.000E+00  4.33650E+01  3.536E-01  2.000E+01  2.000E+04 -1.751E+00
   1   15   13     1    13    4.6118E+05 -3.3307E+04   4.9449E+05  0.000E+00  0.000E+00  0.000E+00  4.29038E+01  3.697E-01  2.000E+01  2.000E+04 -1.665E+00
   1   14   14     1    14    4.9449E+05 -3.3622E+04   5.2811E+05  0.000E+00  0.000E+00  0.000E+00  4.24419E+01  3.851E-01  2.000E+01  2.000E+04 -1.681E+00
   1   13   15     1    15    5.2811E+05 -3.5657E+04   5.6377E+05  0.000E+00  0.000E+00  0.000E+00  4.19801E+01  4.005E-01  2.000E+01  2.000E+04 -1.783E+00
   1   12   16     1    16    5.6377E+05 -4.1530E+04   6.0530E+05  0.000E+00  0.000E+00  0.000E+00  4.15195E+01  4.173E-01  2.000E+01  2.000E+04 -2.076E+00
   1   12   17     1    17    6.0530E+05 -3.2832E+04   6.3813E+05  0.000E+00  0.000E+00  0.000E+00  4.10580E+01  4.330E-01  2.000E+01  2.000E+04 -1.642E+00
   1   12   18     1    18    6.3813E+05 -3.1493E+04   6.6963E+05  0.000E+00  0.000E+00  0.000E+00  4.05940E+01  4.463E-01  2.000E+01  2.000E+04 -1.575E+00
   1   12   19     1    19    6.6963E+05 -3.5645E+04   7.0527E+05  0.000E+00  0.000E+00  0.000E+00  4.01304E+01  4.599E-01  2.000E+01  2.000E+04 -1.782E+00
   1   13   20     1    20    7.0527E+05 -2.6301E+04   7.3157E+05  0.000E+00  0.000E+00  0.000E+00  3.96654E+01  4.722E-01  2.000E+01  2.000E+04 -1.315E+00
   1   14   21     1    21    7.3157E+05 -1.9436E+04   7.5101E+05  0.000E+00  0.000E+00  0.000E+00  3.91971E+01  4.812E-01  2.000E+01  2.000E+04 -9.718E-01
   1   14   22     1    22    7.5101E+05 -1.6973E+03   7.5270E+05  0.000E+00  0.000E+00  0.000E+00  3.87239E+01  4.853E-01  2.000E+01  2.000E+04 -8.486E-02
   1    9   30     2     1    5.0000E+04 -2.6311E+04   7.6311E+04  0.000E+00  0.000E+00  0.000E+00  4.02583E+01  1.333E-01  2.000E+01  2.000E+04 -1.316E+00
   1    9   29     2     2    7.6311E+04 -2.8771E+04   1.0508E+05  0.000E+00  0.000E+00  0.000E+00  4.00406E+01  1.656E-01  2.000E+01  2.000E+04 -1.439E+00
   1    9   28     2     3    1.0508E+05 -3.3034E+04   1.3812E+05  0.000E+00  0.000E+00  0.000E+00  3.98225E+01  1.975E-01  2.000E+01  2.000E+04 -1.652E+00
   1    9   27     2     4    1.3812E+05 -4.7052E+04   1.8517E+05  0.000E+00  0.000E+00  0.000E+00  3.96093E+01  2.343E-01  2.000E+01  2.000E+04 -2.353E+00
   1   10   26     2     5    1.8517E+05 -3.2999E+04   2.1817E+05  0.000E+00  0.000E+00  0.000E+00  3.93925E+01  2.675E-01  2.000E+01  2.000E+04 -1.650E+00
   1   11   25     2     6    2.1817E+05 -2.4651E+04   2.4282E+05  0.000E+00  0.000E+00  0.000E+00  3.91648E+01  2.898E-01  2.000E+01  2.000E+04 -1.233E+00
   1   12   24     2     7    2.4282E+05 -1.8119E+04   2.6094E+05  0.000E+00  0.000E+00  0.000E+00  3.89307E+01  3.057E-01  2.000E+01  2.000E+04 -9.059E-01
   1   13   23     2     8    2.6094E+05 -1.2847E+04   2.7379E+05  0.000E+00  0.000E+00  0.000E+00  3.86918E+01  3.168E-01  2.000E+01  2.000E+04 -6.424E-01
   1   14   22     2     9    2.7379E+05 -7.1977E+03   2.8098E+05  0.000E+00  0.000E+00  0.000E+00  3.84489E+01  3.239E-01  2.000E+01  2.000E+04 -3.599E-01
   1   14   22     3     1    1.0337E+06 -1.5273E+04   1.0490E+06  0.000E+00  0.000E+00  0.000E+00  3.80452E+01  4.896E-01  2.000E+01  2.000E+04 -7.636E-01
   1   15   23     3     2    1.0490E+06 -2.3502E+04   1.0725E+06  0.000E+00  0.000E+00  0.000E+00  3.71617E+01  4.951E-01  2.000E+01  2.000E+04 -1.175E+00
   1   15   24     3     3    1.0725E+06 -1.9567E+04   1.0920E+06  0.000E+00  0.000E+00  0.000E+00  3.62788E+01  5.011E-01  2.000E+01  2.000E+04 -9.784E-01
   1   15   25     3     4    1.0920E+06 -1.9163E+04   1.1112E+06  0.000E+00  0.000E+00  0.000E+00  3.53953E+01  5.064E-01  2.000E+01  2.000E+04 -9.581E-01
   1   15   26     3     5    1.1112E+06 -2.1887E+04   1.1331E+06  0.000E+00  0.000E+00  0.000E+00  3.45121E+01  5.121E-01  2.000E+01  2.000E+04 -1.094E+00
   1   16   27     3     6    1.1331E+06 -2.9026E+04   1.1621E+06  0.000E+00  0.000E+00  0.000E+00  3.36301E+01  5.190E-01  2.000E+01  2.000E+04 -1.451E+00
   1   17   28     3     7    1.1621E+06 -3.6084E+04   1.1982E+06  0.000E+00  0.000E+00  0.000E+00  3.27500E+01  5.278E-01  2.000E+01  2.000E+04 -1.804E+00
   1   18   29     3     8    1.1982E+06 -4.7094E+04   1.2453E+06  0.000E+00  0.000E+00  0.000E+00  3.18722E+01  5.389E-01  2.000E+01  2.000E+04 -2.355E+00
   1   18   30     3     9    1.2453E+06 -4.3551E+04   1.2888E+06  0.000E+00  0.000E+00  0.000E+00  3.09952E+01  5.508E-01  2.000E+01  2.000E+04 -2.178E+00



1
              HEAD IN LAYER   1 AT END OF TIME STEP   1 IN STRESS PERIOD    7
  ---------------------------------------------------------------------------

          1      2      3      4      5      6      7      8      9     10
         11     12     13     14     15     16     17     18     19     20
         21     22     23     24     25     26     27     28     29     30
 .........................................................................
   1  ****** ****** ****** ****** ****** ****** ****** ****** ****** ******
      ****** ****** ****** ****** ****** ****** ****** ****** ****** ******
      ****** ****** ****** ****** ****** ****** ****** ****** ****** ******
   2  ****** ****** ****** ****** ****** ****** ****** ****** ****** ******
      ****** ****** ****** ****** ****** ****** ****** ****** ****** ******
      ****** ****** ****** ****** ****** ****** ****** ****** ****** ******
   3  ****** ****** ****** ****** ****** ****** ****** ****** ****** ******
      ****** ****** ****** ****** ****** ****** ****** ****** ****** ******
      ****** ****** ****** ****** ****** ****** ****** ****** ****** ******
   4  ****** ****** ****** ****** ****** ****** ****** ****** ****** ******
      ****** ****** ****** ****** ****** ****** ****** ****** ****** ******
      ****** ****** ****** ****** ****** ****** ****** ****** ****** ******
   5  ****** ****** ****** ****** ****** ****** ****** ****** ****** ******
      ****** ****** ****** ****** ****** ****** ****** ****** ****** ******
      ****** ****** ****** ****** ****** ****** ****** ****** ****** ******
   6  ****** ****** ****** ****** ****** ****** ****** ****** ****** ******
      ****** ****** ****** ****** ****** ****** ****** ****** ****** ******
      ****** ****** ****** ****** ****** ****** ****** ****** ****** ******
   7  ****** ****** ****** ****** ****** ****** ****** ****** ****** ******
      ****** ****** ****** ****** ****** ****** ****** ****** ****** ******
      ****** ****** ****** ****** ****** ****** ****** ****** ****** ******
   8  ****** ****** ****** ****** ****** ****** ****** ****** ****** ******
      ****** ****** ****** ****** ****** ****** ****** ****** ****** ******
      ****** ****** ****** ****** ****** ****** ****** ****** ****** ******
   9  ****** ****** ****** ****** ****** ****** ****** ****** ****** ******
      ****** ****** ****** ****** ****** ****** ****** ****** ****** ******
      ****** ****** ****** ****** ****** ****** ****** ****** ****** ******
  10  ****** ****** ****** ****** ****** ****** ****** ****** ****** ******
      ****** ****** ****** ****** ****** ****** ****** ****** ****** ******
      ****** ****** ****** ****** ****** ****** ****** ****** ****** ******
  11  ****** ****** ****** ****** ****** ****** ****** ****** ****** ******
      ****** ****** ****** ****** ****** ****** ****** ****** ****** ******
      ****** ****** ****** ****** ****** ****** ****** ****** ****** ******
  12  ****** ****** ****** ****** ****** ****** ****** ****** ****** ******
      ****** ****** ****** ****** ****** ****** ****** ****** ****** ******
      ****** ****** ****** ****** ****** ****** ****** ****** ****** ******
  13  ****** ****** ****** ****** ****** ****** ****** ****** ****** ******
      ****** ****** ****** ****** ****** ****** ****** ****** ****** ******
      ****** ****** ****** ****** ****** ****** ****** ****** ****** ******
  14  ****** ****** ****** ****** ****** ****** ****** ****** ****** ******
      ****** ****** ****** ****** ****** ****** ****** ****** ****** ******
      ****** ****** ****** ****** ****** ****** ****** ****** ****** ******
  15  ****** ****** ****** ****** ****** ****** ****** ****** ****** ******
      ****** ****** ****** ****** ****** ****** ****** ****** ****** ******
      ****** ****** ****** ****** ****** ****** ****** ****** ****** ******
  16  ****** ****** ****** ****** ****** ****** ****** ****** ****** ******
      ****** ****** ****** ****** ****** ****** ****** ****** ****** ******
      ****** ****** ****** ****** ****** ****** ****** ****** ****** ******
  17  ****** ****** ****** ****** ****** ****** ****** ****** ****** ******
      ****** ****** ****** ****** ****** ****** ****** ****** ****** ******
      ****** ****** ****** ****** ****** ****** ****** ****** ****** ******
  18  ****** ****** ****** ****** ****** ****** ****** ****** ****** ******
      ****** ****** ****** ****** ****** ****** ****** ****** ****** ******
      ****** ****** ****** ****** ****** ****** ****** ****** ****** ******
  19  ****** ****** ****** ****** ****** ****** ****** ****** ****** ******
      ****** ****** ****** ****** ****** ****** ****** ****** ****** ******
      ****** ****** ****** ****** ****** ****** ****** ****** ****** ******
  20  ****** ****** ****** ****** ****** ****** ****** ****** ****** ******
      ****** ****** ****** ****** ****** ****** ****** ****** ****** ******
      ****** ****** ****** ****** ****** ****** ****** ****** ****** ******
  21  ****** ****** ****** ****** ****** ****** ****** ****** ****** ******
      ****** ****** ****** ****** ****** ****** ****** ****** ****** ******
      ****** ****** ****** ****** ****** ****** ****** ****** ****** ******
  22  ****** ****** ****** ****** ****** ****** ****** ****** ****** ******
      ****** ****** ****** ****** ****** ****** ****** ****** ****** ******
      ****** ****** ****** ****** ****** ****** ****** ****** ****** ******
  23  ****** ****** ****** ****** ****** ****** ****** ****** ****** ******
      ****** ****** ****** ****** ****** ****** ****** ****** ****** ******
      ****** ****** ****** ****** ****** ****** ****** ****** ****** ******
  24  ****** ****** ****** ****** ****** ****** ****** ****** ****** ******
      ****** ****** ****** ****** ****** ****** ****** ****** ****** ******
      ****** ****** ****** ****** ****** ****** ****** ****** ****** ******
  25  ****** ****** ****** ****** ****** ****** ****** ****** ****** ******
      ****** ****** ****** ****** ****** ****** ****** ****** ****** ******
      ****** ****** ****** ****** ****** ****** ****** ****** ****** ******

 HEAD WILL BE SAVED ON UNIT   51 AT END OF TIME STEP    1, STRESS PERIOD    7
1
  VOLUMETRIC BUDGET FOR ENTIRE MODEL AT END OF TIME STEP    1, STRESS PERIOD   7
  ------------------------------------------------------------------------------

     CUMULATIVE VOLUMES      L**3       RATES FOR THIS TIME STEP      L**3/T
     ------------------                 ------------------------

           IN:                                      IN:
           ---                                      ---
             STORAGE =    20822098.7615               STORAGE =        1207.9416
       CONSTANT HEAD =   801410785.0148         CONSTANT HEAD =     1258100.0868
               WELLS =           0.0000                 WELLS =           0.0000
            RECHARGE =    15097200.0000              RECHARGE =           0.0000
      STREAM LEAKAGE =           0.0000        STREAM LEAKAGE =           0.0000

            TOTAL IN =   837330083.7763              TOTAL IN =     1259308.0284

          OUT:                                     OUT:
          ----                                     ----
             STORAGE =      401419.7106               STORAGE =        1340.1645
       CONSTANT HEAD =           0.0000         CONSTANT HEAD =           0.0000
               WELLS =    93041323.2777                 WELLS =      119135.4206
            RECHARGE =           0.0000              RECHARGE =           0.0000
      STREAM LEAKAGE =   743887347.0101        STREAM LEAKAGE =     1138832.4605

           TOTAL OUT =   837330089.9984             TOTAL OUT =     1259308.0457

            IN - OUT =          -6.2221              IN - OUT =      -1.7304E-02

 PERCENT DISCREPANCY =          -0.00     PERCENT DISCREPANCY =          -0.00






         TIME SUMMARY AT END OF TIME STEP    1 IN STRESS PERIOD    7
                    SECONDS     MINUTES      HOURS       DAYS        YEARS
                    -----------------------------------------------------------
   TIME STEP LENGTH 7.86240E+06 1.31040E+05  2184.0      91.000     0.24914    
 STRESS PERIOD TIME 7.86240E+06 1.31040E+05  2184.0      91.000     0.24914    
         TOTAL TIME 5.52096E+07 9.20160E+05  15336.      639.00      1.7495    
1
1
                            STRESS PERIOD NO.    8, LENGTH =   91.00000    
                            -----------------------------------------------

                              NUMBER OF TIME STEPS =     1

                               MULTIPLIER FOR DELT =     1.500

                            INITIAL TIME STEP SIZE =   91.00000    

 WELL NO.  LAYER   ROW   COL   STRESS RATE         
 --------------------------------------------------
      1      1      4      5     -0.5000E+05
      2      1      2     11     -0.5000E+05
      3      1      6     11     -0.1914E+05

      3 WELLS

                 RECHARGE =  1.000000E-03

 REUSING STREAM SEGMENT DATA FROM LAST STRESS PERIOD
 
 SOLVING FOR HEAD 


     6 CALLS TO PCG ROUTINE FOR TIME STEP   1 IN STRESS PERIOD    8
    22 TOTAL ITERATIONS

 OUTPUT CONTROL FOR STRESS PERIOD    8   TIME STEP    1
    SAVE BUDGET
    SAVE HEAD FOR ALL LAYERS
    PRINT HEAD FOR ALL LAYERS
 UBDSV2 SAVING "STREAMFLOW OUT  " ON UNIT  50 AT TIME STEP  1, STRESS PERIOD   8



 STREAM LISTING     PERIOD      8   STEP        1

 LAYER ROW COL. STREAM  RCH.  FLOW INTO     FLOW TO   FLOW OUT OF   OVRLND.     DIRECT     STREAM       STREAM     STREAM     STREAM   STREAMBED  STREAMBED
                SEG.NO.  NO.  STRM. RCH.    AQUIFER    STRM. RCH.    RUNOFF     PRECIP       ET          HEAD       DEPTH      WIDTH   CONDCTNC.   GRADIENT

   1   13    1     1     1    1.0000E+05 -2.5947E+04   1.2595E+05  0.000E+00  0.000E+00  0.000E+00  4.84170E+01  1.556E-01  2.000E+01  2.000E+04 -1.297E+00
   1   13    2     1     2    1.2595E+05 -3.5146E+04   1.6109E+05  0.000E+00  0.000E+00  0.000E+00  4.79638E+01  1.797E-01  2.000E+01  2.000E+04 -1.757E+00
   1   14    3     1     3    1.6109E+05 -3.1394E+04   1.9249E+05  0.000E+00  0.000E+00  0.000E+00  4.75104E+01  2.036E-01  2.000E+01  2.000E+04 -1.570E+00
   1   15    4     1     4    1.9249E+05 -3.1147E+04   2.2363E+05  0.000E+00  0.000E+00  0.000E+00  4.70541E+01  2.245E-01  2.000E+01  2.000E+04 -1.557E+00
   1   16    5     1     5    2.2363E+05 -3.3215E+04   2.5685E+05  0.000E+00  0.000E+00  0.000E+00  4.65970E+01  2.447E-01  2.000E+01  2.000E+04 -1.661E+00
   1   16    6     1     6    2.5685E+05 -2.8874E+04   2.8572E+05  0.000E+00  0.000E+00  0.000E+00  4.61383E+01  2.633E-01  2.000E+01  2.000E+04 -1.444E+00
   1   16    7     1     7    2.8572E+05 -2.8649E+04   3.1437E+05  0.000E+00  0.000E+00  0.000E+00  4.56774E+01  2.797E-01  2.000E+01  2.000E+04 -1.432E+00
   1   16    8     1     8    3.1437E+05 -2.8828E+04   3.4320E+05  0.000E+00  0.000E+00  0.000E+00  4.52159E+01  2.954E-01  2.000E+01  2.000E+04 -1.441E+00
   1   16    9     1     9    3.4320E+05 -2.8945E+04   3.7215E+05  0.000E+00  0.000E+00  0.000E+00  4.47539E+01  3.108E-01  2.000E+01  2.000E+04 -1.447E+00
   1   16   10     1    10    3.7215E+05 -2.9049E+04   4.0119E+05  0.000E+00  0.000E+00  0.000E+00  4.42915E+01  3.256E-01  2.000E+01  2.000E+04 -1.452E+00
   1   16   11     1    11    4.0119E+05 -2.9774E+04   4.3097E+05  0.000E+00  0.000E+00  0.000E+00  4.38289E+01  3.403E-01  2.000E+01  2.000E+04 -1.489E+00
   1   16   12     1    12    4.3097E+05 -3.5459E+04   4.6643E+05  0.000E+00  0.000E+00  0.000E+00  4.33674E+01  3.560E-01  2.000E+01  2.000E+04 -1.773E+00
   1   15   13     1    13    4.6643E+05 -3.3816E+04   5.0024E+05  0.000E+00  0.000E+00  0.000E+00  4.29064E+01  3.723E-01  2.000E+01  2.000E+04 -1.691E+00
   1   14   14     1    14    5.0024E+05 -3.4161E+04   5.3440E+05  0.000E+00  0.000E+00  0.000E+00  4.24446E+01  3.878E-01  2.000E+01  2.000E+04 -1.708E+00
   1   13   15     1    15    5.3440E+05 -3.6203E+04   5.7061E+05  0.000E+00  0.000E+00  0.000E+00  4.19829E+01  4.034E-01  2.000E+01  2.000E+04 -1.810E+00
   1   12   16     1    16    5.7061E+05 -4.2069E+04   6.1268E+05  0.000E+00  0.000E+00  0.000E+00  4.15226E+01  4.203E-01  2.000E+01  2.000E+04 -2.103E+00
   1   12   17     1    17    6.1268E+05 -3.3250E+04   6.4593E+05  0.000E+00  0.000E+00  0.000E+00  4.10612E+01  4.362E-01  2.000E+01  2.000E+04 -1.663E+00
   1   12   18     1    18    6.4593E+05 -3.1883E+04   6.7781E+05  0.000E+00  0.000E+00  0.000E+00  4.05973E+01  4.496E-01  2.000E+01  2.000E+04 -1.594E+00
   1   12   19     1    19    6.7781E+05 -3.6064E+04   7.1387E+05  0.000E+00  0.000E+00  0.000E+00  4.01337E+01  4.633E-01  2.000E+01  2.000E+04 -1.803E+00
   1   13   20     1    20    7.1387E+05 -2.6678E+04   7.4055E+05  0.000E+00  0.000E+00  0.000E+00  3.96689E+01  4.757E-01  2.000E+01  2.000E+04 -1.334E+00
   1   14   21     1    21    7.4055E+05 -1.9752E+04   7.6030E+05  0.000E+00  0.000E+00  0.000E+00  3.92007E+01  4.847E-01  2.000E+01  2.000E+04 -9.876E-01
   1   14   22     1    22    7.6030E+05 -1.8075E+03   7.6211E+05  0.000E+00  0.000E+00  0.000E+00  3.87275E+01  4.889E-01  2.000E+01  2.000E+04 -9.037E-02
   1    9   30     2     1    5.0000E+04 -2.6596E+04   7.6596E+04  0.000E+00  0.000E+00  0.000E+00  4.02585E+01  1.335E-01  2.000E+01  2.000E+04 -1.330E+00
   1    9   29     2     2    7.6596E+04 -2.9057E+04   1.0565E+05  0.000E+00  0.000E+00  0.000E+00  4.00411E+01  1.661E-01  2.000E+01  2.000E+04 -1.453E+00
   1    9   28     2     3    1.0565E+05 -3.3331E+04   1.3898E+05  0.000E+00  0.000E+00  0.000E+00  3.98232E+01  1.982E-01  2.000E+01  2.000E+04 -1.667E+00
   1    9   27     2     4    1.3898E+05 -4.7417E+04   1.8640E+05  0.000E+00  0.000E+00  0.000E+00  3.96102E+01  2.352E-01  2.000E+01  2.000E+04 -2.371E+00
   1   10   26     2     5    1.8640E+05 -3.3380E+04   2.1978E+05  0.000E+00  0.000E+00  0.000E+00  3.93937E+01  2.687E-01  2.000E+01  2.000E+04 -1.669E+00
   1   11   25     2     6    2.1978E+05 -2.5020E+04   2.4480E+05  0.000E+00  0.000E+00  0.000E+00  3.91662E+01  2.912E-01  2.000E+01  2.000E+04 -1.251E+00
   1   12   24     2     7    2.4480E+05 -1.8450E+04   2.6325E+05  0.000E+00  0.000E+00  0.000E+00  3.89323E+01  3.073E-01  2.000E+01  2.000E+04 -9.225E-01
   1   13   23     2     8    2.6325E+05 -1.3118E+04   2.7637E+05  0.000E+00  0.000E+00  0.000E+00  3.86936E+01  3.186E-01  2.000E+01  2.000E+04 -6.559E-01
   1   14   22     2     9    2.7637E+05 -7.3430E+03   2.8371E+05  0.000E+00  0.000E+00  0.000E+00  3.84508E+01  3.258E-01  2.000E+01  2.000E+04 -3.672E-01
   1   14   22     3     1    1.0458E+06 -1.5386E+04   1.0612E+06  0.000E+00  0.000E+00  0.000E+00  3.80486E+01  4.930E-01  2.000E+01  2.000E+04 -7.693E-01
   1   15   23     3     2    1.0612E+06 -2.3793E+04   1.0850E+06  0.000E+00  0.000E+00  0.000E+00  3.71652E+01  4.985E-01  2.000E+01  2.000E+04 -1.190E+00
   1   15   24     3     3    1.0850E+06 -1.9809E+04   1.1048E+06  0.000E+00  0.000E+00  0.000E+00  3.62824E+01  5.046E-01  2.000E+01  2.000E+04 -9.904E-01
   1   15   25     3     4    1.1048E+06 -1.9403E+04   1.1242E+06  0.000E+00  0.000E+00  0.000E+00  3.53989E+01  5.100E-01  2.000E+01  2.000E+04 -9.702E-01
   1   15   26     3     5    1.1242E+06 -2.2167E+04   1.1464E+06  0.000E+00  0.000E+00  0.000E+00  3.45157E+01  5.157E-01  2.000E+01  2.000E+04 -1.108E+00
   1   16   27     3     6    1.1464E+06 -2.9363E+04   1.1757E+06  0.000E+00  0.000E+00  0.000E+00  3.36338E+01  5.227E-01  2.000E+01  2.000E+04 -1.468E+00
   1   17   28     3     7    1.1757E+06 -3.6429E+04   1.2122E+06  0.000E+00  0.000E+00  0.000E+00  3.27537E+01  5.315E-01  2.000E+01  2.000E+04 -1.821E+00
   1   18   29     3     8    1.2122E+06 -4.7417E+04   1.2596E+06  0.000E+00  0.000E+00  0.000E+00  3.18759E+01  5.426E-01  2.000E+01  2.000E+04 -2.371E+00
   1   18   30     3     9    1.2596E+06 -4.3822E+04   1.3034E+06  0.000E+00  0.000E+00  0.000E+00  3.09990E+01  5.545E-01  2.000E+01  2.000E+04 -2.191E+00



1
              HEAD IN LAYER   1 AT END OF TIME STEP   1 IN STRESS PERIOD    8
  ---------------------------------------------------------------------------

          1      2      3      4      5      6      7      8      9     10
         11     12     13     14     15     16     17     18     19     20
         21     22     23     24     25     26     27     28     29     30
 .........................................................................
   1  ****** ****** ****** ****** ****** ****** ****** ****** ****** ******
      ****** ****** ****** ****** ****** ****** ****** ****** ****** ******
      ****** ****** ****** ****** ****** ****** ****** ****** ****** ******
   2  ****** ****** ****** ****** ****** ****** ****** ****** ****** ******
      ****** ****** ****** ****** ****** ****** ****** ****** ****** ******
      ****** ****** ****** ****** ****** ****** ****** ****** ****** ******
   3  ****** ****** ****** ****** ****** ****** ****** ****** ****** ******
      ****** ****** ****** ****** ****** ****** ****** ****** ****** ******
      ****** ****** ****** ****** ****** ****** ****** ****** ****** ******
   4  ****** ****** ****** ****** ****** ****** ****** ****** ****** ******
      ****** ****** ****** ****** ****** ****** ****** ****** ****** ******
      ****** ****** ****** ****** ****** ****** ****** ****** ****** ******
   5  ****** ****** ****** ****** ****** ****** ****** ****** ****** ******
      ****** ****** ****** ****** ****** ****** ****** ****** ****** ******
      ****** ****** ****** ****** ****** ****** ****** ****** ****** ******
   6  ****** ****** ****** ****** ****** ****** ****** ****** ****** ******
      ****** ****** ****** ****** ****** ****** ****** ****** ****** ******
      ****** ****** ****** ****** ****** ****** ****** ****** ****** ******
   7  ****** ****** ****** ****** ****** ****** ****** ****** ****** ******
      ****** ****** ****** ****** ****** ****** ****** ****** ****** ******
      ****** ****** ****** ****** ****** ****** ****** ****** ****** ******
   8  ****** ****** ****** ****** ****** ****** ****** ****** ****** ******
      ****** ****** ****** ****** ****** ****** ****** ****** ****** ******
      ****** ****** ****** ****** ****** ****** ****** ****** ****** ******
   9  ****** ****** ****** ****** ****** ****** ****** ****** ****** ******
      ****** ****** ****** ****** ****** ****** ****** ****** ****** ******
      ****** ****** ****** ****** ****** ****** ****** ****** ****** ******
  10  ****** ****** ****** ****** ****** ****** ****** ****** ****** ******
      ****** ****** ****** ****** ****** ****** ****** ****** ****** ******
      ****** ****** ****** ****** ****** ****** ****** ****** ****** ******
  11  ****** ****** ****** ****** ****** ****** ****** ****** ****** ******
      ****** ****** ****** ****** ****** ****** ****** ****** ****** ******
      ****** ****** ****** ****** ****** ****** ****** ****** ****** ******
  12  ****** ****** ****** ****** ****** ****** ****** ****** ****** ******
      ****** ****** ****** ****** ****** ****** ****** ****** ****** ******
      ****** ****** ****** ****** ****** ****** ****** ****** ****** ******
  13  ****** ****** ****** ****** ****** ****** ****** ****** ****** ******
      ****** ****** ****** ****** ****** ****** ****** ****** ****** ******
      ****** ****** ****** ****** ****** ****** ****** ****** ****** ******
  14  ****** ****** ****** ****** ****** ****** ****** ****** ****** ******
      ****** ****** ****** ****** ****** ****** ****** ****** ****** ******
      ****** ****** ****** ****** ****** ****** ****** ****** ****** ******
  15  ****** ****** ****** ****** ****** ****** ****** ****** ****** ******
      ****** ****** ****** ****** ****** ****** ****** ****** ****** ******
      ****** ****** ****** ****** ****** ****** ****** ****** ****** ******
  16  ****** ****** ****** ****** ****** ****** ****** ****** ****** ******
      ****** ****** ****** ****** ****** ****** ****** ****** ****** ******
      ****** ****** ****** ****** ****** ****** ****** ****** ****** ******
  17  ****** ****** ****** ****** ****** ****** ****** ****** ****** ******
      ****** ****** ****** ****** ****** ****** ****** ****** ****** ******
      ****** ****** ****** ****** ****** ****** ****** ****** ****** ******
  18  ****** ****** ****** ****** ****** ****** ****** ****** ****** ******
      ****** ****** ****** ****** ****** ****** ****** ****** ****** ******
      ****** ****** ****** ****** ****** ****** ****** ****** ****** ******
  19  ****** ****** ****** ****** ****** ****** ****** ****** ****** ******
      ****** ****** ****** ****** ****** ****** ****** ****** ****** ******
      ****** ****** ****** ****** ****** ****** ****** ****** ****** ******
  20  ****** ****** ****** ****** ****** ****** ****** ****** ****** ******
      ****** ****** ****** ****** ****** ****** ****** ****** ****** ******
      ****** ****** ****** ****** ****** ****** ****** ****** ****** ******
  21  ****** ****** ****** ****** ****** ****** ****** ****** ****** ******
      ****** ****** ****** ****** ****** ****** ****** ****** ****** ******
      ****** ****** ****** ****** ****** ****** ****** ****** ****** ******
  22  ****** ****** ****** ****** ****** ****** ****** ****** ****** ******
      ****** ****** ****** ****** ****** ****** ****** ****** ****** ******
      ****** ****** ****** ****** ****** ****** ****** ****** ****** ******
  23  ****** ****** ****** ****** ****** ****** ****** ****** ****** ******
      ****** ****** ****** ****** ****** ****** ****** ****** ****** ******
      ****** ****** ****** ****** ****** ****** ****** ****** ****** ******
  24  ****** ****** ****** ****** ****** ****** ****** ****** ****** ******
      ****** ****** ****** ****** ****** ****** ****** ****** ****** ******
      ****** ****** ****** ****** ****** ****** ****** ****** ****** ******
  25  ****** ****** ****** ****** ****** ****** ****** ****** ****** ******
      ****** ****** ****** ****** ****** ****** ****** ****** ****** ******
      ****** ****** ****** ****** ****** ****** ****** ****** ****** ******

 HEAD WILL BE SAVED ON UNIT   51 AT END OF TIME STEP    1, STRESS PERIOD    8
1
  VOLUMETRIC BUDGET FOR ENTIRE MODEL AT END OF TIME STEP    1, STRESS PERIOD   8
  ------------------------------------------------------------------------------

     CUMULATIVE VOLUMES      L**3       RATES FOR THIS TIME STEP      L**3/T
     ------------------                 ------------------------

           IN:                                      IN:
           ---                                      ---
             STORAGE =    20822098.7615               STORAGE =           0.0000
       CONSTANT HEAD =   914825384.4555         CONSTANT HEAD =     1246314.2796
               WELLS =           0.0000                 WELLS =           0.0000
            RECHARGE =    17608800.0000              RECHARGE =       27600.0000
      STREAM LEAKAGE =           0.0000        STREAM LEAKAGE =           0.0000

            TOTAL IN =   953256283.2170              TOTAL IN =     1273914.2796

          OUT:                                     OUT:
          ----                                     ----
             STORAGE =      525658.4459               STORAGE =        1365.2608
       CONSTANT HEAD =           0.0000         CONSTANT HEAD =           0.0000
               WELLS =   103882646.5553                 WELLS =      119135.4206
            RECHARGE =           0.0000              RECHARGE =           0.0000
      STREAM LEAKAGE =   848847982.2749        STREAM LEAKAGE =     1153413.5743

           TOTAL OUT =   953256287.2761             TOTAL OUT =     1273914.2558

            IN - OUT =          -4.0591              IN - OUT =       2.3769E-02

 PERCENT DISCREPANCY =          -0.00     PERCENT DISCREPANCY =           0.00






         TIME SUMMARY AT END OF TIME STEP    1 IN STRESS PERIOD    8
                    SECONDS     MINUTES      HOURS       DAYS        YEARS
                    -----------------------------------------------------------
   TIME STEP LENGTH 7.86240E+06 1.31040E+05  2184.0      91.000     0.24914    
 STRESS PERIOD TIME 7.86240E+06 1.31040E+05  2184.0      91.000     0.24914    
         TOTAL TIME 6.30720E+07 1.05120E+06  17520.      730.00      1.9986    
1
1
                            STRESS PERIOD NO.    9, LENGTH =   92.00000    
                            -----------------------------------------------

                              NUMBER OF TIME STEPS =     1

                               MULTIPLIER FOR DELT =     1.500

                            INITIAL TIME STEP SIZE =   92.00000    

 WELL NO.  LAYER   ROW   COL   STRESS RATE         
 --------------------------------------------------
      1      1      4      5     -0.5000E+05
      2      1      2     11     -0.5000E+05
      3      1      6     11     -0.1914E+05

      3 WELLS

                 RECHARGE =  5.000000E-04

 REUSING STREAM SEGMENT DATA FROM LAST STRESS PERIOD
 
 SOLVING FOR HEAD 


     5 CALLS TO PCG ROUTINE FOR TIME STEP   1 IN STRESS PERIOD    9
    20 TOTAL ITERATIONS

 OUTPUT CONTROL FOR STRESS PERIOD    9   TIME STEP    1
    SAVE BUDGET
    SAVE HEAD FOR ALL LAYERS
    PRINT HEAD FOR ALL LAYERS
 UBDSV2 SAVING "STREAMFLOW OUT  " ON UNIT  50 AT TIME STEP  1, STRESS PERIOD   9



 STREAM LISTING     PERIOD      9   STEP        1

 LAYER ROW COL. STREAM  RCH.  FLOW INTO     FLOW TO   FLOW OUT OF   OVRLND.     DIRECT     STREAM       STREAM     STREAM     STREAM   STREAMBED  STREAMBED
                SEG.NO.  NO.  STRM. RCH.    AQUIFER    STRM. RCH.    RUNOFF     PRECIP       ET          HEAD       DEPTH      WIDTH   CONDCTNC.   GRADIENT

   1   13    1     1     1    1.0000E+05 -2.5754E+04   1.2575E+05  0.000E+00  0.000E+00  0.000E+00  4.84169E+01  1.556E-01  2.000E+01  2.000E+04 -1.288E+00
   1   13    2     1     2    1.2575E+05 -3.4917E+04   1.6067E+05  0.000E+00  0.000E+00  0.000E+00  4.79635E+01  1.794E-01  2.000E+01  2.000E+04 -1.746E+00
   1   14    3     1     3    1.6067E+05 -3.1166E+04   1.9184E+05  0.000E+00  0.000E+00  0.000E+00  4.75101E+01  2.032E-01  2.000E+01  2.000E+04 -1.558E+00
   1   15    4     1     4    1.9184E+05 -3.0926E+04   2.2276E+05  0.000E+00  0.000E+00  0.000E+00  4.70536E+01  2.240E-01  2.000E+01  2.000E+04 -1.546E+00
   1   16    5     1     5    2.2276E+05 -3.3013E+04   2.5578E+05  0.000E+00  0.000E+00  0.000E+00  4.65964E+01  2.442E-01  2.000E+01  2.000E+04 -1.651E+00
   1   16    6     1     6    2.5578E+05 -2.8699E+04   2.8448E+05  0.000E+00  0.000E+00  0.000E+00  4.61376E+01  2.626E-01  2.000E+01  2.000E+04 -1.435E+00
   1   16    7     1     7    2.8448E+05 -2.8476E+04   3.1295E+05  0.000E+00  0.000E+00  0.000E+00  4.56766E+01  2.789E-01  2.000E+01  2.000E+04 -1.424E+00
   1   16    8     1     8    3.1295E+05 -2.8656E+04   3.4161E+05  0.000E+00  0.000E+00  0.000E+00  4.52151E+01  2.946E-01  2.000E+01  2.000E+04 -1.433E+00
   1   16    9     1     9    3.4161E+05 -2.8773E+04   3.7038E+05  0.000E+00  0.000E+00  0.000E+00  4.47531E+01  3.099E-01  2.000E+01  2.000E+04 -1.439E+00
   1   16   10     1    10    3.7038E+05 -2.8877E+04   3.9926E+05  0.000E+00  0.000E+00  0.000E+00  4.42906E+01  3.247E-01  2.000E+01  2.000E+04 -1.444E+00
   1   16   11     1    11    3.9926E+05 -2.9599E+04   4.2886E+05  0.000E+00  0.000E+00  0.000E+00  4.38279E+01  3.393E-01  2.000E+01  2.000E+04 -1.480E+00
   1   16   12     1    12    4.2886E+05 -3.5254E+04   4.6411E+05  0.000E+00  0.000E+00  0.000E+00  4.33663E+01  3.550E-01  2.000E+01  2.000E+04 -1.763E+00
   1   15   13     1    13    4.6411E+05 -3.3592E+04   4.9770E+05  0.000E+00  0.000E+00  0.000E+00  4.29053E+01  3.712E-01  2.000E+01  2.000E+04 -1.680E+00
   1   14   14     1    14    4.9770E+05 -3.3931E+04   5.3163E+05  0.000E+00  0.000E+00  0.000E+00  4.24434E+01  3.866E-01  2.000E+01  2.000E+04 -1.697E+00
   1   13   15     1    15    5.3163E+05 -3.5976E+04   5.6761E+05  0.000E+00  0.000E+00  0.000E+00  4.19817E+01  4.021E-01  2.000E+01  2.000E+04 -1.799E+00
   1   12   16     1    16    5.6761E+05 -4.1851E+04   6.0946E+05  0.000E+00  0.000E+00  0.000E+00  4.15212E+01  4.190E-01  2.000E+01  2.000E+04 -2.093E+00
   1   12   17     1    17    6.0946E+05 -3.3073E+04   6.4253E+05  0.000E+00  0.000E+00  0.000E+00  4.10598E+01  4.348E-01  2.000E+01  2.000E+04 -1.654E+00
   1   12   18     1    18    6.4253E+05 -3.1712E+04   6.7425E+05  0.000E+00  0.000E+00  0.000E+00  4.05959E+01  4.481E-01  2.000E+01  2.000E+04 -1.586E+00
   1   12   19     1    19    6.7425E+05 -3.5877E+04   7.1012E+05  0.000E+00  0.000E+00  0.000E+00  4.01323E+01  4.618E-01  2.000E+01  2.000E+04 -1.794E+00
   1   13   20     1    20    7.1012E+05 -2.6500E+04   7.3662E+05  0.000E+00  0.000E+00  0.000E+00  3.96674E+01  4.742E-01  2.000E+01  2.000E+04 -1.325E+00
   1   14   21     1    21    7.3662E+05 -1.9598E+04   7.5622E+05  0.000E+00  0.000E+00  0.000E+00  3.91991E+01  4.832E-01  2.000E+01  2.000E+04 -9.799E-01
   1   14   22     1    22    7.5622E+05 -1.7525E+03   7.5797E+05  0.000E+00  0.000E+00  0.000E+00  3.87260E+01  4.873E-01  2.000E+01  2.000E+04 -8.763E-02
   1    9   30     2     1    5.0000E+04 -2.6455E+04   7.6455E+04  0.000E+00  0.000E+00  0.000E+00  4.02584E+01  1.334E-01  2.000E+01  2.000E+04 -1.323E+00
   1    9   29     2     2    7.6455E+04 -2.8917E+04   1.0537E+05  0.000E+00  0.000E+00  0.000E+00  4.00409E+01  1.659E-01  2.000E+01  2.000E+04 -1.446E+00
   1    9   28     2     3    1.0537E+05 -3.3186E+04   1.3856E+05  0.000E+00  0.000E+00  0.000E+00  3.98228E+01  1.978E-01  2.000E+01  2.000E+04 -1.659E+00
   1    9   27     2     4    1.3856E+05 -4.7241E+04   1.8580E+05  0.000E+00  0.000E+00  0.000E+00  3.96097E+01  2.347E-01  2.000E+01  2.000E+04 -2.362E+00
   1   10   26     2     5    1.8580E+05 -3.3197E+04   2.1900E+05  0.000E+00  0.000E+00  0.000E+00  3.93931E+01  2.681E-01  2.000E+01  2.000E+04 -1.660E+00
   1   11   25     2     6    2.1900E+05 -2.4844E+04   2.4384E+05  0.000E+00  0.000E+00  0.000E+00  3.91655E+01  2.905E-01  2.000E+01  2.000E+04 -1.242E+00
   1   12   24     2     7    2.4384E+05 -1.8292E+04   2.6213E+05  0.000E+00  0.000E+00  0.000E+00  3.89315E+01  3.065E-01  2.000E+01  2.000E+04 -9.146E-01
   1   13   23     2     8    2.6213E+05 -1.2989E+04   2.7512E+05  0.000E+00  0.000E+00  0.000E+00  3.86927E+01  3.177E-01  2.000E+01  2.000E+04 -6.495E-01
   1   14   22     2     9    2.7512E+05 -7.2743E+03   2.8240E+05  0.000E+00  0.000E+00  0.000E+00  3.84499E+01  3.249E-01  2.000E+01  2.000E+04 -3.637E-01
   1   14   22     3     1    1.0404E+06 -1.5331E+04   1.0557E+06  0.000E+00  0.000E+00  0.000E+00  3.80471E+01  4.915E-01  2.000E+01  2.000E+04 -7.665E-01
   1   15   23     3     2    1.0557E+06 -2.3648E+04   1.0793E+06  0.000E+00  0.000E+00  0.000E+00  3.71636E+01  4.970E-01  2.000E+01  2.000E+04 -1.182E+00
   1   15   24     3     3    1.0793E+06 -1.9688E+04   1.0990E+06  0.000E+00  0.000E+00  0.000E+00  3.62808E+01  5.030E-01  2.000E+01  2.000E+04 -9.844E-01
   1   15   25     3     4    1.0990E+06 -1.9283E+04   1.1183E+06  0.000E+00  0.000E+00  0.000E+00  3.53973E+01  5.084E-01  2.000E+01  2.000E+04 -9.642E-01
   1   15   26     3     5    1.1183E+06 -2.2027E+04   1.1403E+06  0.000E+00  0.000E+00  0.000E+00  3.45140E+01  5.140E-01  2.000E+01  2.000E+04 -1.101E+00
   1   16   27     3     6    1.1403E+06 -2.9195E+04   1.1695E+06  0.000E+00  0.000E+00  0.000E+00  3.36321E+01  5.210E-01  2.000E+01  2.000E+04 -1.460E+00
   1   17   28     3     7    1.1695E+06 -3.6256E+04   1.2058E+06  0.000E+00  0.000E+00  0.000E+00  3.27520E+01  5.298E-01  2.000E+01  2.000E+04 -1.813E+00
   1   18   29     3     8    1.2058E+06 -4.7255E+04   1.2531E+06  0.000E+00  0.000E+00  0.000E+00  3.18742E+01  5.409E-01  2.000E+01  2.000E+04 -2.363E+00
   1   18   30     3     9    1.2531E+06 -4.3686E+04   1.2967E+06  0.000E+00  0.000E+00  0.000E+00  3.09973E+01  5.528E-01  2.000E+01  2.000E+04 -2.184E+00



1
              HEAD IN LAYER   1 AT END OF TIME STEP   1 IN STRESS PERIOD    9
  ---------------------------------------------------------------------------

          1      2      3      4      5      6      7      8      9     10
         11     12     13     14     15     16     17     18     19     20
         21     22     23     24     25     26     27     28     29     30
 .........................................................................
   1  ****** ****** ****** ****** ****** ****** ****** ****** ****** ******
      ****** ****** ****** ****** ****** ****** ****** ****** ****** ******
      ****** ****** ****** ****** ****** ****** ****** ****** ****** ******
   2  ****** ****** ****** ****** ****** ****** ****** ****** ****** ******
      ****** ****** ****** ****** ****** ****** ****** ****** ****** ******
      ****** ****** ****** ****** ****** ****** ****** ****** ****** ******
   3  ****** ****** ****** ****** ****** ****** ****** ****** ****** ******
      ****** ****** ****** ****** ****** ****** ****** ****** ****** ******
      ****** ****** ****** ****** ****** ****** ****** ****** ****** ******
   4  ****** ****** ****** ****** ****** ****** ****** ****** ****** ******
      ****** ****** ****** ****** ****** ****** ****** ****** ****** ******
      ****** ****** ****** ****** ****** ****** ****** ****** ****** ******
   5  ****** ****** ****** ****** ****** ****** ****** ****** ****** ******
      ****** ****** ****** ****** ****** ****** ****** ****** ****** ******
      ****** ****** ****** ****** ****** ****** ****** ****** ****** ******
   6  ****** ****** ****** ****** ****** ****** ****** ****** ****** ******
      ****** ****** ****** ****** ****** ****** ****** ****** ****** ******
      ****** ****** ****** ****** ****** ****** ****** ****** ****** ******
   7  ****** ****** ****** ****** ****** ****** ****** ****** ****** ******
      ****** ****** ****** ****** ****** ****** ****** ****** ****** ******
      ****** ****** ****** ****** ****** ****** ****** ****** ****** ******
   8  ****** ****** ****** ****** ****** ****** ****** ****** ****** ******
      ****** ****** ****** ****** ****** ****** ****** ****** ****** ******
      ****** ****** ****** ****** ****** ****** ****** ****** ****** ******
   9  ****** ****** ****** ****** ****** ****** ****** ****** ****** ******
      ****** ****** ****** ****** ****** ****** ****** ****** ****** ******
      ****** ****** ****** ****** ****** ****** ****** ****** ****** ******
  10  ****** ****** ****** ****** ****** ****** ****** ****** ****** ******
      ****** ****** ****** ****** ****** ****** ****** ****** ****** ******
      ****** ****** ****** ****** ****** ****** ****** ****** ****** ******
  11  ****** ****** ****** ****** ****** ****** ****** ****** ****** ******
      ****** ****** ****** ****** ****** ****** ****** ****** ****** ******
      ****** ****** ****** ****** ****** ****** ****** ****** ****** ******
  12  ****** ****** ****** ****** ****** ****** ****** ****** ****** ******
      ****** ****** ****** ****** ****** ****** ****** ****** ****** ******
      ****** ****** ****** ****** ****** ****** ****** ****** ****** ******
  13  ****** ****** ****** ****** ****** ****** ****** ****** ****** ******
      ****** ****** ****** ****** ****** ****** ****** ****** ****** ******
      ****** ****** ****** ****** ****** ****** ****** ****** ****** ******
  14  ****** ****** ****** ****** ****** ****** ****** ****** ****** ******
      ****** ****** ****** ****** ****** ****** ****** ****** ****** ******
      ****** ****** ****** ****** ****** ****** ****** ****** ****** ******
  15  ****** ****** ****** ****** ****** ****** ****** ****** ****** ******
      ****** ****** ****** ****** ****** ****** ****** ****** ****** ******
      ****** ****** ****** ****** ****** ****** ****** ****** ****** ******
  16  ****** ****** ****** ****** ****** ****** ****** ****** ****** ******
      ****** ****** ****** ****** ****** ****** ****** ****** ****** ******
      ****** ****** ****** ****** ****** ****** ****** ****** ****** ******
  17  ****** ****** ****** ****** ****** ****** ****** ****** ****** ******
      ****** ****** ****** ****** ****** ****** ****** ****** ****** ******
      ****** ****** ****** ****** ****** ****** ****** ****** ****** ******
  18  ****** ****** ****** ****** ****** ****** ****** ****** ****** ******
      ****** ****** ****** ****** ****** ****** ****** ****** ****** ******
      ****** ****** ****** ****** ****** ****** ****** ****** ****** ******
  19  ****** ****** ****** ****** ****** ****** ****** ****** ****** ******
      ****** ****** ****** ****** ****** ****** ****** ****** ****** ******
      ****** ****** ****** ****** ****** ****** ****** ****** ****** ******
  20  ****** ****** ****** ****** ****** ****** ****** ****** ****** ******
      ****** ****** ****** ****** ****** ****** ****** ****** ****** ******
      ****** ****** ****** ****** ****** ****** ****** ****** ****** ******
  21  ****** ****** ****** ****** ****** ****** ****** ****** ****** ******
      ****** ****** ****** ****** ****** ****** ****** ****** ****** ******
      ****** ****** ****** ****** ****** ****** ****** ****** ****** ******
  22  ****** ****** ****** ****** ****** ****** ****** ****** ****** ******
      ****** ****** ****** ****** ****** ****** ****** ****** ****** ******
      ****** ****** ****** ****** ****** ****** ****** ****** ****** ******
  23  ****** ****** ****** ****** ****** ****** ****** ****** ****** ******
      ****** ****** ****** ****** ****** ****** ****** ****** ****** ******
      ****** ****** ****** ****** ****** ****** ****** ****** ****** ******
  24  ****** ****** ****** ****** ****** ****** ****** ****** ****** ******
      ****** ****** ****** ****** ****** ****** ****** ****** ****** ******
      ****** ****** ****** ****** ****** ****** ****** ****** ****** ******
  25  ****** ****** ****** ****** ****** ****** ****** ****** ****** ******
      ****** ****** ****** ****** ****** ****** ****** ****** ****** ******
      ****** ****** ****** ****** ****** ****** ****** ****** ****** ******

 HEAD WILL BE SAVED ON UNIT   51 AT END OF TIME STEP    1, STRESS PERIOD    9
1
  VOLUMETRIC BUDGET FOR ENTIRE MODEL AT END OF TIME STEP    1, STRESS PERIOD   9
  ------------------------------------------------------------------------------

     CUMULATIVE VOLUMES      L**3       RATES FOR THIS TIME STEP      L**3/T
     ------------------                 ------------------------

           IN:                                      IN:
           ---                                      ---
             STORAGE =    20874525.6452               STORAGE =         569.8574
       CONSTANT HEAD =  1029963794.2629         CONSTANT HEAD =     1251504.4544
               WELLS =           0.0000                 WELLS =           0.0000
            RECHARGE =    18878400.0000              RECHARGE =       13800.0000
      STREAM LEAKAGE =           0.0000        STREAM LEAKAGE =           0.0000

            TOTAL IN =  1069716719.9081              TOTAL IN =     1265874.3119

          OUT:                                     OUT:
          ----                                     ----
             STORAGE =      525658.4459               STORAGE =           0.0000
       CONSTANT HEAD =           0.0000         CONSTANT HEAD =           0.0000
               WELLS =   114843105.2536                 WELLS =      119135.4206
            RECHARGE =           0.0000              RECHARGE =           0.0000
      STREAM LEAKAGE =   954347962.0647        STREAM LEAKAGE =     1146738.9108

           TOTAL OUT =  1069716725.7643             TOTAL OUT =     1265874.3314

            IN - OUT =          -5.8561              IN - OUT =      -1.9533E-02

 PERCENT DISCREPANCY =          -0.00     PERCENT DISCREPANCY =          -0.00






         TIME SUMMARY AT END OF TIME STEP    1 IN STRESS PERIOD    9
                    SECONDS     MINUTES      HOURS       DAYS        YEARS
                    -----------------------------------------------------------
   TIME STEP LENGTH 7.94880E+06 1.32480E+05  2208.0      92.000     0.25188    
 STRESS PERIOD TIME 7.94880E+06 1.32480E+05  2208.0      92.000     0.25188    
         TOTAL TIME 7.10208E+07 1.18368E+06  19728.      822.00      2.2505    
1
1
                            STRESS PERIOD NO.   10, LENGTH =   91.00000    
                            -----------------------------------------------

                              NUMBER OF TIME STEPS =     1

                               MULTIPLIER FOR DELT =     1.500

                            INITIAL TIME STEP SIZE =   91.00000    

 WELL NO.  LAYER   ROW   COL   STRESS RATE         
 --------------------------------------------------
      1      1      4      5     -0.5000E+05
      2      1      2     11     -0.5000E+05
      3      1      6     11     -0.1914E+05

      3 WELLS

                 RECHARGE =  2.000000E-03

 REUSING STREAM SEGMENT DATA FROM LAST STRESS PERIOD
 
 SOLVING FOR HEAD 


     6 CALLS TO PCG ROUTINE FOR TIME STEP   1 IN STRESS PERIOD   10
    22 TOTAL ITERATIONS

 OUTPUT CONTROL FOR STRESS PERIOD   10   TIME STEP    1
    SAVE BUDGET
    SAVE HEAD FOR ALL LAYERS
    PRINT HEAD FOR ALL LAYERS
 UBDSV2 SAVING "STREAMFLOW OUT  " ON UNIT  50 AT TIME STEP  1, STRESS PERIOD  10



 STREAM LISTING     PERIOD     10   STEP        1

 LAYER ROW COL. STREAM  RCH.  FLOW INTO     FLOW TO   FLOW OUT OF   OVRLND.     DIRECT     STREAM       STREAM     STREAM     STREAM   STREAMBED  STREAMBED
                SEG.NO.  NO.  STRM. RCH.    AQUIFER    STRM. RCH.    RUNOFF     PRECIP       ET          HEAD       DEPTH      WIDTH   CONDCTNC.   GRADIENT

   1   13    1     1     1    1.0000E+05 -2.6407E+04   1.2641E+05  0.000E+00  0.000E+00  0.000E+00  4.84172E+01  1.558E-01  2.000E+01  2.000E+04 -1.320E+00
   1   13    2     1     2    1.2641E+05 -3.5697E+04   1.6210E+05  0.000E+00  0.000E+00  0.000E+00  4.79643E+01  1.802E-01  2.000E+01  2.000E+04 -1.785E+00
   1   14    3     1     3    1.6210E+05 -3.1929E+04   1.9403E+05  0.000E+00  0.000E+00  0.000E+00  4.75113E+01  2.045E-01  2.000E+01  2.000E+04 -1.596E+00
   1   15    4     1     4    1.9403E+05 -3.1659E+04   2.2569E+05  0.000E+00  0.000E+00  0.000E+00  4.70552E+01  2.257E-01  2.000E+01  2.000E+04 -1.583E+00
   1   16    5     1     5    2.2569E+05 -3.3675E+04   2.5937E+05  0.000E+00  0.000E+00  0.000E+00  4.65984E+01  2.461E-01  2.000E+01  2.000E+04 -1.684E+00
   1   16    6     1     6    2.5937E+05 -2.9274E+04   2.8864E+05  0.000E+00  0.000E+00  0.000E+00  4.61398E+01  2.648E-01  2.000E+01  2.000E+04 -1.464E+00
   1   16    7     1     7    2.8864E+05 -2.9046E+04   3.1769E+05  0.000E+00  0.000E+00  0.000E+00  4.56791E+01  2.814E-01  2.000E+01  2.000E+04 -1.452E+00
   1   16    8     1     8    3.1769E+05 -2.9227E+04   3.4691E+05  0.000E+00  0.000E+00  0.000E+00  4.52178E+01  2.973E-01  2.000E+01  2.000E+04 -1.461E+00
   1   16    9     1     9    3.4691E+05 -2.9344E+04   3.7626E+05  0.000E+00  0.000E+00  0.000E+00  4.47560E+01  3.128E-01  2.000E+01  2.000E+04 -1.467E+00
   1   16   10     1    10    3.7626E+05 -2.9446E+04   4.0570E+05  0.000E+00  0.000E+00  0.000E+00  4.42937E+01  3.278E-01  2.000E+01  2.000E+04 -1.472E+00
   1   16   11     1    11    4.0570E+05 -3.0175E+04   4.3588E+05  0.000E+00  0.000E+00  0.000E+00  4.38312E+01  3.426E-01  2.000E+01  2.000E+04 -1.509E+00
   1   16   12     1    12    4.3588E+05 -3.5926E+04   4.7180E+05  0.000E+00  0.000E+00  0.000E+00  4.33698E+01  3.585E-01  2.000E+01  2.000E+04 -1.796E+00
   1   15   13     1    13    4.7180E+05 -3.4335E+04   5.0614E+05  0.000E+00  0.000E+00  0.000E+00  4.29090E+01  3.749E-01  2.000E+01  2.000E+04 -1.717E+00
   1   14   14     1    14    5.0614E+05 -3.4697E+04   5.4084E+05  0.000E+00  0.000E+00  0.000E+00  4.24474E+01  3.905E-01  2.000E+01  2.000E+04 -1.735E+00
   1   13   15     1    15    5.4084E+05 -3.6736E+04   5.7757E+05  0.000E+00  0.000E+00  0.000E+00  4.19859E+01  4.063E-01  2.000E+01  2.000E+04 -1.837E+00
   1   12   16     1    16    5.7757E+05 -4.2586E+04   6.2016E+05  0.000E+00  0.000E+00  0.000E+00  4.15256E+01  4.234E-01  2.000E+01  2.000E+04 -2.129E+00
   1   12   17     1    17    6.2016E+05 -3.3664E+04   6.5382E+05  0.000E+00  0.000E+00  0.000E+00  4.10643E+01  4.393E-01  2.000E+01  2.000E+04 -1.683E+00
   1   12   18     1    18    6.5382E+05 -3.2277E+04   6.8610E+05  0.000E+00  0.000E+00  0.000E+00  4.06006E+01  4.529E-01  2.000E+01  2.000E+04 -1.614E+00
   1   12   19     1    19    6.8610E+05 -3.6493E+04   7.2259E+05  0.000E+00  0.000E+00  0.000E+00  4.01371E+01  4.667E-01  2.000E+01  2.000E+04 -1.825E+00
   1   13   20     1    20    7.2259E+05 -2.7077E+04   7.4967E+05  0.000E+00  0.000E+00  0.000E+00  3.96724E+01  4.792E-01  2.000E+01  2.000E+04 -1.354E+00
   1   14   21     1    21    7.4967E+05 -2.0095E+04   7.6977E+05  0.000E+00  0.000E+00  0.000E+00  3.92042E+01  4.883E-01  2.000E+01  2.000E+04 -1.005E+00
   1   14   22     1    22    7.6977E+05 -1.9266E+03   7.7169E+05  0.000E+00  0.000E+00  0.000E+00  3.87312E+01  4.926E-01  2.000E+01  2.000E+04 -9.633E-02
   1    9   30     2     1    5.0000E+04 -2.6901E+04   7.6901E+04  0.000E+00  0.000E+00  0.000E+00  4.02587E+01  1.337E-01  2.000E+01  2.000E+04 -1.345E+00
   1    9   29     2     2    7.6901E+04 -2.9362E+04   1.0626E+05  0.000E+00  0.000E+00  0.000E+00  4.00416E+01  1.666E-01  2.000E+01  2.000E+04 -1.468E+00
   1    9   28     2     3    1.0626E+05 -3.3646E+04   1.3991E+05  0.000E+00  0.000E+00  0.000E+00  3.98239E+01  1.989E-01  2.000E+01  2.000E+04 -1.682E+00
   1    9   27     2     4    1.3991E+05 -4.7806E+04   1.8771E+05  0.000E+00  0.000E+00  0.000E+00  3.96111E+01  2.361E-01  2.000E+01  2.000E+04 -2.390E+00
   1   10   26     2     5    1.8771E+05 -3.3782E+04   2.2150E+05  0.000E+00  0.000E+00  0.000E+00  3.93949E+01  2.699E-01  2.000E+01  2.000E+04 -1.689E+00
   1   11   25     2     6    2.2150E+05 -2.5409E+04   2.4691E+05  0.000E+00  0.000E+00  0.000E+00  3.91676E+01  2.926E-01  2.000E+01  2.000E+04 -1.270E+00
   1   12   24     2     7    2.4691E+05 -1.8798E+04   2.6570E+05  0.000E+00  0.000E+00  0.000E+00  3.89339E+01  3.089E-01  2.000E+01  2.000E+04 -9.399E-01
   1   13   23     2     8    2.6570E+05 -1.3400E+04   2.7910E+05  0.000E+00  0.000E+00  0.000E+00  3.86954E+01  3.204E-01  2.000E+01  2.000E+04 -6.700E-01
   1   14   22     2     9    2.7910E+05 -7.4962E+03   2.8660E+05  0.000E+00  0.000E+00  0.000E+00  3.84527E+01  3.277E-01  2.000E+01  2.000E+04 -3.748E-01
   1   14   22     3     1    1.0583E+06 -1.5509E+04   1.0738E+06  0.000E+00  0.000E+00  0.000E+00  3.80521E+01  4.966E-01  2.000E+01  2.000E+04 -7.754E-01
   1   15   23     3     2    1.0738E+06 -2.4110E+04   1.0979E+06  0.000E+00  0.000E+00  0.000E+00  3.71687E+01  5.021E-01  2.000E+01  2.000E+04 -1.205E+00
   1   15   24     3     3    1.0979E+06 -2.0070E+04   1.1180E+06  0.000E+00  0.000E+00  0.000E+00  3.62859E+01  5.082E-01  2.000E+01  2.000E+04 -1.003E+00
   1   15   25     3     4    1.1180E+06 -1.9662E+04   1.1376E+06  0.000E+00  0.000E+00  0.000E+00  3.54025E+01  5.136E-01  2.000E+01  2.000E+04 -9.831E-01
   1   15   26     3     5    1.1376E+06 -2.2468E+04   1.1601E+06  0.000E+00  0.000E+00  0.000E+00  3.45194E+01  5.194E-01  2.000E+01  2.000E+04 -1.123E+00
   1   16   27     3     6    1.1601E+06 -2.9727E+04   1.1898E+06  0.000E+00  0.000E+00  0.000E+00  3.36375E+01  5.264E-01  2.000E+01  2.000E+04 -1.486E+00
   1   17   28     3     7    1.1898E+06 -3.6802E+04   1.2266E+06  0.000E+00  0.000E+00  0.000E+00  3.27575E+01  5.353E-01  2.000E+01  2.000E+04 -1.840E+00
   1   18   29     3     8    1.2266E+06 -4.7768E+04   1.2744E+06  0.000E+00  0.000E+00  0.000E+00  3.18798E+01  5.465E-01  2.000E+01  2.000E+04 -2.388E+00
   1   18   30     3     9    1.2744E+06 -4.4114E+04   1.3185E+06  0.000E+00  0.000E+00  0.000E+00  3.10029E+01  5.584E-01  2.000E+01  2.000E+04 -2.206E+00



1
              HEAD IN LAYER   1 AT END OF TIME STEP   1 IN STRESS PERIOD   10
  ---------------------------------------------------------------------------

          1      2      3      4      5      6      7      8      9     10
         11     12     13     14     15     16     17     18     19     20
         21     22     23     24     25     26     27     28     29     30
 .........................................................................
   1  ****** ****** ****** ****** ****** ****** ****** ****** ****** ******
      ****** ****** ****** ****** ****** ****** ****** ****** ****** ******
      ****** ****** ****** ****** ****** ****** ****** ****** ****** ******
   2  ****** ****** ****** ****** ****** ****** ****** ****** ****** ******
      ****** ****** ****** ****** ****** ****** ****** ****** ****** ******
      ****** ****** ****** ****** ****** ****** ****** ****** ****** ******
   3  ****** ****** ****** ****** ****** ****** ****** ****** ****** ******
      ****** ****** ****** ****** ****** ****** ****** ****** ****** ******
      ****** ****** ****** ****** ****** ****** ****** ****** ****** ******
   4  ****** ****** ****** ****** ****** ****** ****** ****** ****** ******
      ****** ****** ****** ****** ****** ****** ****** ****** ****** ******
      ****** ****** ****** ****** ****** ****** ****** ****** ****** ******
   5  ****** ****** ****** ****** ****** ****** ****** ****** ****** ******
      ****** ****** ****** ****** ****** ****** ****** ****** ****** ******
      ****** ****** ****** ****** ****** ****** ****** ****** ****** ******
   6  ****** ****** ****** ****** ****** ****** ****** ****** ****** ******
      ****** ****** ****** ****** ****** ****** ****** ****** ****** ******
      ****** ****** ****** ****** ****** ****** ****** ****** ****** ******
   7  ****** ****** ****** ****** ****** ****** ****** ****** ****** ******
      ****** ****** ****** ****** ****** ****** ****** ****** ****** ******
      ****** ****** ****** ****** ****** ****** ****** ****** ****** ******
   8  ****** ****** ****** ****** ****** ****** ****** ****** ****** ******
      ****** ****** ****** ****** ****** ****** ****** ****** ****** ******
      ****** ****** ****** ****** ****** ****** ****** ****** ****** ******
   9  ****** ****** ****** ****** ****** ****** ****** ****** ****** ******
      ****** ****** ****** ****** ****** ****** ****** ****** ****** ******
      ****** ****** ****** ****** ****** ****** ****** ****** ****** ******
  10  ****** ****** ****** ****** ****** ****** ****** ****** ****** ******
      ****** ****** ****** ****** ****** ****** ****** ****** ****** ******
      ****** ****** ****** ****** ****** ****** ****** ****** ****** ******
  11  ****** ****** ****** ****** ****** ****** ****** ****** ****** ******
      ****** ****** ****** ****** ****** ****** ****** ****** ****** ******
      ****** ****** ****** ****** ****** ****** ****** ****** ****** ******
  12  ****** ****** ****** ****** ****** ****** ****** ****** ****** ******
      ****** ****** ****** ****** ****** ****** ****** ****** ****** ******
      ****** ****** ****** ****** ****** ****** ****** ****** ****** ******
  13  ****** ****** ****** ****** ****** ****** ****** ****** ****** ******
      ****** ****** ****** ****** ****** ****** ****** ****** ****** ******
      ****** ****** ****** ****** ****** ****** ****** ****** ****** ******
  14  ****** ****** ****** ****** ****** ****** ****** ****** ****** ******
      ****** ****** ****** ****** ****** ****** ****** ****** ****** ******
      ****** ****** ****** ****** ****** ****** ****** ****** ****** ******
  15  ****** ****** ****** ****** ****** ****** ****** ****** ****** ******
      ****** ****** ****** ****** ****** ****** ****** ****** ****** ******
      ****** ****** ****** ****** ****** ****** ****** ****** ****** ******
  16  ****** ****** ****** ****** ****** ****** ****** ****** ****** ******
      ****** ****** ****** ****** ****** ****** ****** ****** ****** ******
      ****** ****** ****** ****** ****** ****** ****** ****** ****** ******
  17  ****** ****** ****** ****** ****** ****** ****** ****** ****** ******
      ****** ****** ****** ****** ****** ****** ****** ****** ****** ******
      ****** ****** ****** ****** ****** ****** ****** ****** ****** ******
  18  ****** ****** ****** ****** ****** ****** ****** ****** ****** ******
      ****** ****** ****** ****** ****** ****** ****** ****** ****** ******
      ****** ****** ****** ****** ****** ****** ****** ****** ****** ******
  19  ****** ****** ****** ****** ****** ****** ****** ****** ****** ******
      ****** ****** ****** ****** ****** ****** ****** ****** ****** ******
      ****** ****** ****** ****** ****** ****** ****** ****** ****** ******
  20  ****** ****** ****** ****** ****** ****** ****** ****** ****** ******
      ****** ****** ****** ****** ****** ****** ****** ****** ****** ******
      ****** ****** ****** ****** ****** ****** ****** ****** ****** ******
  21  ****** ****** ****** ****** ****** ****** ****** ****** ****** ******
      ****** ****** ****** ****** ****** ****** ****** ****** ****** ******
      ****** ****** ****** ****** ****** ****** ****** ****** ****** ******
  22  ****** ****** ****** ****** ****** ****** ****** ****** ****** ******
      ****** ****** ****** ****** ****** ****** ****** ****** ****** ******
      ****** ****** ****** ****** ****** ****** ****** ****** ****** ******
  23  ****** ****** ****** ****** ****** ****** ****** ****** ****** ******
      ****** ****** ****** ****** ****** ****** ****** ****** ****** ******
      ****** ****** ****** ****** ****** ****** ****** ****** ****** ******
  24  ****** ****** ****** ****** ****** ****** ****** ****** ****** ******
      ****** ****** ****** ****** ****** ****** ****** ****** ****** ******
      ****** ****** ****** ****** ****** ****** ****** ****** ****** ******
  25  ****** ****** ****** ****** ****** ****** ****** ****** ****** ******
      ****** ****** ****** ****** ****** ****** ****** ****** ****** ******
      ****** ****** ****** ****** ****** ****** ****** ****** ****** ******

 HEAD WILL BE SAVED ON UNIT   51 AT END OF TIME STEP    1, STRESS PERIOD   10
1
  VOLUMETRIC BUDGET FOR ENTIRE MODEL AT END OF TIME STEP    1, STRESS PERIOD  10
  ------------------------------------------------------------------------------

     CUMULATIVE VOLUMES      L**3       RATES FOR THIS TIME STEP      L**3/T
     ------------------                 ------------------------

           IN:                                      IN:
           ---                                      ---
             STORAGE =    20874525.6452               STORAGE =           0.0000
       CONSTANT HEAD =  1142293725.8033         CONSTANT HEAD =     1234394.8521
               WELLS =           0.0000                 WELLS =           0.0000
            RECHARGE =    23901600.0000              RECHARGE =       55200.0000
      STREAM LEAKAGE =           0.0000        STREAM LEAKAGE =           0.0000

            TOTAL IN =  1187069851.4485              TOTAL IN =     1289594.8521

          OUT:                                     OUT:
          ----                                     ----
             STORAGE =      702122.4458               STORAGE =        1939.1648
       CONSTANT HEAD =           0.0000         CONSTANT HEAD =           0.0000
               WELLS =   125684428.5313                 WELLS =      119135.4206
            RECHARGE =           0.0000              RECHARGE =           0.0000
      STREAM LEAKAGE =  1060683303.2440        STREAM LEAKAGE =     1168520.2327

           TOTAL OUT =  1187069854.2211             TOTAL OUT =     1289594.8182

            IN - OUT =          -2.7727              IN - OUT =       3.3884E-02

 PERCENT DISCREPANCY =          -0.00     PERCENT DISCREPANCY =           0.00






         TIME SUMMARY AT END OF TIME STEP    1 IN STRESS PERIOD   10
                    SECONDS     MINUTES      HOURS       DAYS        YEARS
                    -----------------------------------------------------------
   TIME STEP LENGTH 7.86240E+06 1.31040E+05  2184.0      91.000     0.24914    
 STRESS PERIOD TIME 7.86240E+06 1.31040E+05  2184.0      91.000     0.24914    
         TOTAL TIME 7.88832E+07 1.31472E+06  21912.      913.00      2.4997    
1
1
                            STRESS PERIOD NO.   11, LENGTH =   91.00000    
                            -----------------------------------------------

                              NUMBER OF TIME STEPS =     1

                               MULTIPLIER FOR DELT =     1.500

                            INITIAL TIME STEP SIZE =   91.00000    

 WELL NO.  LAYER   ROW   COL   STRESS RATE         
 --------------------------------------------------
      1      1      4      5     -0.5000E+05
      2      1      2     11     -0.5000E+05
      3      1      6     11     -0.1914E+05

      3 WELLS

                 RECHARGE =   0.00000    

 REUSING STREAM SEGMENT DATA FROM LAST STRESS PERIOD
 
 SOLVING FOR HEAD 


     6 CALLS TO PCG ROUTINE FOR TIME STEP   1 IN STRESS PERIOD   11
    22 TOTAL ITERATIONS

 OUTPUT CONTROL FOR STRESS PERIOD   11   TIME STEP    1
    SAVE BUDGET
    SAVE HEAD FOR ALL LAYERS
    PRINT HEAD FOR ALL LAYERS
 UBDSV2 SAVING "STREAMFLOW OUT  " ON UNIT  50 AT TIME STEP  1, STRESS PERIOD  11



 STREAM LISTING     PERIOD     11   STEP        1

 LAYER ROW COL. STREAM  RCH.  FLOW INTO     FLOW TO   FLOW OUT OF   OVRLND.     DIRECT     STREAM       STREAM     STREAM     STREAM   STREAMBED  STREAMBED
                SEG.NO.  NO.  STRM. RCH.    AQUIFER    STRM. RCH.    RUNOFF     PRECIP       ET          HEAD       DEPTH      WIDTH   CONDCTNC.   GRADIENT

   1   13    1     1     1    1.0000E+05 -2.5561E+04   1.2556E+05  0.000E+00  0.000E+00  0.000E+00  4.84168E+01  1.555E-01  2.000E+01  2.000E+04 -1.278E+00
   1   13    2     1     2    1.2556E+05 -3.4687E+04   1.6025E+05  0.000E+00  0.000E+00  0.000E+00  4.79633E+01  1.792E-01  2.000E+01  2.000E+04 -1.734E+00
   1   14    3     1     3    1.6025E+05 -3.0938E+04   1.9119E+05  0.000E+00  0.000E+00  0.000E+00  4.75097E+01  2.029E-01  2.000E+01  2.000E+04 -1.547E+00
   1   15    4     1     4    1.9119E+05 -3.0706E+04   2.2189E+05  0.000E+00  0.000E+00  0.000E+00  4.70531E+01  2.235E-01  2.000E+01  2.000E+04 -1.535E+00
   1   16    5     1     5    2.2189E+05 -3.2812E+04   2.5470E+05  0.000E+00  0.000E+00  0.000E+00  4.65958E+01  2.436E-01  2.000E+01  2.000E+04 -1.641E+00
   1   16    6     1     6    2.5470E+05 -2.8525E+04   2.8323E+05  0.000E+00  0.000E+00  0.000E+00  4.61369E+01  2.619E-01  2.000E+01  2.000E+04 -1.426E+00
   1   16    7     1     7    2.8323E+05 -2.8304E+04   3.1153E+05  0.000E+00  0.000E+00  0.000E+00  4.56759E+01  2.782E-01  2.000E+01  2.000E+04 -1.415E+00
   1   16    8     1     8    3.1153E+05 -2.8483E+04   3.4002E+05  0.000E+00  0.000E+00  0.000E+00  4.52143E+01  2.938E-01  2.000E+01  2.000E+04 -1.424E+00
   1   16    9     1     9    3.4002E+05 -2.8600E+04   3.6862E+05  0.000E+00  0.000E+00  0.000E+00  4.47522E+01  3.090E-01  2.000E+01  2.000E+04 -1.430E+00
   1   16   10     1    10    3.6862E+05 -2.8705E+04   3.9732E+05  0.000E+00  0.000E+00  0.000E+00  4.42897E+01  3.238E-01  2.000E+01  2.000E+04 -1.435E+00
   1   16   11     1    11    3.9732E+05 -2.9424E+04   4.2675E+05  0.000E+00  0.000E+00  0.000E+00  4.38269E+01  3.383E-01  2.000E+01  2.000E+04 -1.471E+00
   1   16   12     1    12    4.2675E+05 -3.5050E+04   4.6180E+05  0.000E+00  0.000E+00  0.000E+00  4.33653E+01  3.539E-01  2.000E+01  2.000E+04 -1.753E+00
   1   15   13     1    13    4.6180E+05 -3.3368E+04   4.9516E+05  0.000E+00  0.000E+00  0.000E+00  4.29041E+01  3.700E-01  2.000E+01  2.000E+04 -1.668E+00
   1   14   14     1    14    4.9516E+05 -3.3700E+04   5.2886E+05  0.000E+00  0.000E+00  0.000E+00  4.24422E+01  3.854E-01  2.000E+01  2.000E+04 -1.685E+00
   1   13   15     1    15    5.2886E+05 -3.5747E+04   5.6461E+05  0.000E+00  0.000E+00  0.000E+00  4.19804E+01  4.009E-01  2.000E+01  2.000E+04 -1.787E+00
   1   12   16     1    16    5.6461E+05 -4.1631E+04   6.0624E+05  0.000E+00  0.000E+00  0.000E+00  4.15199E+01  4.176E-01  2.000E+01  2.000E+04 -2.082E+00
   1   12   17     1    17    6.0624E+05 -3.2894E+04   6.3914E+05  0.000E+00  0.000E+00  0.000E+00  4.10584E+01  4.334E-01  2.000E+01  2.000E+04 -1.645E+00
   1   12   18     1    18    6.3914E+05 -3.1541E+04   6.7068E+05  0.000E+00  0.000E+00  0.000E+00  4.05944E+01  4.467E-01  2.000E+01  2.000E+04 -1.577E+00
   1   12   19     1    19    6.7068E+05 -3.5689E+04   7.0637E+05  0.000E+00  0.000E+00  0.000E+00  4.01308E+01  4.603E-01  2.000E+01  2.000E+04 -1.784E+00
   1   13   20     1    20    7.0637E+05 -2.6323E+04   7.3269E+05  0.000E+00  0.000E+00  0.000E+00  3.96658E+01  4.727E-01  2.000E+01  2.000E+04 -1.316E+00
   1   14   21     1    21    7.3269E+05 -1.9445E+04   7.5214E+05  0.000E+00  0.000E+00  0.000E+00  3.91975E+01  4.816E-01  2.000E+01  2.000E+04 -9.723E-01
   1   14   22     1    22    7.5214E+05 -1.6979E+03   7.5383E+05  0.000E+00  0.000E+00  0.000E+00  3.87244E+01  4.857E-01  2.000E+01  2.000E+04 -8.490E-02
   1    9   30     2     1    5.0000E+04 -2.6315E+04   7.6315E+04  0.000E+00  0.000E+00  0.000E+00  4.02583E+01  1.333E-01  2.000E+01  2.000E+04 -1.316E+00
   1    9   29     2     2    7.6315E+04 -2.8777E+04   1.0509E+05  0.000E+00  0.000E+00  0.000E+00  4.00406E+01  1.656E-01  2.000E+01  2.000E+04 -1.439E+00
   1    9   28     2     3    1.0509E+05 -3.3041E+04   1.3813E+05  0.000E+00  0.000E+00  0.000E+00  3.98225E+01  1.975E-01  2.000E+01  2.000E+04 -1.652E+00
   1    9   27     2     4    1.3813E+05 -4.7066E+04   1.8520E+05  0.000E+00  0.000E+00  0.000E+00  3.96093E+01  2.343E-01  2.000E+01  2.000E+04 -2.353E+00
   1   10   26     2     5    1.8520E+05 -3.3014E+04   2.1821E+05  0.000E+00  0.000E+00  0.000E+00  3.93925E+01  2.675E-01  2.000E+01  2.000E+04 -1.651E+00
   1   11   25     2     6    2.1821E+05 -2.4668E+04   2.4288E+05  0.000E+00  0.000E+00  0.000E+00  3.91649E+01  2.899E-01  2.000E+01  2.000E+04 -1.233E+00
   1   12   24     2     7    2.4288E+05 -1.8135E+04   2.6102E+05  0.000E+00  0.000E+00  0.000E+00  3.89307E+01  3.057E-01  2.000E+01  2.000E+04 -9.067E-01
   1   13   23     2     8    2.6102E+05 -1.2861E+04   2.7388E+05  0.000E+00  0.000E+00  0.000E+00  3.86919E+01  3.169E-01  2.000E+01  2.000E+04 -6.430E-01
   1   14   22     2     9    2.7388E+05 -7.2058E+03   2.8108E+05  0.000E+00  0.000E+00  0.000E+00  3.84490E+01  3.240E-01  2.000E+01  2.000E+04 -3.603E-01
   1   14   22     3     1    1.0349E+06 -1.5275E+04   1.0502E+06  0.000E+00  0.000E+00  0.000E+00  3.80455E+01  4.900E-01  2.000E+01  2.000E+04 -7.638E-01
   1   15   23     3     2    1.0502E+06 -2.3505E+04   1.0737E+06  0.000E+00  0.000E+00  0.000E+00  3.71621E+01  4.954E-01  2.000E+01  2.000E+04 -1.175E+00
   1   15   24     3     3    1.0737E+06 -1.9569E+04   1.0933E+06  0.000E+00  0.000E+00  0.000E+00  3.62792E+01  5.014E-01  2.000E+01  2.000E+04 -9.784E-01
   1   15   25     3     4    1.0933E+06 -1.9164E+04   1.1124E+06  0.000E+00  0.000E+00  0.000E+00  3.53957E+01  5.068E-01  2.000E+01  2.000E+04 -9.582E-01
   1   15   26     3     5    1.1124E+06 -2.1888E+04   1.1343E+06  0.000E+00  0.000E+00  0.000E+00  3.45124E+01  5.124E-01  2.000E+01  2.000E+04 -1.094E+00
   1   16   27     3     6    1.1343E+06 -2.9027E+04   1.1633E+06  0.000E+00  0.000E+00  0.000E+00  3.36305E+01  5.193E-01  2.000E+01  2.000E+04 -1.451E+00
   1   17   28     3     7    1.1633E+06 -3.6084E+04   1.1994E+06  0.000E+00  0.000E+00  0.000E+00  3.27503E+01  5.281E-01  2.000E+01  2.000E+04 -1.804E+00
   1   18   29     3     8    1.1994E+06 -4.7095E+04   1.2465E+06  0.000E+00  0.000E+00  0.000E+00  3.18725E+01  5.392E-01  2.000E+01  2.000E+04 -2.355E+00
   1   18   30     3     9    1.2465E+06 -4.3552E+04   1.2901E+06  0.000E+00  0.000E+00  0.000E+00  3.09955E+01  5.511E-01  2.000E+01  2.000E+04 -2.178E+00



1
              HEAD IN LAYER   1 AT END OF TIME STEP   1 IN STRESS PERIOD   11
  ---------------------------------------------------------------------------

          1      2      3      4      5      6      7      8      9     10
         11     12     13     14     15     16     17     18     19     20
         21     22     23     24     25     26     27     28     29     30
 .........................................................................
   1  ****** ****** ****** ****** ****** ****** ****** ****** ****** ******
      ****** ****** ****** ****** ****** ****** ****** ****** ****** ******
      ****** ****** ****** ****** ****** ****** ****** ****** ****** ******
   2  ****** ****** ****** ****** ****** ****** ****** ****** ****** ******
      ****** ****** ****** ****** ****** ****** ****** ****** ****** ******
      ****** ****** ****** ****** ****** ****** ****** ****** ****** ******
   3  ****** ****** ****** ****** ****** ****** ****** ****** ****** ******
      ****** ****** ****** ****** ****** ****** ****** ****** ****** ******
      ****** ****** ****** ****** ****** ****** ****** ****** ****** ******
   4  ****** ****** ****** ****** ****** ****** ****** ****** ****** ******
      ****** ****** ****** ****** ****** ****** ****** ****** ****** ******
      ****** ****** ****** ****** ****** ****** ****** ****** ****** ******
   5  ****** ****** ****** ****** ****** ****** ****** ****** ****** ******
      ****** ****** ****** ****** ****** ****** ****** ****** ****** ******
      ****** ****** ****** ****** ****** ****** ****** ****** ****** ******
   6  ****** ****** ****** ****** ****** ****** ****** ****** ****** ******
      ****** ****** ****** ****** ****** ****** ****** ****** ****** ******
      ****** ****** ****** ****** ****** ****** ****** ****** ****** ******
   7  ****** ****** ****** ****** ****** ****** ****** ****** ****** ******
      ****** ****** ****** ****** ****** ****** ****** ****** ****** ******
      ****** ****** ****** ****** ****** ****** ****** ****** ****** ******
   8  ****** ****** ****** ****** ****** ****** ****** ****** ****** ******
      ****** ****** ****** ****** ****** ****** ****** ****** ****** ******
      ****** ****** ****** ****** ****** ****** ****** ****** ****** ******
   9  ****** ****** ****** ****** ****** ****** ****** ****** ****** ******
      ****** ****** ****** ****** ****** ****** ****** ****** ****** ******
      ****** ****** ****** ****** ****** ****** ****** ****** ****** ******
  10  ****** ****** ****** ****** ****** ****** ****** ****** ****** ******
      ****** ****** ****** ****** ****** ****** ****** ****** ****** ******
      ****** ****** ****** ****** ****** ****** ****** ****** ****** ******
  11  ****** ****** ****** ****** ****** ****** ****** ****** ****** ******
      ****** ****** ****** ****** ****** ****** ****** ****** ****** ******
      ****** ****** ****** ****** ****** ****** ****** ****** ****** ******
  12  ****** ****** ****** ****** ****** ****** ****** ****** ****** ******
      ****** ****** ****** ****** ****** ****** ****** ****** ****** ******
      ****** ****** ****** ****** ****** ****** ****** ****** ****** ******
  13  ****** ****** ****** ****** ****** ****** ****** ****** ****** ******
      ****** ****** ****** ****** ****** ****** ****** ****** ****** ******
      ****** ****** ****** ****** ****** ****** ****** ****** ****** ******
  14  ****** ****** ****** ****** ****** ****** ****** ****** ****** ******
      ****** ****** ****** ****** ****** ****** ****** ****** ****** ******
      ****** ****** ****** ****** ****** ****** ****** ****** ****** ******
  15  ****** ****** ****** ****** ****** ****** ****** ****** ****** ******
      ****** ****** ****** ****** ****** ****** ****** ****** ****** ******
      ****** ****** ****** ****** ****** ****** ****** ****** ****** ******
  16  ****** ****** ****** ****** ****** ****** ****** ****** ****** ******
      ****** ****** ****** ****** ****** ****** ****** ****** ****** ******
      ****** ****** ****** ****** ****** ****** ****** ****** ****** ******
  17  ****** ****** ****** ****** ****** ****** ****** ****** ****** ******
      ****** ****** ****** ****** ****** ****** ****** ****** ****** ******
      ****** ****** ****** ****** ****** ****** ****** ****** ****** ******
  18  ****** ****** ****** ****** ****** ****** ****** ****** ****** ******
      ****** ****** ****** ****** ****** ****** ****** ****** ****** ******
      ****** ****** ****** ****** ****** ****** ****** ****** ****** ******
  19  ****** ****** ****** ****** ****** ****** ****** ****** ****** ******
      ****** ****** ****** ****** ****** ****** ****** ****** ****** ******
      ****** ****** ****** ****** ****** ****** ****** ****** ****** ******
  20  ****** ****** ****** ****** ****** ****** ****** ****** ****** ******
      ****** ****** ****** ****** ****** ****** ****** ****** ****** ******
      ****** ****** ****** ****** ****** ****** ****** ****** ****** ******
  21  ****** ****** ****** ****** ****** ****** ****** ****** ****** ******
      ****** ****** ****** ****** ****** ****** ****** ****** ****** ******
      ****** ****** ****** ****** ****** ****** ****** ****** ****** ******
  22  ****** ****** ****** ****** ****** ****** ****** ****** ****** ******
      ****** ****** ****** ****** ****** ****** ****** ****** ****** ******
      ****** ****** ****** ****** ****** ****** ****** ****** ****** ******
  23  ****** ****** ****** ****** ****** ****** ****** ****** ****** ******
      ****** ****** ****** ****** ****** ****** ****** ****** ****** ******
      ****** ****** ****** ****** ****** ****** ****** ****** ****** ******
  24  ****** ****** ****** ****** ****** ****** ****** ****** ****** ******
      ****** ****** ****** ****** ****** ****** ****** ****** ****** ******
      ****** ****** ****** ****** ****** ****** ****** ****** ****** ******
  25  ****** ****** ****** ****** ****** ****** ****** ****** ****** ******
      ****** ****** ****** ****** ****** ****** ****** ****** ****** ******
      ****** ****** ****** ****** ****** ****** ****** ****** ****** ******

 HEAD WILL BE SAVED ON UNIT   51 AT END OF TIME STEP    1, STRESS PERIOD   11
1
  VOLUMETRIC BUDGET FOR ENTIRE MODEL AT END OF TIME STEP    1, STRESS PERIOD  11
  ------------------------------------------------------------------------------

     CUMULATIVE VOLUMES      L**3       RATES FOR THIS TIME STEP      L**3/T
     ------------------                 ------------------------

           IN:                                      IN:
           ---                                      ---
             STORAGE =    21103526.0691               STORAGE =        2516.4882
       CONSTANT HEAD =  1256652864.5664         CONSTANT HEAD =     1256693.8326
               WELLS =           0.0000                 WELLS =           0.0000
            RECHARGE =    23901600.0000              RECHARGE =           0.0000
      STREAM LEAKAGE =           0.0000        STREAM LEAKAGE =           0.0000

            TOTAL IN =  1301657990.6355              TOTAL IN =     1259210.3207

          OUT:                                     OUT:
          ----                                     ----
             STORAGE =      702122.4458               STORAGE =           0.0000
       CONSTANT HEAD =           0.0000         CONSTANT HEAD =           0.0000
               WELLS =   136525751.8090                 WELLS =      119135.4206
            RECHARGE =           0.0000              RECHARGE =           0.0000
      STREAM LEAKAGE =  1164430123.2680        STREAM LEAKAGE =     1140074.9453

           TOTAL OUT =  1301657997.5227             TOTAL OUT =     1259210.3660

            IN - OUT =          -6.8872              IN - OUT =      -4.5215E-02

 PERCENT DISCREPANCY =          -0.00     PERCENT DISCREPANCY =          -0.00






         TIME SUMMARY AT END OF TIME STEP    1 IN STRESS PERIOD   11
                    SECONDS     MINUTES      HOURS       DAYS        YEARS
                    -----------------------------------------------------------
   TIME STEP LENGTH 7.86240E+06 1.31040E+05  2184.0      91.000     0.24914    
 STRESS PERIOD TIME 7.86240E+06 1.31040E+05  2184.0      91.000     0.24914    
         TOTAL TIME 8.67456E+07 1.44576E+06  24096.      1004.0      2.7488    
1
1
                            STRESS PERIOD NO.   12, LENGTH =   91.00000    
                            -----------------------------------------------

                              NUMBER OF TIME STEPS =     1

                               MULTIPLIER FOR DELT =     1.500

                            INITIAL TIME STEP SIZE =   91.00000    

 WELL NO.  LAYER   ROW   COL   STRESS RATE         
 --------------------------------------------------
      1      1      4      5     -0.5000E+05
      2      1      2     11     -0.5000E+05
      3      1      6     11     -0.1914E+05

      3 WELLS

                 RECHARGE =  1.000000E-03

 REUSING STREAM SEGMENT DATA FROM LAST STRESS PERIOD
 
 SOLVING FOR HEAD 


     6 CALLS TO PCG ROUTINE FOR TIME STEP   1 IN STRESS PERIOD   12
    22 TOTAL ITERATIONS

 OUTPUT CONTROL FOR STRESS PERIOD   12   TIME STEP    1
    SAVE BUDGET
    SAVE HEAD FOR ALL LAYERS
    PRINT HEAD FOR ALL LAYERS
 UBDSV2 SAVING "STREAMFLOW OUT  " ON UNIT  50 AT TIME STEP  1, STRESS PERIOD  12



 STREAM LISTING     PERIOD     12   STEP        1

 LAYER ROW COL. STREAM  RCH.  FLOW INTO     FLOW TO   FLOW OUT OF   OVRLND.     DIRECT     STREAM       STREAM     STREAM     STREAM   STREAMBED  STREAMBED
                SEG.NO.  NO.  STRM. RCH.    AQUIFER    STRM. RCH.    RUNOFF     PRECIP       ET          HEAD       DEPTH      WIDTH   CONDCTNC.   GRADIENT

   1   13    1     1     1    1.0000E+05 -2.5953E+04   1.2595E+05  0.000E+00  0.000E+00  0.000E+00  4.84170E+01  1.556E-01  2.000E+01  2.000E+04 -1.298E+00
   1   13    2     1     2    1.2595E+05 -3.5154E+04   1.6111E+05  0.000E+00  0.000E+00  0.000E+00  4.79638E+01  1.797E-01  2.000E+01  2.000E+04 -1.758E+00
   1   14    3     1     3    1.6111E+05 -3.1400E+04   1.9251E+05  0.000E+00  0.000E+00  0.000E+00  4.75104E+01  2.036E-01  2.000E+01  2.000E+04 -1.570E+00
   1   15    4     1     4    1.9251E+05 -3.1152E+04   2.2366E+05  0.000E+00  0.000E+00  0.000E+00  4.70541E+01  2.245E-01  2.000E+01  2.000E+04 -1.558E+00
   1   16    5     1     5    2.2366E+05 -3.3218E+04   2.5688E+05  0.000E+00  0.000E+00  0.000E+00  4.65970E+01  2.448E-01  2.000E+01  2.000E+04 -1.661E+00
   1   16    6     1     6    2.5688E+05 -2.8877E+04   2.8575E+05  0.000E+00  0.000E+00  0.000E+00  4.61383E+01  2.633E-01  2.000E+01  2.000E+04 -1.444E+00
   1   16    7     1     7    2.8575E+05 -2.8652E+04   3.1441E+05  0.000E+00  0.000E+00  0.000E+00  4.56774E+01  2.797E-01  2.000E+01  2.000E+04 -1.433E+00
   1   16    8     1     8    3.1441E+05 -2.8832E+04   3.4324E+05  0.000E+00  0.000E+00  0.000E+00  4.52159E+01  2.955E-01  2.000E+01  2.000E+04 -1.442E+00
   1   16    9     1     9    3.4324E+05 -2.8949E+04   3.7219E+05  0.000E+00  0.000E+00  0.000E+00  4.47540E+01  3.108E-01  2.000E+01  2.000E+04 -1.447E+00
   1   16   10     1    10    3.7219E+05 -2.9053E+04   4.0124E+05  0.000E+00  0.000E+00  0.000E+00  4.42916E+01  3.257E-01  2.000E+01  2.000E+04 -1.453E+00
   1   16   11     1    11    4.0124E+05 -2.9777E+04   4.3102E+05  0.000E+00  0.000E+00  0.000E+00  4.38289E+01  3.403E-01  2.000E+01  2.000E+04 -1.489E+00
   1   16   12     1    12    4.3102E+05 -3.5462E+04   4.6648E+05  0.000E+00  0.000E+00  0.000E+00  4.33674E+01  3.561E-01  2.000E+01  2.000E+04 -1.773E+00
   1   15   13     1    13    4.6648E+05 -3.3821E+04   5.0030E+05  0.000E+00  0.000E+00  0.000E+00  4.29064E+01  3.723E-01  2.000E+01  2.000E+04 -1.691E+00
   1   14   14     1    14    5.0030E+05 -3.4166E+04   5.3447E+05  0.000E+00  0.000E+00  0.000E+00  4.24446E+01  3.878E-01  2.000E+01  2.000E+04 -1.708E+00
   1   13   15     1    15    5.3447E+05 -3.6209E+04   5.7068E+05  0.000E+00  0.000E+00  0.000E+00  4.19830E+01  4.034E-01  2.000E+01  2.000E+04 -1.810E+00
   1   12   16     1    16    5.7068E+05 -4.2076E+04   6.1275E+05  0.000E+00  0.000E+00  0.000E+00  4.15226E+01  4.203E-01  2.000E+01  2.000E+04 -2.104E+00
   1   12   17     1    17    6.1275E+05 -3.3255E+04   6.4601E+05  0.000E+00  0.000E+00  0.000E+00  4.10612E+01  4.362E-01  2.000E+01  2.000E+04 -1.663E+00
   1   12   18     1    18    6.4601E+05 -3.1887E+04   6.7789E+05  0.000E+00  0.000E+00  0.000E+00  4.05973E+01  4.496E-01  2.000E+01  2.000E+04 -1.594E+00
   1   12   19     1    19    6.7789E+05 -3.6068E+04   7.1396E+05  0.000E+00  0.000E+00  0.000E+00  4.01338E+01  4.633E-01  2.000E+01  2.000E+04 -1.803E+00
   1   13   20     1    20    7.1396E+05 -2.6680E+04   7.4064E+05  0.000E+00  0.000E+00  0.000E+00  3.96689E+01  4.757E-01  2.000E+01  2.000E+04 -1.334E+00
   1   14   21     1    21    7.4064E+05 -1.9753E+04   7.6039E+05  0.000E+00  0.000E+00  0.000E+00  3.92007E+01  4.848E-01  2.000E+01  2.000E+04 -9.877E-01
   1   14   22     1    22    7.6039E+05 -1.8076E+03   7.6220E+05  0.000E+00  0.000E+00  0.000E+00  3.87276E+01  4.889E-01  2.000E+01  2.000E+04 -9.038E-02
   1    9   30     2     1    5.0000E+04 -2.6597E+04   7.6597E+04  0.000E+00  0.000E+00  0.000E+00  4.02585E+01  1.335E-01  2.000E+01  2.000E+04 -1.330E+00
   1    9   29     2     2    7.6597E+04 -2.9058E+04   1.0565E+05  0.000E+00  0.000E+00  0.000E+00  4.00411E+01  1.661E-01  2.000E+01  2.000E+04 -1.453E+00
   1    9   28     2     3    1.0565E+05 -3.3331E+04   1.3899E+05  0.000E+00  0.000E+00  0.000E+00  3.98232E+01  1.982E-01  2.000E+01  2.000E+04 -1.667E+00
   1    9   27     2     4    1.3899E+05 -4.7419E+04   1.8640E+05  0.000E+00  0.000E+00  0.000E+00  3.96102E+01  2.352E-01  2.000E+01  2.000E+04 -2.371E+00
   1   10   26     2     5    1.8640E+05 -3.3381E+04   2.1979E+05  0.000E+00  0.000E+00  0.000E+00  3.93937E+01  2.687E-01  2.000E+01  2.000E+04 -1.669E+00
   1   11   25     2     6    2.1979E+05 -2.5022E+04   2.4481E+05  0.000E+00  0.000E+00  0.000E+00  3.91662E+01  2.912E-01  2.000E+01  2.000E+04 -1.251E+00
   1   12   24     2     7    2.4481E+05 -1.8452E+04   2.6326E+05  0.000E+00  0.000E+00  0.000E+00  3.89323E+01  3.073E-01  2.000E+01  2.000E+04 -9.226E-01
   1   13   23     2     8    2.6326E+05 -1.3119E+04   2.7638E+05  0.000E+00  0.000E+00  0.000E+00  3.86936E+01  3.186E-01  2.000E+01  2.000E+04 -6.559E-01
   1   14   22     2     9    2.7638E+05 -7.3437E+03   2.8372E+05  0.000E+00  0.000E+00  0.000E+00  3.84508E+01  3.258E-01  2.000E+01  2.000E+04 -3.672E-01
   1   14   22     3     1    1.0459E+06 -1.5387E+04   1.0613E+06  0.000E+00  0.000E+00  0.000E+00  3.80486E+01  4.931E-01  2.000E+01  2.000E+04 -7.693E-01
   1   15   23     3     2    1.0613E+06 -2.3793E+04   1.0851E+06  0.000E+00  0.000E+00  0.000E+00  3.71652E+01  4.986E-01  2.000E+01  2.000E+04 -1.190E+00
   1   15   24     3     3    1.0851E+06 -1.9809E+04   1.1049E+06  0.000E+00  0.000E+00  0.000E+00  3.62824E+01  5.046E-01  2.000E+01  2.000E+04 -9.904E-01
   1   15   25     3     4    1.1049E+06 -1.9403E+04   1.1243E+06  0.000E+00  0.000E+00  0.000E+00  3.53989E+01  5.100E-01  2.000E+01  2.000E+04 -9.702E-01
   1   15   26     3     5    1.1243E+06 -2.2168E+04   1.1465E+06  0.000E+00  0.000E+00  0.000E+00  3.45157E+01  5.157E-01  2.000E+01  2.000E+04 -1.108E+00
   1   16   27     3     6    1.1465E+06 -2.9364E+04   1.1758E+06  0.000E+00  0.000E+00  0.000E+00  3.36338E+01  5.227E-01  2.000E+01  2.000E+04 -1.468E+00
   1   17   28     3     7    1.1758E+06 -3.6429E+04   1.2123E+06  0.000E+00  0.000E+00  0.000E+00  3.27537E+01  5.315E-01  2.000E+01  2.000E+04 -1.821E+00
   1   18   29     3     8    1.2123E+06 -4.7418E+04   1.2597E+06  0.000E+00  0.000E+00  0.000E+00  3.18760E+01  5.426E-01  2.000E+01  2.000E+04 -2.371E+00
   1   18   30     3     9    1.2597E+06 -4.3822E+04   1.3035E+06  0.000E+00  0.000E+00  0.000E+00  3.09990E+01  5.546E-01  2.000E+01  2.000E+04 -2.191E+00



1
              HEAD IN LAYER   1 AT END OF TIME STEP   1 IN STRESS PERIOD   12
  ---------------------------------------------------------------------------

          1      2      3      4      5      6      7      8      9     10
         11     12     13     14     15     16     17     18     19     20
         21     22     23     24     25     26     27     28     29     30
 .........................................................................
   1  ****** ****** ****** ****** ****** ****** ****** ****** ****** ******
      ****** ****** ****** ****** ****** ****** ****** ****** ****** ******
      ****** ****** ****** ****** ****** ****** ****** ****** ****** ******
   2  ****** ****** ****** ****** ****** ****** ****** ****** ****** ******
      ****** ****** ****** ****** ****** ****** ****** ****** ****** ******
      ****** ****** ****** ****** ****** ****** ****** ****** ****** ******
   3  ****** ****** ****** ****** ****** ****** ****** ****** ****** ******
      ****** ****** ****** ****** ****** ****** ****** ****** ****** ******
      ****** ****** ****** ****** ****** ****** ****** ****** ****** ******
   4  ****** ****** ****** ****** ****** ****** ****** ****** ****** ******
      ****** ****** ****** ****** ****** ****** ****** ****** ****** ******
      ****** ****** ****** ****** ****** ****** ****** ****** ****** ******
   5  ****** ****** ****** ****** ****** ****** ****** ****** ****** ******
      ****** ****** ****** ****** ****** ****** ****** ****** ****** ******
      ****** ****** ****** ****** ****** ****** ****** ****** ****** ******
   6  ****** ****** ****** ****** ****** ****** ****** ****** ****** ******
      ****** ****** ****** ****** ****** ****** ****** ****** ****** ******
      ****** ****** ****** ****** ****** ****** ****** ****** ****** ******
   7  ****** ****** ****** ****** ****** ****** ****** ****** ****** ******
      ****** ****** ****** ****** ****** ****** ****** ****** ****** ******
      ****** ****** ****** ****** ****** ****** ****** ****** ****** ******
   8  ****** ****** ****** ****** ****** ****** ****** ****** ****** ******
      ****** ****** ****** ****** ****** ****** ****** ****** ****** ******
      ****** ****** ****** ****** ****** ****** ****** ****** ****** ******
   9  ****** ****** ****** ****** ****** ****** ****** ****** ****** ******
      ****** ****** ****** ****** ****** ****** ****** ****** ****** ******
      ****** ****** ****** ****** ****** ****** ****** ****** ****** ******
  10  ****** ****** ****** ****** ****** ****** ****** ****** ****** ******
      ****** ****** ****** ****** ****** ****** ****** ****** ****** ******
      ****** ****** ****** ****** ****** ****** ****** ****** ****** ******
  11  ****** ****** ****** ****** ****** ****** ****** ****** ****** ******
      ****** ****** ****** ****** ****** ****** ****** ****** ****** ******
      ****** ****** ****** ****** ****** ****** ****** ****** ****** ******
  12  ****** ****** ****** ****** ****** ****** ****** ****** ****** ******
      ****** ****** ****** ****** ****** ****** ****** ****** ****** ******
      ****** ****** ****** ****** ****** ****** ****** ****** ****** ******
  13  ****** ****** ****** ****** ****** ****** ****** ****** ****** ******
      ****** ****** ****** ****** ****** ****** ****** ****** ****** ******
      ****** ****** ****** ****** ****** ****** ****** ****** ****** ******
  14  ****** ****** ****** ****** ****** ****** ****** ****** ****** ******
      ****** ****** ****** ****** ****** ****** ****** ****** ****** ******
      ****** ****** ****** ****** ****** ****** ****** ****** ****** ******
  15  ****** ****** ****** ****** ****** ****** ****** ****** ****** ******
      ****** ****** ****** ****** ****** ****** ****** ****** ****** ******
      ****** ****** ****** ****** ****** ****** ****** ****** ****** ******
  16  ****** ****** ****** ****** ****** ****** ****** ****** ****** ******
      ****** ****** ****** ****** ****** ****** ****** ****** ****** ******
      ****** ****** ****** ****** ****** ****** ****** ****** ****** ******
  17  ****** ****** ****** ****** ****** ****** ****** ****** ****** ******
      ****** ****** ****** ****** ****** ****** ****** ****** ****** ******
      ****** ****** ****** ****** ****** ****** ****** ****** ****** ******
  18  ****** ****** ****** ****** ****** ****** ****** ****** ****** ******
      ****** ****** ****** ****** ****** ****** ****** ****** ****** ******
      ****** ****** ****** ****** ****** ****** ****** ****** ****** ******
  19  ****** ****** ****** ****** ****** ****** ****** ****** ****** ******
      ****** ****** ****** ****** ****** ****** ****** ****** ****** ******
      ****** ****** ****** ****** ****** ****** ****** ****** ****** ******
  20  ****** ****** ****** ****** ****** ****** ****** ****** ****** ******
      ****** ****** ****** ****** ****** ****** ****** ****** ****** ******
      ****** ****** ****** ****** ****** ****** ****** ****** ****** ******
  21  ****** ****** ****** ****** ****** ****** ****** ****** ****** ******
      ****** ****** ****** ****** ****** ****** ****** ****** ****** ******
      ****** ****** ****** ****** ****** ****** ****** ****** ****** ******
  22  ****** ****** ****** ****** ****** ****** ****** ****** ****** ******
      ****** ****** ****** ****** ****** ****** ****** ****** ****** ******
      ****** ****** ****** ****** ****** ****** ****** ****** ****** ******
  23  ****** ****** ****** ****** ****** ****** ****** ****** ****** ******
      ****** ****** ****** ****** ****** ****** ****** ****** ****** ******
      ****** ****** ****** ****** ****** ****** ****** ****** ****** ******
  24  ****** ****** ****** ****** ****** ****** ****** ****** ****** ******
      ****** ****** ****** ****** ****** ****** ****** ****** ****** ******
      ****** ****** ****** ****** ****** ****** ****** ****** ****** ******
  25  ****** ****** ****** ****** ****** ****** ****** ****** ****** ******
      ****** ****** ****** ****** ****** ****** ****** ****** ****** ******
      ****** ****** ****** ****** ****** ****** ****** ****** ****** ******

 HEAD WILL BE SAVED ON UNIT   51 AT END OF TIME STEP    1, STRESS PERIOD   12
1
  VOLUMETRIC BUDGET FOR ENTIRE MODEL AT END OF TIME STEP    1, STRESS PERIOD  12
  ------------------------------------------------------------------------------

     CUMULATIVE VOLUMES      L**3       RATES FOR THIS TIME STEP      L**3/T
     ------------------                 ------------------------

           IN:                                      IN:
           ---                                      ---
             STORAGE =    21103526.0691               STORAGE =           0.0000
       CONSTANT HEAD =  1370058619.4714         CONSTANT HEAD =     1246217.0869
               WELLS =           0.0000                 WELLS =           0.0000
            RECHARGE =    26413200.0000              RECHARGE =       27600.0000
      STREAM LEAKAGE =           0.0000        STREAM LEAKAGE =           0.0000

            TOTAL IN =  1417575345.5405              TOTAL IN =     1273817.0869

          OUT:                                     OUT:
          ----                                     ----
             STORAGE =      808472.3087               STORAGE =        1168.6798
       CONSTANT HEAD =           0.0000         CONSTANT HEAD =           0.0000
               WELLS =   147367075.0866                 WELLS =      119135.4206
            RECHARGE =           0.0000              RECHARGE =           0.0000
      STREAM LEAKAGE =  1269399803.1338        STREAM LEAKAGE =     1153512.9656

           TOTAL OUT =  1417575350.5291             TOTAL OUT =     1273817.0660

            IN - OUT =          -4.9886              IN - OUT =       2.0864E-02

 PERCENT DISCREPANCY =          -0.00     PERCENT DISCREPANCY =           0.00






         TIME SUMMARY AT END OF TIME STEP    1 IN STRESS PERIOD   12
                    SECONDS     MINUTES      HOURS       DAYS        YEARS
                    -----------------------------------------------------------
   TIME STEP LENGTH 7.86240E+06 1.31040E+05  2184.0      91.000     0.24914    
 STRESS PERIOD TIME 7.86240E+06 1.31040E+05  2184.0      91.000     0.24914    
         TOTAL TIME 9.46080E+07 1.57680E+06  26280.      1095.0      2.9979    
1

 Run end date and time (yyyy/mm/dd hh:mm:ss): 2018/10/02 17:41:21
 Elapsed run time:  0.078 Seconds

