                                  MODFLOW-2005     
      U.S. GEOLOGICAL SURVEY MODULAR FINITE-DIFFERENCE GROUND-WATER FLOW MODEL
                            VERSION 1.11.00 8/8/2013

 LIST FILE: supply2.lst
                         UNIT   10

 OPENING ..\data\supply.dis
 FILE TYPE:DIS   UNIT   11   STATUS:OLD    
 FORMAT:FORMATTED              ACCESS:SEQUENTIAL          

 OPENING ..\data\supply.ba6
 FILE TYPE:BAS6   UNIT   12   STATUS:OLD    
 FORMAT:FORMATTED              ACCESS:SEQUENTIAL          

 OPENING ..\data\supply_het.bc6
 FILE TYPE:BCF6   UNIT   13   STATUS:OLD    
 FORMAT:FORMATTED              ACCESS:SEQUENTIAL          

 OPENING ..\data\supply.rch
 FILE TYPE:RCH   UNIT   15   STATUS:OLD    
 FORMAT:FORMATTED              ACCESS:SEQUENTIAL          

 OPENING ..\data\supply2.sfr
 FILE TYPE:SFR   UNIT   16   STATUS:OLD    
 FORMAT:FORMATTED              ACCESS:SEQUENTIAL          

 OPENING ..\data\supply.oc
 FILE TYPE:OC   UNIT   17   STATUS:OLD    
 FORMAT:FORMATTED              ACCESS:SEQUENTIAL          

 OPENING ..\data\supply.pcg
 FILE TYPE:PCG   UNIT   18   STATUS:OLD    
 FORMAT:FORMATTED              ACCESS:SEQUENTIAL          

 OPENING supply2.wel
 FILE TYPE:WEL   UNIT   19   STATUS:OLD    
 FORMAT:FORMATTED              ACCESS:SEQUENTIAL          

 OPENING supply2sf.cbc
 FILE TYPE:DATA(BINARY)   UNIT   50   STATUS:UNKNOWN
 FORMAT:BINARY                 ACCESS:SEQUENTIAL          

 OPENING supply2hd.bhd
 FILE TYPE:DATA(BINARY)   UNIT   51   STATUS:UNKNOWN
 FORMAT:BINARY                 ACCESS:SEQUENTIAL          

 BAS -- BASIC PACKAGE, VERSION 7, 5/2/2005 INPUT READ FROM UNIT   12
 
 MODFLOW was compiled using uniform precision
 Precision of REAL and DOUBLE PRECISION variables:          15

 DISCRETIZATION INPUT DATA READ FROM UNIT   11
    1 LAYERS        25 ROWS        30 COLUMNS
   12 STRESS PERIOD(S) IN SIMULATION
 MODEL TIME UNIT IS DAYS
 MODEL LENGTH UNIT IS UNDEFINED
  Confining bed flag for each layer:
   0

                     DELR =   200.000    

                     DELC =   200.000    

 TOP ELEVATION OF LAYER 1 =  100.0000    

   MODEL LAYER BOTTOM EL. =   0.00000     FOR LAYER   1


 STRESS PERIOD     LENGTH       TIME STEPS     MULTIPLIER FOR DELT    SS FLAG
 ----------------------------------------------------------------------------
        1         92.00000          1                    1.500         TR
        2         91.00000          1                    1.500         TR
        3         91.00000          1                    1.500         TR
        4         91.00000          1                    1.500         TR
        5         92.00000          1                    1.500         TR
        6         91.00000          1                    1.500         TR
        7         91.00000          1                    1.500         TR
        8         91.00000          1                    1.500         TR
        9         92.00000          1                    1.500         TR
       10         91.00000          1                    1.500         TR
       11         91.00000          1                    1.500         TR
       12         91.00000          1                    1.500         TR

 TRANSIENT SIMULATION



 
 #MODOFC transient water supply sample problem                                   
 #                                                                               
 THE FREE FORMAT OPTION HAS BEEN SELECTED



                     BOUNDARY ARRAY FOR LAYER   1
 READING ON UNIT   12 WITH FORMAT: (20I4)              

 AQUIFER HEAD WILL BE SET TO   0.0000     AT ALL NO-FLOW NODES (IBOUND=0).



                       INITIAL HEAD FOR LAYER   1
 READING ON UNIT   12 WITH FORMAT: (10F13.0)           

 OUTPUT CONTROL IS SPECIFIED ONLY AT TIME STEPS FOR WHICH OUTPUT IS DESIRED
 COMPACT CELL-BY-CELL BUDGET FILES WILL BE WRITTEN
 HEAD PRINT FORMAT CODE IS  18    DRAWDOWN PRINT FORMAT CODE IS   0
 HEADS WILL BE SAVED ON UNIT   51    DRAWDOWNS WILL BE SAVED ON UNIT    0

 BCF -- BLOCK-CENTERED FLOW PACKAGE, VERSION 7, 5/2/2005
         INPUT READ FROM UNIT 13
 TRANSIENT SIMULATION
 HEAD AT CELLS THAT CONVERT TO DRY=   0.0000    
 WETTING CAPABILITY IS NOT ACTIVE
      LAYER  LAYER-TYPE CODE     INTERBLOCK T
      --------------------------------------------
         1            0          0 -- HARMONIC    

 COLUMN TO ROW ANISOTROPY =  1.000000    

     PRIMARY STORAGE COEF =  5.000000E-02 FOR LAYER   1



               TRANSMIS. ALONG ROWS FOR LAYER   1
 READING ON UNIT   13 WITH FORMAT: (FREE)              

 WEL -- WELL PACKAGE, VERSION 7, 5/2/2005 INPUT READ FROM UNIT   19
 # Well package input file written by MMProc
 No named parameters
 MAXIMUM OF      4 ACTIVE WELLS AT ONE TIME


     0 Well parameters

 RCH -- RECHARGE PACKAGE, VERSION 7, 5/2/2005 INPUT READ FROM UNIT   15
 No named parameters
 OPTION 1 -- RECHARGE TO TOP LAYER


     0 Recharge parameters

 SFR7 -- STREAMFLOW ROUTING PACKAGE, VERSION 1.0.7, 2013-01-15
         INPUT READ FROM UNIT  16
 #  Supply2 test problem for GWM-VI
 #  The eighth entry in the first data line is ISTCB2 -
 #    Setting this to a negative number indicates that
 #    streamflows out of the reach will be saved to a
 #    binary file.  The absolute value of ISTCB2 is the
 #    unit to which unformatted flows will be written.
 #
 No named parameters
 Segment information will not be 
 read by reach
 No named parameters
 No specifed inflow files


 NUMBER OF STREAM REACHES IS   40

 NUMBER OF STREAM SEGMENTS IS    3

 NUMBER OF STREAM PARAMETERS IS    0

 NUMBER OF STREAM SEGMENTS DEFINED USING PARAMETERS IS              0

 MAXIMUM ERROR FOR STREAM LEAKAGE RATES IS  1.00E-04

 CONSTANT FOR MANNINGS EQUATION IS  1.2839E+05





   STREAM NETWORK DESCRIPTION: 

   LAYER    ROW    COL   SEGMENT   REACH     LENGTH
                          NUMBER   NUMBER    IN CELL        
   --------------------------------------------------
      1     13      1       1        1    2.0000E+02
      1     13      2       1        2    2.0000E+02
      1     14      3       1        3    2.0000E+02
      1     15      4       1        4    2.0000E+02
      1     16      5       1        5    2.0000E+02
      1     16      6       1        6    2.0000E+02
      1     16      7       1        7    2.0000E+02
      1     16      8       1        8    2.0000E+02
      1     16      9       1        9    2.0000E+02
      1     16     10       1       10    2.0000E+02
      1     16     11       1       11    2.0000E+02
      1     16     12       1       12    2.0000E+02
      1     15     13       1       13    2.0000E+02
      1     14     14       1       14    2.0000E+02
      1     13     15       1       15    2.0000E+02
      1     12     16       1       16    2.0000E+02
      1     12     17       1       17    2.0000E+02
      1     12     18       1       18    2.0000E+02
      1     12     19       1       19    2.0000E+02
      1     13     20       1       20    2.0000E+02
      1     14     21       1       21    2.0000E+02
      1     14     22       1       22    2.0000E+02
      1      9     30       2        1    2.0000E+02
      1      9     29       2        2    2.0000E+02
      1      9     28       2        3    2.0000E+02
      1      9     27       2        4    2.0000E+02
      1     10     26       2        5    2.0000E+02
      1     11     25       2        6    2.0000E+02
      1     12     24       2        7    2.0000E+02
      1     13     23       2        8    2.0000E+02
      1     14     22       2        9    2.0000E+02
      1     14     22       3        1    2.0000E+02
      1     15     23       3        2    2.0000E+02
      1     15     24       3        3    2.0000E+02
      1     15     25       3        4    2.0000E+02
      1     15     26       3        5    2.0000E+02
      1     16     27       3        6    2.0000E+02
      1     17     28       3        7    2.0000E+02
      1     18     29       3        8    2.0000E+02
      1     18     30       3        9    2.0000E+02




 PCG -- CONJUGATE-GRADIENT SOLUTION PACKAGE, VERSION 7, 5/2/2005
 MAXIMUM OF    500 CALLS OF SOLUTION ROUTINE
 MAXIMUM OF      5 INTERNAL ITERATIONS PER CALL TO SOLUTION ROUTINE
 MATRIX PRECONDITIONING TYPE :    1



                                    SOLUTION BY THE CONJUGATE-GRADIENT METHOD
                                   -------------------------------------------
                    MAXIMUM NUMBER OF CALLS TO PCG ROUTINE =      500
                        MAXIMUM ITERATIONS PER CALL TO PCG =        5
                               MATRIX PRECONDITIONING TYPE =        1
        RELAXATION FACTOR (ONLY USED WITH PRECOND. TYPE 1) =    0.10000E+01
 PARAMETER OF POLYNOMIAL PRECOND. = 2 (2) OR IS CALCULATED :        0
                         HEAD CHANGE CRITERION FOR CLOSURE =    0.10000E-05
                     RESIDUAL CHANGE CRITERION FOR CLOSURE =    0.10000E+01
            PCG HEAD AND RESIDUAL CHANGE PRINTOUT INTERVAL =        1
     PRINTING FROM SOLVER IS LIMITED(1) OR SUPPRESSED (>1) =        1
                            STEADY-STATE DAMPING PARAMETER =    0.10000E+01
                               TRANSIENT DAMPING PARAMETER =    0.10000E+01
1
                            STRESS PERIOD NO.    1, LENGTH =   92.00000    
                            -----------------------------------------------

                              NUMBER OF TIME STEPS =     1

                               MULTIPLIER FOR DELT =     1.500

                            INITIAL TIME STEP SIZE =   92.00000    

 WELL NO.  LAYER   ROW   COL   STRESS RATE         
 --------------------------------------------------
      1      1      6     26      -9457.    
      2      1     23      4      -2056.    
      3      1     12     10      -6573.    
      4      1      4      5      -6588.    

      4 WELLS

                 RECHARGE =  5.000000E-04



 CLASSIFICATION & COUNT OF STREAM SEGMENTS BASED ON SOURCE OF INFLOW:

                HEADWATER     DIVERSION     RECEIVES TRIBUTARY FLOW
                ---------     ---------     -----------------------
                     2              0               1



                    INPUT DATA FOR EACH STREAM SEGMENT
 ---------------------------------------------------------------------------------------------

 SEGMENT    SEG.     INFLOW   OVERLAND   STREAM    STREAM   ICALC  OUTFLOW  DIVERSION PRIORITY
    NO.    LENGTH     RATE     RUNOFF      ET       PPT.    METH.  TO SEG.  FROM SEG.    NO.

      1  4.400E+03 1.000E+05 0.000E+00 0.000E+00 0.000E+00    1        3        0        0
      2  1.800E+03 5.000E+04 0.000E+00 0.000E+00 0.000E+00    1        3        0        0
      3  1.800E+03 0.000E+00 0.000E+00 0.000E+00 0.000E+00    1        0        0        0


         STREAMBED PROPERTIES AND STREAM DIMENSIONS

 SEGMENT     BED HYD. COND.      BED THICKNESS     ELEV.-TOP OF BED     WIDTH OF STREAM     DEPTH OF STREAM    STREAM ROUGHNESS
    No.     UPPER     LOWER     UPPER     LOWER     UPPER     LOWER     UPPER     LOWER     UPPER     LOWER   CHANNEL      BANK

     1  5.000E+00 5.000E+00 1.000E+00 1.000E+00 4.850E+01 3.800E+01 2.000E+01 2.000E+01                     5.000E-02
     2  5.000E+00 5.000E+00 1.000E+00 1.000E+00 4.025E+01 3.800E+01 2.000E+01 2.000E+01                     5.000E-02
     3  5.000E+00 5.000E+00 1.000E+00 1.000E+00 3.800E+01 3.000E+01 2.000E+01 2.000E+01                     5.000E-02



 
 SOLVING FOR HEAD 


     9 CALLS TO PCG ROUTINE FOR TIME STEP   1 IN STRESS PERIOD    1
    36 TOTAL ITERATIONS

 OUTPUT CONTROL FOR STRESS PERIOD    1   TIME STEP    1
    SAVE BUDGET
    SAVE HEAD FOR ALL LAYERS
    PRINT HEAD FOR ALL LAYERS
 UBDSV2 SAVING "STREAMFLOW OUT  " ON UNIT  50 AT TIME STEP  1, STRESS PERIOD   1



 STREAM LISTING     PERIOD      1   STEP        1

 LAYER ROW COL. STREAM  RCH.  FLOW INTO     FLOW TO   FLOW OUT OF   OVRLND.     DIRECT     STREAM       STREAM     STREAM     STREAM   STREAMBED  STREAMBED
                SEG.NO.  NO.  STRM. RCH.    AQUIFER    STRM. RCH.    RUNOFF     PRECIP       ET          HEAD       DEPTH      WIDTH   CONDCTNC.   GRADIENT

   1   13    1     1     1    1.0000E+05 -5.9254E+03   1.0593E+05  0.000E+00  0.000E+00  0.000E+00  4.84086E+01  1.472E-01  2.000E+01  2.000E+04 -2.963E-01
   1   13    2     1     2    1.0593E+05 -7.3877E+03   1.1331E+05  0.000E+00  0.000E+00  0.000E+00  4.79369E+01  1.528E-01  2.000E+01  2.000E+04 -3.694E-01
   1   14    3     1     3    1.1331E+05 -2.1773E+03   1.1549E+05  0.000E+00  0.000E+00  0.000E+00  4.74636E+01  1.568E-01  2.000E+01  2.000E+04 -1.089E-01
   1   15    4     1     4    1.1549E+05 -2.2444E+03   1.1773E+05  0.000E+00  0.000E+00  0.000E+00  4.69882E+01  1.586E-01  2.000E+01  2.000E+04 -1.122E-01
   1   16    5     1     5    1.1773E+05 -7.0522E+03   1.2479E+05  0.000E+00  0.000E+00  0.000E+00  4.65147E+01  1.624E-01  2.000E+01  2.000E+04 -3.526E-01
   1   16    6     1     6    1.2479E+05 -4.2297E+03   1.2902E+05  0.000E+00  0.000E+00  0.000E+00  4.60419E+01  1.669E-01  2.000E+01  2.000E+04 -2.115E-01
   1   16    7     1     7    1.2902E+05 -4.0626E+03   1.3308E+05  0.000E+00  0.000E+00  0.000E+00  4.55679E+01  1.701E-01  2.000E+01  2.000E+04 -2.031E-01
   1   16    8     1     8    1.3308E+05 -4.0070E+03   1.3709E+05  0.000E+00  0.000E+00  0.000E+00  4.50937E+01  1.733E-01  2.000E+01  2.000E+04 -2.003E-01
   1   16    9     1     9    1.3709E+05 -3.9741E+03   1.4106E+05  0.000E+00  0.000E+00  0.000E+00  4.46195E+01  1.763E-01  2.000E+01  2.000E+04 -1.987E-01
   1   16   10     1    10    1.4106E+05 -3.9652E+03   1.4503E+05  0.000E+00  0.000E+00  0.000E+00  4.41452E+01  1.793E-01  2.000E+01  2.000E+04 -1.983E-01
   1   16   11     1    11    1.4503E+05 -4.0515E+03   1.4908E+05  0.000E+00  0.000E+00  0.000E+00  4.36709E+01  1.823E-01  2.000E+01  2.000E+04 -2.026E-01
   1   16   12     1    12    1.4908E+05 -6.8765E+03   1.5595E+05  0.000E+00  0.000E+00  0.000E+00  4.31977E+01  1.863E-01  2.000E+01  2.000E+04 -3.438E-01
   1   15   13     1    13    1.5595E+05 -7.0310E+03   1.6298E+05  0.000E+00  0.000E+00  0.000E+00  4.27255E+01  1.914E-01  2.000E+01  2.000E+04 -3.516E-01
   1   14   14     1    14    1.6298E+05 -7.5068E+03   1.7049E+05  0.000E+00  0.000E+00  0.000E+00  4.22534E+01  1.966E-01  2.000E+01  2.000E+04 -3.753E-01
   1   13   15     1    15    1.7049E+05 -7.9239E+03   1.7842E+05  0.000E+00  0.000E+00  0.000E+00  4.17815E+01  2.020E-01  2.000E+01  2.000E+04 -3.962E-01
   1   12   16     1    16    1.7842E+05 -8.6448E+03   1.8706E+05  0.000E+00  0.000E+00  0.000E+00  4.13100E+01  2.077E-01  2.000E+01  2.000E+04 -4.322E-01
   1   12   17     1    17    1.8706E+05 -6.2318E+03   1.9329E+05  0.000E+00  0.000E+00  0.000E+00  4.08377E+01  2.127E-01  2.000E+01  2.000E+04 -3.116E-01
   1   12   18     1    18    1.9329E+05 -6.0887E+03   1.9938E+05  0.000E+00  0.000E+00  0.000E+00  4.03646E+01  2.168E-01  2.000E+01  2.000E+04 -3.044E-01
   1   12   19     1    19    1.9938E+05 -7.6340E+03   2.0701E+05  0.000E+00  0.000E+00  0.000E+00  3.98918E+01  2.213E-01  2.000E+01  2.000E+04 -3.817E-01
   1   13   20     1    20    2.0701E+05 -6.7989E+03   2.1381E+05  0.000E+00  0.000E+00  0.000E+00  3.94192E+01  2.260E-01  2.000E+01  2.000E+04 -3.399E-01
   1   14   21     1    21    2.1381E+05 -6.4254E+03   2.2024E+05  0.000E+00  0.000E+00  0.000E+00  3.89462E+01  2.303E-01  2.000E+01  2.000E+04 -3.213E-01
   1   14   22     1    22    2.2024E+05  3.6755E+03   2.1656E+05  0.000E+00  0.000E+00  0.000E+00  3.84698E+01  2.311E-01  2.000E+01  2.000E+04  1.838E-01
   1    9   30     2     1    5.0000E+04 -4.4229E+03   5.4423E+04  0.000E+00  0.000E+00  0.000E+00  4.02439E+01  1.189E-01  2.000E+01  2.000E+04 -2.211E-01
   1    9   29     2     2    5.4423E+04 -4.6452E+03   5.9068E+04  0.000E+00  0.000E+00  0.000E+00  4.00000E+01  1.250E-01  2.000E+01  2.000E+04 -2.323E-01
   1    9   28     2     3    5.9068E+04 -4.7662E+03   6.3834E+04  0.000E+00  0.000E+00  0.000E+00  3.97561E+01  1.311E-01  2.000E+01  2.000E+04 -2.383E-01
   1    9   27     2     4    6.3834E+04 -6.9935E+03   7.0828E+04  0.000E+00  0.000E+00  0.000E+00  3.95135E+01  1.385E-01  2.000E+01  2.000E+04 -3.497E-01
   1   10   26     2     5    7.0828E+04 -6.6742E+03   7.7502E+04  0.000E+00  0.000E+00  0.000E+00  3.92718E+01  1.468E-01  2.000E+01  2.000E+04 -3.337E-01
   1   11   25     2     6    7.7502E+04 -6.4578E+03   8.3960E+04  0.000E+00  0.000E+00  0.000E+00  3.90295E+01  1.545E-01  2.000E+01  2.000E+04 -3.229E-01
   1   12   24     2     7    8.3960E+04 -6.1172E+03   9.0077E+04  0.000E+00  0.000E+00  0.000E+00  3.87866E+01  1.616E-01  2.000E+01  2.000E+04 -3.059E-01
   1   13   23     2     8    9.0077E+04 -1.6342E+03   9.1711E+04  0.000E+00  0.000E+00  0.000E+00  3.85408E+01  1.658E-01  2.000E+01  2.000E+04 -8.171E-02
   1   14   22     2     9    9.1711E+04  1.1337E+02   9.1598E+04  0.000E+00  0.000E+00  0.000E+00  3.82917E+01  1.667E-01  2.000E+01  2.000E+04  5.669E-03
   1   14   22     3     1    3.0816E+05 -9.8477E+03   3.1801E+05  0.000E+00  0.000E+00  0.000E+00  3.77936E+01  2.381E-01  2.000E+01  2.000E+04 -4.924E-01
   1   15   23     3     2    3.1801E+05 -1.9893E+03   3.2000E+05  0.000E+00  0.000E+00  0.000E+00  3.69074E+01  2.408E-01  2.000E+01  2.000E+04 -9.947E-02
   1   15   24     3     3    3.2000E+05 -1.5300E+03   3.2153E+05  0.000E+00  0.000E+00  0.000E+00  3.60193E+01  2.416E-01  2.000E+01  2.000E+04 -7.650E-02
   1   15   25     3     4    3.2153E+05 -1.5794E+03   3.2311E+05  0.000E+00  0.000E+00  0.000E+00  3.51311E+01  2.423E-01  2.000E+01  2.000E+04 -7.897E-02
   1   15   26     3     5    3.2311E+05 -1.8826E+03   3.2499E+05  0.000E+00  0.000E+00  0.000E+00  3.42430E+01  2.430E-01  2.000E+01  2.000E+04 -9.413E-02
   1   16   27     3     6    3.2499E+05 -2.1642E+03   3.2715E+05  0.000E+00  0.000E+00  0.000E+00  3.33551E+01  2.439E-01  2.000E+01  2.000E+04 -1.082E-01
   1   17   28     3     7    3.2715E+05 -6.5784E+03   3.3373E+05  0.000E+00  0.000E+00  0.000E+00  3.24681E+01  2.459E-01  2.000E+01  2.000E+04 -3.289E-01
   1   18   29     3     8    3.3373E+05 -7.9940E+03   3.4173E+05  0.000E+00  0.000E+00  0.000E+00  3.15825E+01  2.491E-01  2.000E+01  2.000E+04 -3.997E-01
   1   18   30     3     9    3.4173E+05 -7.1741E+03   3.4890E+05  0.000E+00  0.000E+00  0.000E+00  3.06969E+01  2.525E-01  2.000E+01  2.000E+04 -3.587E-01



1
              HEAD IN LAYER   1 AT END OF TIME STEP   1 IN STRESS PERIOD    1
  ---------------------------------------------------------------------------

          1      2      3      4      5      6      7      8      9     10
         11     12     13     14     15     16     17     18     19     20
         21     22     23     24     25     26     27     28     29     30
 .........................................................................
   1  ****** ****** ****** ****** ****** ****** ****** ****** ****** ******
      ****** ****** ****** ****** ****** ****** ****** ****** ****** ******
      ****** ****** ****** ****** ****** ****** ****** ****** ****** ******
   2  ****** ****** ****** ****** ****** ****** ****** ****** ****** ******
      ****** ****** ****** ****** ****** ****** ****** ****** ****** ******
      ****** ****** ****** ****** ****** ****** ****** ****** ****** ******
   3  ****** ****** ****** ****** ****** ****** ****** ****** ****** ******
      ****** ****** ****** ****** ****** ****** ****** ****** ****** ******
      ****** ****** ****** ****** ****** ****** ****** ****** ****** ******
   4  ****** ****** ****** ****** ****** ****** ****** ****** ****** ******
      ****** ****** ****** ****** ****** ****** ****** ****** ****** ******
      ****** ****** ****** ****** ****** ****** ****** ****** ****** ******
   5  ****** ****** ****** ****** ****** ****** ****** ****** ****** ******
      ****** ****** ****** ****** ****** ****** ****** ****** ****** ******
      ****** ****** ****** ****** ****** ****** ****** ****** ****** ******
   6  ****** ****** ****** ****** ****** ****** ****** ****** ****** ******
      ****** ****** ****** ****** ****** ****** ****** ****** ****** ******
      ****** ****** ****** ****** ****** ****** ****** ****** ****** ******
   7  ****** ****** ****** ****** ****** ****** ****** ****** ****** ******
      ****** ****** ****** ****** ****** ****** ****** ****** ****** ******
      ****** ****** ****** ****** ****** ****** ****** ****** ****** ******
   8  ****** ****** ****** ****** ****** ****** ****** ****** ****** ******
      ****** ****** ****** ****** ****** ****** ****** ****** ****** ******
      ****** ****** ****** ****** ****** ****** ****** ****** ****** ******
   9  ****** ****** ****** ****** ****** ****** ****** ****** ****** ******
      ****** ****** ****** ****** ****** ****** ****** ****** ****** ******
      ****** ****** ****** ****** ****** ****** ****** ****** ****** ******
  10  ****** ****** ****** ****** ****** ****** ****** ****** ****** ******
      ****** ****** ****** ****** ****** ****** ****** ****** ****** ******
      ****** ****** ****** ****** ****** ****** ****** ****** ****** ******
  11  ****** ****** ****** ****** ****** ****** ****** ****** ****** ******
      ****** ****** ****** ****** ****** ****** ****** ****** ****** ******
      ****** ****** ****** ****** ****** ****** ****** ****** ****** ******
  12  ****** ****** ****** ****** ****** ****** ****** ****** ****** ******
      ****** ****** ****** ****** ****** ****** ****** ****** ****** ******
      ****** ****** ****** ****** ****** ****** ****** ****** ****** ******
  13  ****** ****** ****** ****** ****** ****** ****** ****** ****** ******
      ****** ****** ****** ****** ****** ****** ****** ****** ****** ******
      ****** ****** ****** ****** ****** ****** ****** ****** ****** ******
  14  ****** ****** ****** ****** ****** ****** ****** ****** ****** ******
      ****** ****** ****** ****** ****** ****** ****** ****** ****** ******
      ****** ****** ****** ****** ****** ****** ****** ****** ****** ******
  15  ****** ****** ****** ****** ****** ****** ****** ****** ****** ******
      ****** ****** ****** ****** ****** ****** ****** ****** ****** ******
      ****** ****** ****** ****** ****** ****** ****** ****** ****** ******
  16  ****** ****** ****** ****** ****** ****** ****** ****** ****** ******
      ****** ****** ****** ****** ****** ****** ****** ****** ****** ******
      ****** ****** ****** ****** ****** ****** ****** ****** ****** ******
  17  ****** ****** ****** ****** ****** ****** ****** ****** ****** ******
      ****** ****** ****** ****** ****** ****** ****** ****** ****** ******
      ****** ****** ****** ****** ****** ****** ****** ****** ****** ******
  18  ****** ****** ****** ****** ****** ****** ****** ****** ****** ******
      ****** ****** ****** ****** ****** ****** ****** ****** ****** ******
      ****** ****** ****** ****** ****** ****** ****** ****** ****** ******
  19  ****** ****** ****** ****** ****** ****** ****** ****** ****** ******
      ****** ****** ****** ****** ****** ****** ****** ****** ****** ******
      ****** ****** ****** ****** ****** ****** ****** ****** ****** ******
  20  ****** ****** ****** ****** ****** ****** ****** ****** ****** ******
      ****** ****** ****** ****** ****** ****** ****** ****** ****** ******
      ****** ****** ****** ****** ****** ****** ****** ****** ****** ******
  21  ****** ****** ****** ****** ****** ****** ****** ****** ****** ******
      ****** ****** ****** ****** ****** ****** ****** ****** ****** ******
      ****** ****** ****** ****** ****** ****** ****** ****** ****** ******
  22  ****** ****** ****** ****** ****** ****** ****** ****** ****** ******
      ****** ****** ****** ****** ****** ****** ****** ****** ****** ******
      ****** ****** ****** ****** ****** ****** ****** ****** ****** ******
  23  ****** ****** ****** ****** ****** ****** ****** ****** ****** ******
      ****** ****** ****** ****** ****** ****** ****** ****** ****** ******
      ****** ****** ****** ****** ****** ****** ****** ****** ****** ******
  24  ****** ****** ****** ****** ****** ****** ****** ****** ****** ******
      ****** ****** ****** ****** ****** ****** ****** ****** ****** ******
      ****** ****** ****** ****** ****** ****** ****** ****** ****** ******
  25  ****** ****** ****** ****** ****** ****** ****** ****** ****** ******
      ****** ****** ****** ****** ****** ****** ****** ****** ****** ******
      ****** ****** ****** ****** ****** ****** ****** ****** ****** ******

 HEAD WILL BE SAVED ON UNIT   51 AT END OF TIME STEP    1, STRESS PERIOD    1
1
  VOLUMETRIC BUDGET FOR ENTIRE MODEL AT END OF TIME STEP    1, STRESS PERIOD   1
  ------------------------------------------------------------------------------

     CUMULATIVE VOLUMES      L**3       RATES FOR THIS TIME STEP      L**3/T
     ------------------                 ------------------------

           IN:                                      IN:
           ---                                      ---
             STORAGE =    18076075.4977               STORAGE =      196479.0815
       CONSTANT HEAD =     1223321.3244         CONSTANT HEAD =       13296.9709
               WELLS =           0.0000                 WELLS =           0.0000
            RECHARGE =     1269600.0000              RECHARGE =       13800.0000
      STREAM LEAKAGE =      348573.2204        STREAM LEAKAGE =        3788.8394

            TOTAL IN =    20917570.0425              TOTAL IN =      227364.8918

          OUT:                                     OUT:
          ----                                     ----
             STORAGE =           0.0000               STORAGE =           0.0000
       CONSTANT HEAD =           0.0000         CONSTANT HEAD =           0.0000
               WELLS =     2270117.2017                 WELLS =       24675.1870
            RECHARGE =           0.0000              RECHARGE =           0.0000
      STREAM LEAKAGE =    18647453.1197        STREAM LEAKAGE =      202689.7078

           TOTAL OUT =    20917570.3214             TOTAL OUT =      227364.8948

            IN - OUT =          -0.2789              IN - OUT =      -3.0316E-03

 PERCENT DISCREPANCY =          -0.00     PERCENT DISCREPANCY =          -0.00






         TIME SUMMARY AT END OF TIME STEP    1 IN STRESS PERIOD    1
                    SECONDS     MINUTES      HOURS       DAYS        YEARS
                    -----------------------------------------------------------
   TIME STEP LENGTH 7.94880E+06 1.32480E+05  2208.0      92.000     0.25188    
 STRESS PERIOD TIME 7.94880E+06 1.32480E+05  2208.0      92.000     0.25188    
         TOTAL TIME 7.94880E+06 1.32480E+05  2208.0      92.000     0.25188    
1
1
                            STRESS PERIOD NO.    2, LENGTH =   91.00000    
                            -----------------------------------------------

                              NUMBER OF TIME STEPS =     1

                               MULTIPLIER FOR DELT =     1.500

                            INITIAL TIME STEP SIZE =   91.00000    

 WELL NO.  LAYER   ROW   COL   STRESS RATE         
 --------------------------------------------------
      1      1      6     26      -9457.    
      2      1     23      4      -2056.    
      3      1     12     10      -6573.    
      4      1      4      5      -6588.    

      4 WELLS

                 RECHARGE =  2.000000E-03

 REUSING STREAM SEGMENT DATA FROM LAST STRESS PERIOD
 
 SOLVING FOR HEAD 


     7 CALLS TO PCG ROUTINE FOR TIME STEP   1 IN STRESS PERIOD    2
    27 TOTAL ITERATIONS

 OUTPUT CONTROL FOR STRESS PERIOD    2   TIME STEP    1
    SAVE BUDGET
    SAVE HEAD FOR ALL LAYERS
    PRINT HEAD FOR ALL LAYERS
 UBDSV2 SAVING "STREAMFLOW OUT  " ON UNIT  50 AT TIME STEP  1, STRESS PERIOD   2



 STREAM LISTING     PERIOD      2   STEP        1

 LAYER ROW COL. STREAM  RCH.  FLOW INTO     FLOW TO   FLOW OUT OF   OVRLND.     DIRECT     STREAM       STREAM     STREAM     STREAM   STREAMBED  STREAMBED
                SEG.NO.  NO.  STRM. RCH.    AQUIFER    STRM. RCH.    RUNOFF     PRECIP       ET          HEAD       DEPTH      WIDTH   CONDCTNC.   GRADIENT

   1   13    1     1     1    1.0000E+05 -3.6023E+03   1.0360E+05  0.000E+00  0.000E+00  0.000E+00  4.84076E+01  1.462E-01  2.000E+01  2.000E+04 -1.801E-01
   1   13    2     1     2    1.0360E+05 -4.8400E+03   1.0844E+05  0.000E+00  0.000E+00  0.000E+00  4.79339E+01  1.498E-01  2.000E+01  2.000E+04 -2.420E-01
   1   14    3     1     3    1.0844E+05 -1.0647E+03   1.0951E+05  0.000E+00  0.000E+00  0.000E+00  4.74591E+01  1.523E-01  2.000E+01  2.000E+04 -5.323E-02
   1   15    4     1     4    1.0951E+05 -1.0863E+03   1.1059E+05  0.000E+00  0.000E+00  0.000E+00  4.69828E+01  1.532E-01  2.000E+01  2.000E+04 -5.432E-02
   1   16    5     1     5    1.1059E+05 -4.0110E+03   1.1460E+05  0.000E+00  0.000E+00  0.000E+00  4.65076E+01  1.553E-01  2.000E+01  2.000E+04 -2.006E-01
   1   16    6     1     6    1.1460E+05 -2.3657E+03   1.1697E+05  0.000E+00  0.000E+00  0.000E+00  4.60330E+01  1.580E-01  2.000E+01  2.000E+04 -1.183E-01
   1   16    7     1     7    1.1697E+05 -2.2628E+03   1.1923E+05  0.000E+00  0.000E+00  0.000E+00  4.55576E+01  1.598E-01  2.000E+01  2.000E+04 -1.131E-01
   1   16    8     1     8    1.1923E+05 -2.2054E+03   1.2144E+05  0.000E+00  0.000E+00  0.000E+00  4.50821E+01  1.616E-01  2.000E+01  2.000E+04 -1.103E-01
   1   16    9     1     9    1.2144E+05 -2.1503E+03   1.2359E+05  0.000E+00  0.000E+00  0.000E+00  4.46066E+01  1.634E-01  2.000E+01  2.000E+04 -1.075E-01
   1   16   10     1    10    1.2359E+05 -2.1262E+03   1.2571E+05  0.000E+00  0.000E+00  0.000E+00  4.41310E+01  1.651E-01  2.000E+01  2.000E+04 -1.063E-01
   1   16   11     1    11    1.2571E+05 -2.2240E+03   1.2794E+05  0.000E+00  0.000E+00  0.000E+00  4.36555E+01  1.668E-01  2.000E+01  2.000E+04 -1.112E-01
   1   16   12     1    12    1.2794E+05 -3.9168E+03   1.3186E+05  0.000E+00  0.000E+00  0.000E+00  4.31806E+01  1.692E-01  2.000E+01  2.000E+04 -1.958E-01
   1   15   13     1    13    1.3186E+05 -3.6204E+03   1.3548E+05  0.000E+00  0.000E+00  0.000E+00  4.27063E+01  1.722E-01  2.000E+01  2.000E+04 -1.810E-01
   1   14   14     1    14    1.3548E+05 -3.9635E+03   1.3944E+05  0.000E+00  0.000E+00  0.000E+00  4.22319E+01  1.751E-01  2.000E+01  2.000E+04 -1.982E-01
   1   13   15     1    15    1.3944E+05 -4.4183E+03   1.4386E+05  0.000E+00  0.000E+00  0.000E+00  4.17578E+01  1.783E-01  2.000E+01  2.000E+04 -2.209E-01
   1   12   16     1    16    1.4386E+05 -5.3500E+03   1.4921E+05  0.000E+00  0.000E+00  0.000E+00  4.12842E+01  1.819E-01  2.000E+01  2.000E+04 -2.675E-01
   1   12   17     1    17    1.4921E+05 -3.6955E+03   1.5290E+05  0.000E+00  0.000E+00  0.000E+00  4.08103E+01  1.853E-01  2.000E+01  2.000E+04 -1.848E-01
   1   12   18     1    18    1.5290E+05 -3.5621E+03   1.5647E+05  0.000E+00  0.000E+00  0.000E+00  4.03357E+01  1.879E-01  2.000E+01  2.000E+04 -1.781E-01
   1   12   19     1    19    1.5647E+05 -4.4725E+03   1.6094E+05  0.000E+00  0.000E+00  0.000E+00  3.98613E+01  1.908E-01  2.000E+01  2.000E+04 -2.236E-01
   1   13   20     1    20    1.6094E+05 -3.6939E+03   1.6463E+05  0.000E+00  0.000E+00  0.000E+00  3.93870E+01  1.938E-01  2.000E+01  2.000E+04 -1.847E-01
   1   14   21     1    21    1.6463E+05 -3.7371E+03   1.6837E+05  0.000E+00  0.000E+00  0.000E+00  3.89123E+01  1.964E-01  2.000E+01  2.000E+04 -1.869E-01
   1   14   22     1    22    1.6837E+05  4.4327E+03   1.6394E+05  0.000E+00  0.000E+00  0.000E+00  3.84348E+01  1.962E-01  2.000E+01  2.000E+04  2.216E-01
   1    9   30     2     1    5.0000E+04 -1.5250E+03   5.1525E+04  0.000E+00  0.000E+00  0.000E+00  4.02419E+01  1.169E-01  2.000E+01  2.000E+04 -7.625E-02
   1    9   29     2     2    5.1525E+04 -1.7512E+03   5.3276E+04  0.000E+00  0.000E+00  0.000E+00  3.99942E+01  1.192E-01  2.000E+01  2.000E+04 -8.756E-02
   1    9   28     2     3    5.3276E+04 -1.8672E+03   5.5143E+04  0.000E+00  0.000E+00  0.000E+00  3.97466E+01  1.216E-01  2.000E+01  2.000E+04 -9.336E-02
   1    9   27     2     4    5.5143E+04 -3.1837E+03   5.8327E+04  0.000E+00  0.000E+00  0.000E+00  3.95000E+01  1.250E-01  2.000E+01  2.000E+04 -1.592E-01
   1   10   26     2     5    5.8327E+04 -2.8843E+03   6.1211E+04  0.000E+00  0.000E+00  0.000E+00  3.92540E+01  1.290E-01  2.000E+01  2.000E+04 -1.442E-01
   1   11   25     2     6    6.1211E+04 -2.9022E+03   6.4114E+04  0.000E+00  0.000E+00  0.000E+00  3.90077E+01  1.327E-01  2.000E+01  2.000E+04 -1.451E-01
   1   12   24     2     7    6.4114E+04 -2.9592E+03   6.7073E+04  0.000E+00  0.000E+00  0.000E+00  3.87614E+01  1.364E-01  2.000E+01  2.000E+04 -1.480E-01
   1   13   23     2     8    6.7073E+04 -5.8439E+02   6.7657E+04  0.000E+00  0.000E+00  0.000E+00  3.85136E+01  1.386E-01  2.000E+01  2.000E+04 -2.922E-02
   1   14   22     2     9    6.7657E+04  1.0026E+03   6.6655E+04  0.000E+00  0.000E+00  0.000E+00  3.82633E+01  1.383E-01  2.000E+01  2.000E+04  5.013E-02
   1   14   22     3     1    2.3059E+05 -9.1422E+03   2.3973E+05  0.000E+00  0.000E+00  0.000E+00  3.77561E+01  2.005E-01  2.000E+01  2.000E+04 -4.571E-01
   1   15   23     3     2    2.3973E+05 -1.0557E+03   2.4079E+05  0.000E+00  0.000E+00  0.000E+00  3.68698E+01  2.031E-01  2.000E+01  2.000E+04 -5.279E-02
   1   15   24     3     3    2.4079E+05 -6.6559E+02   2.4145E+05  0.000E+00  0.000E+00  0.000E+00  3.59813E+01  2.035E-01  2.000E+01  2.000E+04 -3.328E-02
   1   15   25     3     4    2.4145E+05 -6.7146E+02   2.4213E+05  0.000E+00  0.000E+00  0.000E+00  3.50928E+01  2.039E-01  2.000E+01  2.000E+04 -3.357E-02
   1   15   26     3     5    2.4213E+05 -7.7268E+02   2.4290E+05  0.000E+00  0.000E+00  0.000E+00  3.42042E+01  2.042E-01  2.000E+01  2.000E+04 -3.863E-02
   1   16   27     3     6    2.4290E+05 -8.9837E+02   2.4380E+05  0.000E+00  0.000E+00  0.000E+00  3.33158E+01  2.047E-01  2.000E+01  2.000E+04 -4.492E-02
   1   17   28     3     7    2.4380E+05 -3.2570E+03   2.4705E+05  0.000E+00  0.000E+00  0.000E+00  3.24279E+01  2.057E-01  2.000E+01  2.000E+04 -1.628E-01
   1   18   29     3     8    2.4705E+05 -5.0572E+03   2.5211E+05  0.000E+00  0.000E+00  0.000E+00  3.15411E+01  2.078E-01  2.000E+01  2.000E+04 -2.529E-01
   1   18   30     3     9    2.5211E+05 -4.6850E+03   2.5680E+05  0.000E+00  0.000E+00  0.000E+00  3.06547E+01  2.102E-01  2.000E+01  2.000E+04 -2.343E-01



1
              HEAD IN LAYER   1 AT END OF TIME STEP   1 IN STRESS PERIOD    2
  ---------------------------------------------------------------------------

          1      2      3      4      5      6      7      8      9     10
         11     12     13     14     15     16     17     18     19     20
         21     22     23     24     25     26     27     28     29     30
 .........................................................................
   1  ****** ****** ****** ****** ****** ****** ****** ****** ****** ******
      ****** ****** ****** ****** ****** ****** ****** ****** ****** ******
      ****** ****** ****** ****** ****** ****** ****** ****** ****** ******
   2  ****** ****** ****** ****** ****** ****** ****** ****** ****** ******
      ****** ****** ****** ****** ****** ****** ****** ****** ****** ******
      ****** ****** ****** ****** ****** ****** ****** ****** ****** ******
   3  ****** ****** ****** ****** ****** ****** ****** ****** ****** ******
      ****** ****** ****** ****** ****** ****** ****** ****** ****** ******
      ****** ****** ****** ****** ****** ****** ****** ****** ****** ******
   4  ****** ****** ****** ****** ****** ****** ****** ****** ****** ******
      ****** ****** ****** ****** ****** ****** ****** ****** ****** ******
      ****** ****** ****** ****** ****** ****** ****** ****** ****** ******
   5  ****** ****** ****** ****** ****** ****** ****** ****** ****** ******
      ****** ****** ****** ****** ****** ****** ****** ****** ****** ******
      ****** ****** ****** ****** ****** ****** ****** ****** ****** ******
   6  ****** ****** ****** ****** ****** ****** ****** ****** ****** ******
      ****** ****** ****** ****** ****** ****** ****** ****** ****** ******
      ****** ****** ****** ****** ****** ****** ****** ****** ****** ******
   7  ****** ****** ****** ****** ****** ****** ****** ****** ****** ******
      ****** ****** ****** ****** ****** ****** ****** ****** ****** ******
      ****** ****** ****** ****** ****** ****** ****** ****** ****** ******
   8  ****** ****** ****** ****** ****** ****** ****** ****** ****** ******
      ****** ****** ****** ****** ****** ****** ****** ****** ****** ******
      ****** ****** ****** ****** ****** ****** ****** ****** ****** ******
   9  ****** ****** ****** ****** ****** ****** ****** ****** ****** ******
      ****** ****** ****** ****** ****** ****** ****** ****** ****** ******
      ****** ****** ****** ****** ****** ****** ****** ****** ****** ******
  10  ****** ****** ****** ****** ****** ****** ****** ****** ****** ******
      ****** ****** ****** ****** ****** ****** ****** ****** ****** ******
      ****** ****** ****** ****** ****** ****** ****** ****** ****** ******
  11  ****** ****** ****** ****** ****** ****** ****** ****** ****** ******
      ****** ****** ****** ****** ****** ****** ****** ****** ****** ******
      ****** ****** ****** ****** ****** ****** ****** ****** ****** ******
  12  ****** ****** ****** ****** ****** ****** ****** ****** ****** ******
      ****** ****** ****** ****** ****** ****** ****** ****** ****** ******
      ****** ****** ****** ****** ****** ****** ****** ****** ****** ******
  13  ****** ****** ****** ****** ****** ****** ****** ****** ****** ******
      ****** ****** ****** ****** ****** ****** ****** ****** ****** ******
      ****** ****** ****** ****** ****** ****** ****** ****** ****** ******
  14  ****** ****** ****** ****** ****** ****** ****** ****** ****** ******
      ****** ****** ****** ****** ****** ****** ****** ****** ****** ******
      ****** ****** ****** ****** ****** ****** ****** ****** ****** ******
  15  ****** ****** ****** ****** ****** ****** ****** ****** ****** ******
      ****** ****** ****** ****** ****** ****** ****** ****** ****** ******
      ****** ****** ****** ****** ****** ****** ****** ****** ****** ******
  16  ****** ****** ****** ****** ****** ****** ****** ****** ****** ******
      ****** ****** ****** ****** ****** ****** ****** ****** ****** ******
      ****** ****** ****** ****** ****** ****** ****** ****** ****** ******
  17  ****** ****** ****** ****** ****** ****** ****** ****** ****** ******
      ****** ****** ****** ****** ****** ****** ****** ****** ****** ******
      ****** ****** ****** ****** ****** ****** ****** ****** ****** ******
  18  ****** ****** ****** ****** ****** ****** ****** ****** ****** ******
      ****** ****** ****** ****** ****** ****** ****** ****** ****** ******
      ****** ****** ****** ****** ****** ****** ****** ****** ****** ******
  19  ****** ****** ****** ****** ****** ****** ****** ****** ****** ******
      ****** ****** ****** ****** ****** ****** ****** ****** ****** ******
      ****** ****** ****** ****** ****** ****** ****** ****** ****** ******
  20  ****** ****** ****** ****** ****** ****** ****** ****** ****** ******
      ****** ****** ****** ****** ****** ****** ****** ****** ****** ******
      ****** ****** ****** ****** ****** ****** ****** ****** ****** ******
  21  ****** ****** ****** ****** ****** ****** ****** ****** ****** ******
      ****** ****** ****** ****** ****** ****** ****** ****** ****** ******
      ****** ****** ****** ****** ****** ****** ****** ****** ****** ******
  22  ****** ****** ****** ****** ****** ****** ****** ****** ****** ******
      ****** ****** ****** ****** ****** ****** ****** ****** ****** ******
      ****** ****** ****** ****** ****** ****** ****** ****** ****** ******
  23  ****** ****** ****** ****** ****** ****** ****** ****** ****** ******
      ****** ****** ****** ****** ****** ****** ****** ****** ****** ******
      ****** ****** ****** ****** ****** ****** ****** ****** ****** ******
  24  ****** ****** ****** ****** ****** ****** ****** ****** ****** ******
      ****** ****** ****** ****** ****** ****** ****** ****** ****** ******
      ****** ****** ****** ****** ****** ****** ****** ****** ****** ******
  25  ****** ****** ****** ****** ****** ****** ****** ****** ****** ******
      ****** ****** ****** ****** ****** ****** ****** ****** ****** ******
      ****** ****** ****** ****** ****** ****** ****** ****** ****** ******

 HEAD WILL BE SAVED ON UNIT   51 AT END OF TIME STEP    1, STRESS PERIOD    2
1
  VOLUMETRIC BUDGET FOR ENTIRE MODEL AT END OF TIME STEP    1, STRESS PERIOD   2
  ------------------------------------------------------------------------------

     CUMULATIVE VOLUMES      L**3       RATES FOR THIS TIME STEP      L**3/T
     ------------------                 ------------------------

           IN:                                      IN:
           ---                                      ---
             STORAGE =    23353258.0711               STORAGE =       57991.0173
       CONSTANT HEAD =     2886798.2161         CONSTANT HEAD =       18279.9658
               WELLS =           0.0000                 WELLS =           0.0000
            RECHARGE =     6292800.0000              RECHARGE =       55200.0000
      STREAM LEAKAGE =      843184.5955        STREAM LEAKAGE =        5435.2898

            TOTAL IN =    33376040.8827              TOTAL IN =      136906.2730

          OUT:                                     OUT:
          ----                                     ----
             STORAGE =           0.0000               STORAGE =           0.0000
       CONSTANT HEAD =           0.0000         CONSTANT HEAD =           0.0000
               WELLS =     4515559.2164                 WELLS =       24675.1870
            RECHARGE =           0.0000              RECHARGE =           0.0000
      STREAM LEAKAGE =    28860482.9222        STREAM LEAKAGE =      112231.0967

           TOTAL OUT =    33376042.1387             TOTAL OUT =      136906.2837

            IN - OUT =          -1.2560              IN - OUT =      -1.0737E-02

 PERCENT DISCREPANCY =          -0.00     PERCENT DISCREPANCY =          -0.00






         TIME SUMMARY AT END OF TIME STEP    1 IN STRESS PERIOD    2
                    SECONDS     MINUTES      HOURS       DAYS        YEARS
                    -----------------------------------------------------------
   TIME STEP LENGTH 7.86240E+06 1.31040E+05  2184.0      91.000     0.24914    
 STRESS PERIOD TIME 7.86240E+06 1.31040E+05  2184.0      91.000     0.24914    
         TOTAL TIME 1.58112E+07 2.63520E+05  4392.0      183.00     0.50103    
1
1
                            STRESS PERIOD NO.    3, LENGTH =   91.00000    
                            -----------------------------------------------

                              NUMBER OF TIME STEPS =     1

                               MULTIPLIER FOR DELT =     1.500

                            INITIAL TIME STEP SIZE =   91.00000    

 WELL NO.  LAYER   ROW   COL   STRESS RATE         
 --------------------------------------------------
      1      1      6     26      -9457.    
      2      1     23      4      -2056.    
      3      1     12     10      -6573.    
      4      1      4      5      -6588.    

      4 WELLS

                 RECHARGE =   0.00000    

 REUSING STREAM SEGMENT DATA FROM LAST STRESS PERIOD
 
 SOLVING FOR HEAD 


     7 CALLS TO PCG ROUTINE FOR TIME STEP   1 IN STRESS PERIOD    3
    27 TOTAL ITERATIONS

 OUTPUT CONTROL FOR STRESS PERIOD    3   TIME STEP    1
    SAVE BUDGET
    SAVE HEAD FOR ALL LAYERS
    PRINT HEAD FOR ALL LAYERS
 UBDSV2 SAVING "STREAMFLOW OUT  " ON UNIT  50 AT TIME STEP  1, STRESS PERIOD   3



 STREAM LISTING     PERIOD      3   STEP        1

 LAYER ROW COL. STREAM  RCH.  FLOW INTO     FLOW TO   FLOW OUT OF   OVRLND.     DIRECT     STREAM       STREAM     STREAM     STREAM   STREAMBED  STREAMBED
                SEG.NO.  NO.  STRM. RCH.    AQUIFER    STRM. RCH.    RUNOFF     PRECIP       ET          HEAD       DEPTH      WIDTH   CONDCTNC.   GRADIENT

   1   13    1     1     1    1.0000E+05 -2.1920E+03   1.0219E+05  0.000E+00  0.000E+00  0.000E+00  4.84070E+01  1.456E-01  2.000E+01  2.000E+04 -1.096E-01
   1   13    2     1     2    1.0219E+05 -3.2554E+03   1.0545E+05  0.000E+00  0.000E+00  0.000E+00  4.79320E+01  1.479E-01  2.000E+01  2.000E+04 -1.628E-01
   1   14    3     1     3    1.0545E+05 -5.7557E+02   1.0602E+05  0.000E+00  0.000E+00  0.000E+00  4.74564E+01  1.496E-01  2.000E+01  2.000E+04 -2.878E-02
   1   15    4     1     4    1.0602E+05 -5.5332E+02   1.0658E+05  0.000E+00  0.000E+00  0.000E+00  4.69796E+01  1.501E-01  2.000E+01  2.000E+04 -2.767E-02
   1   16    5     1     5    1.0658E+05 -2.1504E+03   1.0873E+05  0.000E+00  0.000E+00  0.000E+00  4.65035E+01  1.512E-01  2.000E+01  2.000E+04 -1.075E-01
   1   16    6     1     6    1.0873E+05 -1.3159E+03   1.1004E+05  0.000E+00  0.000E+00  0.000E+00  4.60277E+01  1.527E-01  2.000E+01  2.000E+04 -6.579E-02
   1   16    7     1     7    1.1004E+05 -1.2650E+03   1.1131E+05  0.000E+00  0.000E+00  0.000E+00  4.55515E+01  1.537E-01  2.000E+01  2.000E+04 -6.325E-02
   1   16    8     1     8    1.1131E+05 -1.2185E+03   1.1253E+05  0.000E+00  0.000E+00  0.000E+00  4.50752E+01  1.548E-01  2.000E+01  2.000E+04 -6.092E-02
   1   16    9     1     9    1.1253E+05 -1.1650E+03   1.1369E+05  0.000E+00  0.000E+00  0.000E+00  4.45989E+01  1.557E-01  2.000E+01  2.000E+04 -5.825E-02
   1   16   10     1    10    1.1369E+05 -1.1504E+03   1.1484E+05  0.000E+00  0.000E+00  0.000E+00  4.41226E+01  1.567E-01  2.000E+01  2.000E+04 -5.752E-02
   1   16   11     1    11    1.1484E+05 -1.2673E+03   1.1611E+05  0.000E+00  0.000E+00  0.000E+00  4.36463E+01  1.577E-01  2.000E+01  2.000E+04 -6.337E-02
   1   16   12     1    12    1.1611E+05 -2.2629E+03   1.1837E+05  0.000E+00  0.000E+00  0.000E+00  4.31705E+01  1.591E-01  2.000E+01  2.000E+04 -1.131E-01
   1   15   13     1    13    1.1837E+05 -1.8658E+03   1.2024E+05  0.000E+00  0.000E+00  0.000E+00  4.26949E+01  1.608E-01  2.000E+01  2.000E+04 -9.329E-02
   1   14   14     1    14    1.2024E+05 -2.1455E+03   1.2238E+05  0.000E+00  0.000E+00  0.000E+00  4.22192E+01  1.624E-01  2.000E+01  2.000E+04 -1.073E-01
   1   13   15     1    15    1.2238E+05 -2.5992E+03   1.2498E+05  0.000E+00  0.000E+00  0.000E+00  4.17439E+01  1.643E-01  2.000E+01  2.000E+04 -1.300E-01
   1   12   16     1    16    1.2498E+05 -3.4591E+03   1.2844E+05  0.000E+00  0.000E+00  0.000E+00  4.12690E+01  1.667E-01  2.000E+01  2.000E+04 -1.730E-01
   1   12   17     1    17    1.2844E+05 -2.3719E+03   1.3081E+05  0.000E+00  0.000E+00  0.000E+00  4.07940E+01  1.690E-01  2.000E+01  2.000E+04 -1.186E-01
   1   12   18     1    18    1.3081E+05 -2.2693E+03   1.3308E+05  0.000E+00  0.000E+00  0.000E+00  4.03186E+01  1.708E-01  2.000E+01  2.000E+04 -1.135E-01
   1   12   19     1    19    1.3308E+05 -2.8460E+03   1.3593E+05  0.000E+00  0.000E+00  0.000E+00  3.98433E+01  1.728E-01  2.000E+01  2.000E+04 -1.423E-01
   1   13   20     1    20    1.3593E+05 -2.2375E+03   1.3817E+05  0.000E+00  0.000E+00  0.000E+00  3.93679E+01  1.748E-01  2.000E+01  2.000E+04 -1.119E-01
   1   14   21     1    21    1.3817E+05 -2.2855E+03   1.4045E+05  0.000E+00  0.000E+00  0.000E+00  3.88924E+01  1.765E-01  2.000E+01  2.000E+04 -1.143E-01
   1   14   22     1    22    1.4045E+05  4.7835E+03   1.3567E+05  0.000E+00  0.000E+00  0.000E+00  3.84142E+01  1.755E-01  2.000E+01  2.000E+04  2.392E-01
   1    9   30     2     1    5.0000E+04 -2.5955E+02   5.0260E+04  0.000E+00  0.000E+00  0.000E+00  4.02410E+01  1.160E-01  2.000E+01  2.000E+04 -1.298E-02
   1    9   29     2     2    5.0260E+04 -4.8592E+02   5.0745E+04  0.000E+00  0.000E+00  0.000E+00  3.99916E+01  1.166E-01  2.000E+01  2.000E+04 -2.430E-02
   1    9   28     2     3    5.0745E+04 -5.8419E+02   5.1330E+04  0.000E+00  0.000E+00  0.000E+00  3.97423E+01  1.173E-01  2.000E+01  2.000E+04 -2.921E-02
   1    9   27     2     4    5.1330E+04 -1.3242E+03   5.2654E+04  0.000E+00  0.000E+00  0.000E+00  3.94936E+01  1.186E-01  2.000E+01  2.000E+04 -6.621E-02
   1   10   26     2     5    5.2654E+04 -1.1876E+03   5.3842E+04  0.000E+00  0.000E+00  0.000E+00  3.92453E+01  1.203E-01  2.000E+01  2.000E+04 -5.938E-02
   1   11   25     2     6    5.3842E+04 -1.3376E+03   5.5179E+04  0.000E+00  0.000E+00  0.000E+00  3.89970E+01  1.220E-01  2.000E+01  2.000E+04 -6.688E-02
   1   12   24     2     7    5.5179E+04 -1.5658E+03   5.6745E+04  0.000E+00  0.000E+00  0.000E+00  3.87490E+01  1.240E-01  2.000E+01  2.000E+04 -7.829E-02
   1   13   23     2     8    5.6745E+04 -2.4351E+02   5.6988E+04  0.000E+00  0.000E+00  0.000E+00  3.85002E+01  1.252E-01  2.000E+01  2.000E+04 -1.218E-02
   1   14   22     2     9    5.6988E+04  1.4869E+03   5.5502E+04  0.000E+00  0.000E+00  0.000E+00  3.82493E+01  1.243E-01  2.000E+01  2.000E+04  7.434E-02
   1   14   22     3     1    1.9117E+05 -8.7987E+03   1.9997E+05  0.000E+00  0.000E+00  0.000E+00  3.77351E+01  1.795E-01  2.000E+01  2.000E+04 -4.399E-01
   1   15   23     3     2    1.9997E+05 -6.7004E+02   2.0064E+05  0.000E+00  0.000E+00  0.000E+00  3.68488E+01  1.821E-01  2.000E+01  2.000E+04 -3.350E-02
   1   15   24     3     3    2.0064E+05 -3.4571E+02   2.0098E+05  0.000E+00  0.000E+00  0.000E+00  3.59602E+01  1.824E-01  2.000E+01  2.000E+04 -1.729E-02
   1   15   25     3     4    2.0098E+05 -3.3441E+02   2.0132E+05  0.000E+00  0.000E+00  0.000E+00  3.50715E+01  1.826E-01  2.000E+01  2.000E+04 -1.672E-02
   1   15   26     3     5    2.0132E+05 -3.7008E+02   2.0169E+05  0.000E+00  0.000E+00  0.000E+00  3.41828E+01  1.828E-01  2.000E+01  2.000E+04 -1.850E-02
   1   16   27     3     6    2.0169E+05 -4.3486E+02   2.0212E+05  0.000E+00  0.000E+00  0.000E+00  3.32941E+01  1.830E-01  2.000E+01  2.000E+04 -2.174E-02
   1   17   28     3     7    2.0212E+05 -1.8520E+03   2.0398E+05  0.000E+00  0.000E+00  0.000E+00  3.24058E+01  1.836E-01  2.000E+01  2.000E+04 -9.260E-02
   1   18   29     3     8    2.0398E+05 -3.5546E+03   2.0753E+05  0.000E+00  0.000E+00  0.000E+00  3.15184E+01  1.851E-01  2.000E+01  2.000E+04 -1.777E-01
   1   18   30     3     9    2.0753E+05 -3.5572E+03   2.1109E+05  0.000E+00  0.000E+00  0.000E+00  3.06314E+01  1.870E-01  2.000E+01  2.000E+04 -1.779E-01



1
              HEAD IN LAYER   1 AT END OF TIME STEP   1 IN STRESS PERIOD    3
  ---------------------------------------------------------------------------

          1      2      3      4      5      6      7      8      9     10
         11     12     13     14     15     16     17     18     19     20
         21     22     23     24     25     26     27     28     29     30
 .........................................................................
   1  ****** ****** ****** ****** ****** ****** ****** ****** ****** ******
      ****** ****** ****** ****** ****** ****** ****** ****** ****** ******
      ****** ****** ****** ****** ****** ****** ****** ****** ****** ******
   2  ****** ****** ****** ****** ****** ****** ****** ****** ****** ******
      ****** ****** ****** ****** ****** ****** ****** ****** ****** ******
      ****** ****** ****** ****** ****** ****** ****** ****** ****** ******
   3  ****** ****** ****** ****** ****** ****** ****** ****** ****** ******
      ****** ****** ****** ****** ****** ****** ****** ****** ****** ******
      ****** ****** ****** ****** ****** ****** ****** ****** ****** ******
   4  ****** ****** ****** ****** ****** ****** ****** ****** ****** ******
      ****** ****** ****** ****** ****** ****** ****** ****** ****** ******
      ****** ****** ****** ****** ****** ****** ****** ****** ****** ******
   5  ****** ****** ****** ****** ****** ****** ****** ****** ****** ******
      ****** ****** ****** ****** ****** ****** ****** ****** ****** ******
      ****** ****** ****** ****** ****** ****** ****** ****** ****** ******
   6  ****** ****** ****** ****** ****** ****** ****** ****** ****** ******
      ****** ****** ****** ****** ****** ****** ****** ****** ****** ******
      ****** ****** ****** ****** ****** ****** ****** ****** ****** ******
   7  ****** ****** ****** ****** ****** ****** ****** ****** ****** ******
      ****** ****** ****** ****** ****** ****** ****** ****** ****** ******
      ****** ****** ****** ****** ****** ****** ****** ****** ****** ******
   8  ****** ****** ****** ****** ****** ****** ****** ****** ****** ******
      ****** ****** ****** ****** ****** ****** ****** ****** ****** ******
      ****** ****** ****** ****** ****** ****** ****** ****** ****** ******
   9  ****** ****** ****** ****** ****** ****** ****** ****** ****** ******
      ****** ****** ****** ****** ****** ****** ****** ****** ****** ******
      ****** ****** ****** ****** ****** ****** ****** ****** ****** ******
  10  ****** ****** ****** ****** ****** ****** ****** ****** ****** ******
      ****** ****** ****** ****** ****** ****** ****** ****** ****** ******
      ****** ****** ****** ****** ****** ****** ****** ****** ****** ******
  11  ****** ****** ****** ****** ****** ****** ****** ****** ****** ******
      ****** ****** ****** ****** ****** ****** ****** ****** ****** ******
      ****** ****** ****** ****** ****** ****** ****** ****** ****** ******
  12  ****** ****** ****** ****** ****** ****** ****** ****** ****** ******
      ****** ****** ****** ****** ****** ****** ****** ****** ****** ******
      ****** ****** ****** ****** ****** ****** ****** ****** ****** ******
  13  ****** ****** ****** ****** ****** ****** ****** ****** ****** ******
      ****** ****** ****** ****** ****** ****** ****** ****** ****** ******
      ****** ****** ****** ****** ****** ****** ****** ****** ****** ******
  14  ****** ****** ****** ****** ****** ****** ****** ****** ****** ******
      ****** ****** ****** ****** ****** ****** ****** ****** ****** ******
      ****** ****** ****** ****** ****** ****** ****** ****** ****** ******
  15  ****** ****** ****** ****** ****** ****** ****** ****** ****** ******
      ****** ****** ****** ****** ****** ****** ****** ****** ****** ******
      ****** ****** ****** ****** ****** ****** ****** ****** ****** ******
  16  ****** ****** ****** ****** ****** ****** ****** ****** ****** ******
      ****** ****** ****** ****** ****** ****** ****** ****** ****** ******
      ****** ****** ****** ****** ****** ****** ****** ****** ****** ******
  17  ****** ****** ****** ****** ****** ****** ****** ****** ****** ******
      ****** ****** ****** ****** ****** ****** ****** ****** ****** ******
      ****** ****** ****** ****** ****** ****** ****** ****** ****** ******
  18  ****** ****** ****** ****** ****** ****** ****** ****** ****** ******
      ****** ****** ****** ****** ****** ****** ****** ****** ****** ******
      ****** ****** ****** ****** ****** ****** ****** ****** ****** ******
  19  ****** ****** ****** ****** ****** ****** ****** ****** ****** ******
      ****** ****** ****** ****** ****** ****** ****** ****** ****** ******
      ****** ****** ****** ****** ****** ****** ****** ****** ****** ******
  20  ****** ****** ****** ****** ****** ****** ****** ****** ****** ******
      ****** ****** ****** ****** ****** ****** ****** ****** ****** ******
      ****** ****** ****** ****** ****** ****** ****** ****** ****** ******
  21  ****** ****** ****** ****** ****** ****** ****** ****** ****** ******
      ****** ****** ****** ****** ****** ****** ****** ****** ****** ******
      ****** ****** ****** ****** ****** ****** ****** ****** ****** ******
  22  ****** ****** ****** ****** ****** ****** ****** ****** ****** ******
      ****** ****** ****** ****** ****** ****** ****** ****** ****** ******
      ****** ****** ****** ****** ****** ****** ****** ****** ****** ******
  23  ****** ****** ****** ****** ****** ****** ****** ****** ****** ******
      ****** ****** ****** ****** ****** ****** ****** ****** ****** ******
      ****** ****** ****** ****** ****** ****** ****** ****** ****** ******
  24  ****** ****** ****** ****** ****** ****** ****** ****** ****** ******
      ****** ****** ****** ****** ****** ****** ****** ****** ****** ******
      ****** ****** ****** ****** ****** ****** ****** ****** ****** ******
  25  ****** ****** ****** ****** ****** ****** ****** ****** ****** ******
      ****** ****** ****** ****** ****** ****** ****** ****** ****** ******
      ****** ****** ****** ****** ****** ****** ****** ****** ****** ******

 HEAD WILL BE SAVED ON UNIT   51 AT END OF TIME STEP    1, STRESS PERIOD    3
1
  VOLUMETRIC BUDGET FOR ENTIRE MODEL AT END OF TIME STEP    1, STRESS PERIOD   3
  ------------------------------------------------------------------------------

     CUMULATIVE VOLUMES      L**3       RATES FOR THIS TIME STEP      L**3/T
     ------------------                 ------------------------

           IN:                                      IN:
           ---                                      ---
             STORAGE =    28687607.0990               STORAGE =       58619.2201
       CONSTANT HEAD =     5356807.7183         CONSTANT HEAD =       27142.9616
               WELLS =           0.0000                 WELLS =           0.0000
            RECHARGE =     6292800.0000              RECHARGE =           0.0000
      STREAM LEAKAGE =     1413787.7624        STREAM LEAKAGE =        6270.3645

            TOTAL IN =    41751002.5798              TOTAL IN =       92032.5461

          OUT:                                     OUT:
          ----                                     ----
             STORAGE =           0.0000               STORAGE =           0.0000
       CONSTANT HEAD =           0.0000         CONSTANT HEAD =           0.0000
               WELLS =     6761001.2312                 WELLS =       24675.1870
            RECHARGE =           0.0000              RECHARGE =           0.0000
      STREAM LEAKAGE =    34990003.3007        STREAM LEAKAGE =       67357.3668

           TOTAL OUT =    41751004.5319             TOTAL OUT =       92032.5538

            IN - OUT =          -1.9520              IN - OUT =      -7.6488E-03

 PERCENT DISCREPANCY =          -0.00     PERCENT DISCREPANCY =          -0.00






         TIME SUMMARY AT END OF TIME STEP    1 IN STRESS PERIOD    3
                    SECONDS     MINUTES      HOURS       DAYS        YEARS
                    -----------------------------------------------------------
   TIME STEP LENGTH 7.86240E+06 1.31040E+05  2184.0      91.000     0.24914    
 STRESS PERIOD TIME 7.86240E+06 1.31040E+05  2184.0      91.000     0.24914    
         TOTAL TIME 2.36736E+07 3.94560E+05  6576.0      274.00     0.75017    
1
1
                            STRESS PERIOD NO.    4, LENGTH =   91.00000    
                            -----------------------------------------------

                              NUMBER OF TIME STEPS =     1

                               MULTIPLIER FOR DELT =     1.500

                            INITIAL TIME STEP SIZE =   91.00000    

 WELL NO.  LAYER   ROW   COL   STRESS RATE         
 --------------------------------------------------
      1      1      6     26      -9457.    
      2      1     23      4      -2056.    
      3      1     12     10      -6573.    
      4      1      4      5      -6588.    

      4 WELLS

                 RECHARGE =  1.000000E-03

 REUSING STREAM SEGMENT DATA FROM LAST STRESS PERIOD
 
 SOLVING FOR HEAD 


     6 CALLS TO PCG ROUTINE FOR TIME STEP   1 IN STRESS PERIOD    4
    23 TOTAL ITERATIONS

 OUTPUT CONTROL FOR STRESS PERIOD    4   TIME STEP    1
    SAVE BUDGET
    SAVE HEAD FOR ALL LAYERS
    PRINT HEAD FOR ALL LAYERS
 UBDSV2 SAVING "STREAMFLOW OUT  " ON UNIT  50 AT TIME STEP  1, STRESS PERIOD   4



 STREAM LISTING     PERIOD      4   STEP        1

 LAYER ROW COL. STREAM  RCH.  FLOW INTO     FLOW TO   FLOW OUT OF   OVRLND.     DIRECT     STREAM       STREAM     STREAM     STREAM   STREAMBED  STREAMBED
                SEG.NO.  NO.  STRM. RCH.    AQUIFER    STRM. RCH.    RUNOFF     PRECIP       ET          HEAD       DEPTH      WIDTH   CONDCTNC.   GRADIENT

   1   13    1     1     1    1.0000E+05 -1.8406E+03   1.0184E+05  0.000E+00  0.000E+00  0.000E+00  4.84068E+01  1.454E-01  2.000E+01  2.000E+04 -9.203E-02
   1   13    2     1     2    1.0184E+05 -2.8466E+03   1.0469E+05  0.000E+00  0.000E+00  0.000E+00  4.79316E+01  1.475E-01  2.000E+01  2.000E+04 -1.423E-01
   1   14    3     1     3    1.0469E+05 -5.2394E+02   1.0521E+05  0.000E+00  0.000E+00  0.000E+00  4.74557E+01  1.489E-01  2.000E+01  2.000E+04 -2.620E-02
   1   15    4     1     4    1.0521E+05 -4.9325E+02   1.0570E+05  0.000E+00  0.000E+00  0.000E+00  4.69789E+01  1.493E-01  2.000E+01  2.000E+04 -2.466E-02
   1   16    5     1     5    1.0570E+05 -1.8131E+03   1.0752E+05  0.000E+00  0.000E+00  0.000E+00  4.65026E+01  1.503E-01  2.000E+01  2.000E+04 -9.066E-02
   1   16    6     1     6    1.0752E+05 -1.1381E+03   1.0866E+05  0.000E+00  0.000E+00  0.000E+00  4.60266E+01  1.516E-01  2.000E+01  2.000E+04 -5.691E-02
   1   16    7     1     7    1.0866E+05 -1.0946E+03   1.0975E+05  0.000E+00  0.000E+00  0.000E+00  4.55502E+01  1.525E-01  2.000E+01  2.000E+04 -5.473E-02
   1   16    8     1     8    1.0975E+05 -1.0497E+03   1.1080E+05  0.000E+00  0.000E+00  0.000E+00  4.50738E+01  1.534E-01  2.000E+01  2.000E+04 -5.248E-02
   1   16    9     1     9    1.1080E+05 -1.0002E+03   1.1180E+05  0.000E+00  0.000E+00  0.000E+00  4.45974E+01  1.542E-01  2.000E+01  2.000E+04 -5.001E-02
   1   16   10     1    10    1.1180E+05 -9.9687E+02   1.1280E+05  0.000E+00  0.000E+00  0.000E+00  4.41210E+01  1.551E-01  2.000E+01  2.000E+04 -4.984E-02
   1   16   11     1    11    1.1280E+05 -1.1287E+03   1.1393E+05  0.000E+00  0.000E+00  0.000E+00  4.36446E+01  1.560E-01  2.000E+01  2.000E+04 -5.644E-02
   1   16   12     1    12    1.1393E+05 -1.9809E+03   1.1591E+05  0.000E+00  0.000E+00  0.000E+00  4.31686E+01  1.572E-01  2.000E+01  2.000E+04 -9.905E-02
   1   15   13     1    13    1.1591E+05 -1.5657E+03   1.1747E+05  0.000E+00  0.000E+00  0.000E+00  4.26928E+01  1.587E-01  2.000E+01  2.000E+04 -7.829E-02
   1   14   14     1    14    1.1747E+05 -1.8095E+03   1.1928E+05  0.000E+00  0.000E+00  0.000E+00  4.22169E+01  1.601E-01  2.000E+01  2.000E+04 -9.048E-02
   1   13   15     1    15    1.1928E+05 -2.2336E+03   1.2152E+05  0.000E+00  0.000E+00  0.000E+00  4.17412E+01  1.617E-01  2.000E+01  2.000E+04 -1.117E-01
   1   12   16     1    16    1.2152E+05 -2.9823E+03   1.2450E+05  0.000E+00  0.000E+00  0.000E+00  4.12661E+01  1.638E-01  2.000E+01  2.000E+04 -1.491E-01
   1   12   17     1    17    1.2450E+05 -2.1048E+03   1.2660E+05  0.000E+00  0.000E+00  0.000E+00  4.07908E+01  1.658E-01  2.000E+01  2.000E+04 -1.052E-01
   1   12   18     1    18    1.2660E+05 -2.0277E+03   1.2863E+05  0.000E+00  0.000E+00  0.000E+00  4.03152E+01  1.674E-01  2.000E+01  2.000E+04 -1.014E-01
   1   12   19     1    19    1.2863E+05 -2.5459E+03   1.3118E+05  0.000E+00  0.000E+00  0.000E+00  3.98397E+01  1.692E-01  2.000E+01  2.000E+04 -1.273E-01
   1   13   20     1    20    1.3118E+05 -2.0632E+03   1.3324E+05  0.000E+00  0.000E+00  0.000E+00  3.93642E+01  1.710E-01  2.000E+01  2.000E+04 -1.032E-01
   1   14   21     1    21    1.3324E+05 -2.0719E+03   1.3531E+05  0.000E+00  0.000E+00  0.000E+00  3.88885E+01  1.726E-01  2.000E+01  2.000E+04 -1.036E-01
   1   14   22     1    22    1.3531E+05  4.8125E+03   1.3050E+05  0.000E+00  0.000E+00  0.000E+00  3.84102E+01  1.716E-01  2.000E+01  2.000E+04  2.406E-01
   1    9   30     2     1    5.0000E+04 -1.4588E+02   5.0146E+04  0.000E+00  0.000E+00  0.000E+00  4.02410E+01  1.160E-01  2.000E+01  2.000E+04 -7.294E-03
   1    9   29     2     2    5.0146E+04 -3.6456E+02   5.0510E+04  0.000E+00  0.000E+00  0.000E+00  3.99913E+01  1.163E-01  2.000E+01  2.000E+04 -1.823E-02
   1    9   28     2     3    5.0510E+04 -4.4043E+02   5.0951E+04  0.000E+00  0.000E+00  0.000E+00  3.97419E+01  1.169E-01  2.000E+01  2.000E+04 -2.202E-02
   1    9   27     2     4    5.0951E+04 -1.0097E+03   5.1961E+04  0.000E+00  0.000E+00  0.000E+00  3.94929E+01  1.179E-01  2.000E+01  2.000E+04 -5.048E-02
   1   10   26     2     5    5.1961E+04 -1.0002E+03   5.2961E+04  0.000E+00  0.000E+00  0.000E+00  3.92443E+01  1.193E-01  2.000E+01  2.000E+04 -5.001E-02
   1   11   25     2     6    5.2961E+04 -1.1966E+03   5.4157E+04  0.000E+00  0.000E+00  0.000E+00  3.89957E+01  1.207E-01  2.000E+01  2.000E+04 -5.983E-02
   1   12   24     2     7    5.4157E+04 -1.4447E+03   5.5602E+04  0.000E+00  0.000E+00  0.000E+00  3.87475E+01  1.225E-01  2.000E+01  2.000E+04 -7.224E-02
   1   13   23     2     8    5.5602E+04 -2.6575E+02   5.5868E+04  0.000E+00  0.000E+00  0.000E+00  3.84987E+01  1.237E-01  2.000E+01  2.000E+04 -1.329E-02
   1   14   22     2     9    5.5868E+04  1.5643E+03   5.4304E+04  0.000E+00  0.000E+00  0.000E+00  3.82478E+01  1.228E-01  2.000E+01  2.000E+04  7.822E-02
   1   14   22     3     1    1.8480E+05 -8.7612E+03   1.9356E+05  0.000E+00  0.000E+00  0.000E+00  3.77315E+01  1.760E-01  2.000E+01  2.000E+04 -4.381E-01
   1   15   23     3     2    1.9356E+05 -6.5141E+02   1.9421E+05  0.000E+00  0.000E+00  0.000E+00  3.68452E+01  1.786E-01  2.000E+01  2.000E+04 -3.257E-02
   1   15   24     3     3    1.9421E+05 -3.4738E+02   1.9456E+05  0.000E+00  0.000E+00  0.000E+00  3.59566E+01  1.789E-01  2.000E+01  2.000E+04 -1.737E-02
   1   15   25     3     4    1.9456E+05 -3.3553E+02   1.9490E+05  0.000E+00  0.000E+00  0.000E+00  3.50679E+01  1.790E-01  2.000E+01  2.000E+04 -1.678E-02
   1   15   26     3     5    1.9490E+05 -3.8035E+02   1.9528E+05  0.000E+00  0.000E+00  0.000E+00  3.41792E+01  1.792E-01  2.000E+01  2.000E+04 -1.902E-02
   1   16   27     3     6    1.9528E+05 -4.3728E+02   1.9572E+05  0.000E+00  0.000E+00  0.000E+00  3.32906E+01  1.795E-01  2.000E+01  2.000E+04 -2.186E-02
   1   17   28     3     7    1.9572E+05 -1.7961E+03   1.9751E+05  0.000E+00  0.000E+00  0.000E+00  3.24023E+01  1.801E-01  2.000E+01  2.000E+04 -8.980E-02
   1   18   29     3     8    1.9751E+05 -3.3534E+03   2.0086E+05  0.000E+00  0.000E+00  0.000E+00  3.15148E+01  1.815E-01  2.000E+01  2.000E+04 -1.677E-01
   1   18   30     3     9    2.0086E+05 -3.4590E+03   2.0432E+05  0.000E+00  0.000E+00  0.000E+00  3.06278E+01  1.833E-01  2.000E+01  2.000E+04 -1.730E-01



1
              HEAD IN LAYER   1 AT END OF TIME STEP   1 IN STRESS PERIOD    4
  ---------------------------------------------------------------------------

          1      2      3      4      5      6      7      8      9     10
         11     12     13     14     15     16     17     18     19     20
         21     22     23     24     25     26     27     28     29     30
 .........................................................................
   1  ****** ****** ****** ****** ****** ****** ****** ****** ****** ******
      ****** ****** ****** ****** ****** ****** ****** ****** ****** ******
      ****** ****** ****** ****** ****** ****** ****** ****** ****** ******
   2  ****** ****** ****** ****** ****** ****** ****** ****** ****** ******
      ****** ****** ****** ****** ****** ****** ****** ****** ****** ******
      ****** ****** ****** ****** ****** ****** ****** ****** ****** ******
   3  ****** ****** ****** ****** ****** ****** ****** ****** ****** ******
      ****** ****** ****** ****** ****** ****** ****** ****** ****** ******
      ****** ****** ****** ****** ****** ****** ****** ****** ****** ******
   4  ****** ****** ****** ****** ****** ****** ****** ****** ****** ******
      ****** ****** ****** ****** ****** ****** ****** ****** ****** ******
      ****** ****** ****** ****** ****** ****** ****** ****** ****** ******
   5  ****** ****** ****** ****** ****** ****** ****** ****** ****** ******
      ****** ****** ****** ****** ****** ****** ****** ****** ****** ******
      ****** ****** ****** ****** ****** ****** ****** ****** ****** ******
   6  ****** ****** ****** ****** ****** ****** ****** ****** ****** ******
      ****** ****** ****** ****** ****** ****** ****** ****** ****** ******
      ****** ****** ****** ****** ****** ****** ****** ****** ****** ******
   7  ****** ****** ****** ****** ****** ****** ****** ****** ****** ******
      ****** ****** ****** ****** ****** ****** ****** ****** ****** ******
      ****** ****** ****** ****** ****** ****** ****** ****** ****** ******
   8  ****** ****** ****** ****** ****** ****** ****** ****** ****** ******
      ****** ****** ****** ****** ****** ****** ****** ****** ****** ******
      ****** ****** ****** ****** ****** ****** ****** ****** ****** ******
   9  ****** ****** ****** ****** ****** ****** ****** ****** ****** ******
      ****** ****** ****** ****** ****** ****** ****** ****** ****** ******
      ****** ****** ****** ****** ****** ****** ****** ****** ****** ******
  10  ****** ****** ****** ****** ****** ****** ****** ****** ****** ******
      ****** ****** ****** ****** ****** ****** ****** ****** ****** ******
      ****** ****** ****** ****** ****** ****** ****** ****** ****** ******
  11  ****** ****** ****** ****** ****** ****** ****** ****** ****** ******
      ****** ****** ****** ****** ****** ****** ****** ****** ****** ******
      ****** ****** ****** ****** ****** ****** ****** ****** ****** ******
  12  ****** ****** ****** ****** ****** ****** ****** ****** ****** ******
      ****** ****** ****** ****** ****** ****** ****** ****** ****** ******
      ****** ****** ****** ****** ****** ****** ****** ****** ****** ******
  13  ****** ****** ****** ****** ****** ****** ****** ****** ****** ******
      ****** ****** ****** ****** ****** ****** ****** ****** ****** ******
      ****** ****** ****** ****** ****** ****** ****** ****** ****** ******
  14  ****** ****** ****** ****** ****** ****** ****** ****** ****** ******
      ****** ****** ****** ****** ****** ****** ****** ****** ****** ******
      ****** ****** ****** ****** ****** ****** ****** ****** ****** ******
  15  ****** ****** ****** ****** ****** ****** ****** ****** ****** ******
      ****** ****** ****** ****** ****** ****** ****** ****** ****** ******
      ****** ****** ****** ****** ****** ****** ****** ****** ****** ******
  16  ****** ****** ****** ****** ****** ****** ****** ****** ****** ******
      ****** ****** ****** ****** ****** ****** ****** ****** ****** ******
      ****** ****** ****** ****** ****** ****** ****** ****** ****** ******
  17  ****** ****** ****** ****** ****** ****** ****** ****** ****** ******
      ****** ****** ****** ****** ****** ****** ****** ****** ****** ******
      ****** ****** ****** ****** ****** ****** ****** ****** ****** ******
  18  ****** ****** ****** ****** ****** ****** ****** ****** ****** ******
      ****** ****** ****** ****** ****** ****** ****** ****** ****** ******
      ****** ****** ****** ****** ****** ****** ****** ****** ****** ******
  19  ****** ****** ****** ****** ****** ****** ****** ****** ****** ******
      ****** ****** ****** ****** ****** ****** ****** ****** ****** ******
      ****** ****** ****** ****** ****** ****** ****** ****** ****** ******
  20  ****** ****** ****** ****** ****** ****** ****** ****** ****** ******
      ****** ****** ****** ****** ****** ****** ****** ****** ****** ******
      ****** ****** ****** ****** ****** ****** ****** ****** ****** ******
  21  ****** ****** ****** ****** ****** ****** ****** ****** ****** ******
      ****** ****** ****** ****** ****** ****** ****** ****** ****** ******
      ****** ****** ****** ****** ****** ****** ****** ****** ****** ******
  22  ****** ****** ****** ****** ****** ****** ****** ****** ****** ******
      ****** ****** ****** ****** ****** ****** ****** ****** ****** ******
      ****** ****** ****** ****** ****** ****** ****** ****** ****** ******
  23  ****** ****** ****** ****** ****** ****** ****** ****** ****** ******
      ****** ****** ****** ****** ****** ****** ****** ****** ****** ******
      ****** ****** ****** ****** ****** ****** ****** ****** ****** ******
  24  ****** ****** ****** ****** ****** ****** ****** ****** ****** ******
      ****** ****** ****** ****** ****** ****** ****** ****** ****** ******
      ****** ****** ****** ****** ****** ****** ****** ****** ****** ******
  25  ****** ****** ****** ****** ****** ****** ****** ****** ****** ******
      ****** ****** ****** ****** ****** ****** ****** ****** ****** ******
      ****** ****** ****** ****** ****** ****** ****** ****** ****** ******

 HEAD WILL BE SAVED ON UNIT   51 AT END OF TIME STEP    1, STRESS PERIOD    4
1
  VOLUMETRIC BUDGET FOR ENTIRE MODEL AT END OF TIME STEP    1, STRESS PERIOD   4
  ------------------------------------------------------------------------------

     CUMULATIVE VOLUMES      L**3       RATES FOR THIS TIME STEP      L**3/T
     ------------------                 ------------------------

           IN:                                      IN:
           ---                                      ---
             STORAGE =    30637283.9210               STORAGE =       21425.0200
       CONSTANT HEAD =     8085626.8700         CONSTANT HEAD =       29987.0236
               WELLS =           0.0000                 WELLS =           0.0000
            RECHARGE =     8804400.0000              RECHARGE =       27600.0000
      STREAM LEAKAGE =     1994085.0480        STREAM LEAKAGE =        6376.8932

            TOTAL IN =    49521395.8390              TOTAL IN =       85388.9369

          OUT:                                     OUT:
          ----                                     ----
             STORAGE =        1175.7262               STORAGE =          12.9201
       CONSTANT HEAD =           0.0000         CONSTANT HEAD =           0.0000
               WELLS =     9006443.2459                 WELLS =       24675.1870
            RECHARGE =           0.0000              RECHARGE =           0.0000
      STREAM LEAKAGE =    40513778.9181        STREAM LEAKAGE =       60700.8310

           TOTAL OUT =    49521397.8902             TOTAL OUT =       85388.9380

            IN - OUT =          -2.0512              IN - OUT =      -1.0895E-03

 PERCENT DISCREPANCY =          -0.00     PERCENT DISCREPANCY =          -0.00






         TIME SUMMARY AT END OF TIME STEP    1 IN STRESS PERIOD    4
                    SECONDS     MINUTES      HOURS       DAYS        YEARS
                    -----------------------------------------------------------
   TIME STEP LENGTH 7.86240E+06 1.31040E+05  2184.0      91.000     0.24914    
 STRESS PERIOD TIME 7.86240E+06 1.31040E+05  2184.0      91.000     0.24914    
         TOTAL TIME 3.15360E+07 5.25600E+05  8760.0      365.00     0.99932    
1
1
                            STRESS PERIOD NO.    5, LENGTH =   92.00000    
                            -----------------------------------------------

                              NUMBER OF TIME STEPS =     1

                               MULTIPLIER FOR DELT =     1.500

                            INITIAL TIME STEP SIZE =   92.00000    

 WELL NO.  LAYER   ROW   COL   STRESS RATE         
 --------------------------------------------------
      1      1      6     26      -9457.    
      2      1     23      4      -2056.    
      3      1     12     10      -6573.    
      4      1      4      5      -6588.    

      4 WELLS

                 RECHARGE =  5.000000E-04

 REUSING STREAM SEGMENT DATA FROM LAST STRESS PERIOD
 
 SOLVING FOR HEAD 


     7 CALLS TO PCG ROUTINE FOR TIME STEP   1 IN STRESS PERIOD    5
    26 TOTAL ITERATIONS

 OUTPUT CONTROL FOR STRESS PERIOD    5   TIME STEP    1
    SAVE BUDGET
    SAVE HEAD FOR ALL LAYERS
    PRINT HEAD FOR ALL LAYERS
 UBDSV2 SAVING "STREAMFLOW OUT  " ON UNIT  50 AT TIME STEP  1, STRESS PERIOD   5



 STREAM LISTING     PERIOD      5   STEP        1

 LAYER ROW COL. STREAM  RCH.  FLOW INTO     FLOW TO   FLOW OUT OF   OVRLND.     DIRECT     STREAM       STREAM     STREAM     STREAM   STREAMBED  STREAMBED
                SEG.NO.  NO.  STRM. RCH.    AQUIFER    STRM. RCH.    RUNOFF     PRECIP       ET          HEAD       DEPTH      WIDTH   CONDCTNC.   GRADIENT

   1   13    1     1     1    1.0000E+05 -1.3411E+03   1.0134E+05  0.000E+00  0.000E+00  0.000E+00  4.84066E+01  1.452E-01  2.000E+01  2.000E+04 -6.705E-02
   1   13    2     1     2    1.0134E+05 -2.2770E+03   1.0362E+05  0.000E+00  0.000E+00  0.000E+00  4.79309E+01  1.468E-01  2.000E+01  2.000E+04 -1.139E-01
   1   14    3     1     3    1.0362E+05 -3.8378E+02   1.0400E+05  0.000E+00  0.000E+00  0.000E+00  4.74548E+01  1.479E-01  2.000E+01  2.000E+04 -1.919E-02
   1   15    4     1     4    1.0400E+05 -3.4823E+02   1.0435E+05  0.000E+00  0.000E+00  0.000E+00  4.69778E+01  1.482E-01  2.000E+01  2.000E+04 -1.741E-02
   1   16    5     1     5    1.0435E+05 -1.3628E+03   1.0571E+05  0.000E+00  0.000E+00  0.000E+00  4.65012E+01  1.490E-01  2.000E+01  2.000E+04 -6.814E-02
   1   16    6     1     6    1.0571E+05 -8.6710E+02   1.0658E+05  0.000E+00  0.000E+00  0.000E+00  4.60249E+01  1.499E-01  2.000E+01  2.000E+04 -4.336E-02
   1   16    7     1     7    1.0658E+05 -8.3158E+02   1.0741E+05  0.000E+00  0.000E+00  0.000E+00  4.55484E+01  1.506E-01  2.000E+01  2.000E+04 -4.158E-02
   1   16    8     1     8    1.0741E+05 -7.8952E+02   1.0820E+05  0.000E+00  0.000E+00  0.000E+00  4.50718E+01  1.513E-01  2.000E+01  2.000E+04 -3.948E-02
   1   16    9     1     9    1.0820E+05 -7.4489E+02   1.0895E+05  0.000E+00  0.000E+00  0.000E+00  4.45952E+01  1.520E-01  2.000E+01  2.000E+04 -3.724E-02
   1   16   10     1    10    1.0895E+05 -7.5041E+02   1.0970E+05  0.000E+00  0.000E+00  0.000E+00  4.41185E+01  1.526E-01  2.000E+01  2.000E+04 -3.752E-02
   1   16   11     1    11    1.0970E+05 -8.9047E+02   1.1059E+05  0.000E+00  0.000E+00  0.000E+00  4.36419E+01  1.533E-01  2.000E+01  2.000E+04 -4.452E-02
   1   16   12     1    12    1.1059E+05 -1.5564E+03   1.1214E+05  0.000E+00  0.000E+00  0.000E+00  4.31657E+01  1.543E-01  2.000E+01  2.000E+04 -7.782E-02
   1   15   13     1    13    1.1214E+05 -1.0949E+03   1.1324E+05  0.000E+00  0.000E+00  0.000E+00  4.26895E+01  1.554E-01  2.000E+01  2.000E+04 -5.475E-02
   1   14   14     1    14    1.1324E+05 -1.3000E+03   1.1454E+05  0.000E+00  0.000E+00  0.000E+00  4.22132E+01  1.564E-01  2.000E+01  2.000E+04 -6.500E-02
   1   13   15     1    15    1.1454E+05 -1.7003E+03   1.1624E+05  0.000E+00  0.000E+00  0.000E+00  4.17372E+01  1.576E-01  2.000E+01  2.000E+04 -8.502E-02
   1   12   16     1    16    1.1624E+05 -2.3889E+03   1.1863E+05  0.000E+00  0.000E+00  0.000E+00  4.12616E+01  1.593E-01  2.000E+01  2.000E+04 -1.194E-01
   1   12   17     1    17    1.1863E+05 -1.7227E+03   1.2035E+05  0.000E+00  0.000E+00  0.000E+00  4.07860E+01  1.610E-01  2.000E+01  2.000E+04 -8.614E-02
   1   12   18     1    18    1.2035E+05 -1.6693E+03   1.2202E+05  0.000E+00  0.000E+00  0.000E+00  4.03101E+01  1.623E-01  2.000E+01  2.000E+04 -8.347E-02
   1   12   19     1    19    1.2202E+05 -2.1119E+03   1.2413E+05  0.000E+00  0.000E+00  0.000E+00  3.98343E+01  1.638E-01  2.000E+01  2.000E+04 -1.056E-01
   1   13   20     1    20    1.2413E+05 -1.7027E+03   1.2583E+05  0.000E+00  0.000E+00  0.000E+00  3.93585E+01  1.654E-01  2.000E+01  2.000E+04 -8.514E-02
   1   14   21     1    21    1.2583E+05 -1.7013E+03   1.2754E+05  0.000E+00  0.000E+00  0.000E+00  3.88826E+01  1.667E-01  2.000E+01  2.000E+04 -8.507E-02
   1   14   22     1    22    1.2754E+05  4.8883E+03   1.2265E+05  0.000E+00  0.000E+00  0.000E+00  3.84041E+01  1.654E-01  2.000E+01  2.000E+04  2.444E-01
   1    9   30     2     1    5.0000E+04  9.6603E+01   4.9903E+04  0.000E+00  0.000E+00  0.000E+00  4.02408E+01  1.158E-01  2.000E+01  2.000E+04  4.830E-03
   1    9   29     2     2    4.9903E+04 -1.1808E+02   5.0021E+04  0.000E+00  0.000E+00  0.000E+00  3.99908E+01  1.158E-01  2.000E+01  2.000E+04 -5.904E-03
   1    9   28     2     3    5.0021E+04 -1.8078E+02   5.0202E+04  0.000E+00  0.000E+00  0.000E+00  3.97410E+01  1.160E-01  2.000E+01  2.000E+04 -9.039E-03
   1    9   27     2     4    5.0202E+04 -5.9692E+02   5.0799E+04  0.000E+00  0.000E+00  0.000E+00  3.94916E+01  1.166E-01  2.000E+01  2.000E+04 -2.985E-02
   1   10   26     2     5    5.0799E+04 -6.4323E+02   5.1442E+04  0.000E+00  0.000E+00  0.000E+00  3.92424E+01  1.174E-01  2.000E+01  2.000E+04 -3.216E-02
   1   11   25     2     6    5.1442E+04 -8.6974E+02   5.2312E+04  0.000E+00  0.000E+00  0.000E+00  3.89935E+01  1.185E-01  2.000E+01  2.000E+04 -4.349E-02
   1   12   24     2     7    5.2312E+04 -1.1455E+03   5.3458E+04  0.000E+00  0.000E+00  0.000E+00  3.87448E+01  1.198E-01  2.000E+01  2.000E+04 -5.727E-02
   1   13   23     2     8    5.3458E+04 -1.9501E+02   5.3653E+04  0.000E+00  0.000E+00  0.000E+00  3.84957E+01  1.207E-01  2.000E+01  2.000E+04 -9.750E-03
   1   14   22     2     9    5.3653E+04  1.7010E+03   5.1952E+04  0.000E+00  0.000E+00  0.000E+00  3.82447E+01  1.197E-01  2.000E+01  2.000E+04  8.505E-02
   1   14   22     3     1    1.7460E+05 -8.6785E+03   1.8328E+05  0.000E+00  0.000E+00  0.000E+00  3.77257E+01  1.702E-01  2.000E+01  2.000E+04 -4.339E-01
   1   15   23     3     2    1.8328E+05 -5.5532E+02   1.8383E+05  0.000E+00  0.000E+00  0.000E+00  3.68395E+01  1.728E-01  2.000E+01  2.000E+04 -2.777E-02
   1   15   24     3     3    1.8383E+05 -2.7646E+02   1.8411E+05  0.000E+00  0.000E+00  0.000E+00  3.59508E+01  1.730E-01  2.000E+01  2.000E+04 -1.382E-02
   1   15   25     3     4    1.8411E+05 -2.6504E+02   1.8437E+05  0.000E+00  0.000E+00  0.000E+00  3.50621E+01  1.732E-01  2.000E+01  2.000E+04 -1.325E-02
   1   15   26     3     5    1.8437E+05 -3.0875E+02   1.8468E+05  0.000E+00  0.000E+00  0.000E+00  3.41734E+01  1.734E-01  2.000E+01  2.000E+04 -1.544E-02
   1   16   27     3     6    1.8468E+05 -3.4767E+02   1.8503E+05  0.000E+00  0.000E+00  0.000E+00  3.32847E+01  1.735E-01  2.000E+01  2.000E+04 -1.738E-02
   1   17   28     3     7    1.8503E+05 -1.5314E+03   1.8656E+05  0.000E+00  0.000E+00  0.000E+00  3.23963E+01  1.741E-01  2.000E+01  2.000E+04 -7.657E-02
   1   18   29     3     8    1.8656E+05 -2.9864E+03   1.8955E+05  0.000E+00  0.000E+00  0.000E+00  3.15087E+01  1.753E-01  2.000E+01  2.000E+04 -1.493E-01
   1   18   30     3     9    1.8955E+05 -3.2057E+03   1.9275E+05  0.000E+00  0.000E+00  0.000E+00  3.06215E+01  1.771E-01  2.000E+01  2.000E+04 -1.603E-01



1
              HEAD IN LAYER   1 AT END OF TIME STEP   1 IN STRESS PERIOD    5
  ---------------------------------------------------------------------------

          1      2      3      4      5      6      7      8      9     10
         11     12     13     14     15     16     17     18     19     20
         21     22     23     24     25     26     27     28     29     30
 .........................................................................
   1  ****** ****** ****** ****** ****** ****** ****** ****** ****** ******
      ****** ****** ****** ****** ****** ****** ****** ****** ****** ******
      ****** ****** ****** ****** ****** ****** ****** ****** ****** ******
   2  ****** ****** ****** ****** ****** ****** ****** ****** ****** ******
      ****** ****** ****** ****** ****** ****** ****** ****** ****** ******
      ****** ****** ****** ****** ****** ****** ****** ****** ****** ******
   3  ****** ****** ****** ****** ****** ****** ****** ****** ****** ******
      ****** ****** ****** ****** ****** ****** ****** ****** ****** ******
      ****** ****** ****** ****** ****** ****** ****** ****** ****** ******
   4  ****** ****** ****** ****** ****** ****** ****** ****** ****** ******
      ****** ****** ****** ****** ****** ****** ****** ****** ****** ******
      ****** ****** ****** ****** ****** ****** ****** ****** ****** ******
   5  ****** ****** ****** ****** ****** ****** ****** ****** ****** ******
      ****** ****** ****** ****** ****** ****** ****** ****** ****** ******
      ****** ****** ****** ****** ****** ****** ****** ****** ****** ******
   6  ****** ****** ****** ****** ****** ****** ****** ****** ****** ******
      ****** ****** ****** ****** ****** ****** ****** ****** ****** ******
      ****** ****** ****** ****** ****** ****** ****** ****** ****** ******
   7  ****** ****** ****** ****** ****** ****** ****** ****** ****** ******
      ****** ****** ****** ****** ****** ****** ****** ****** ****** ******
      ****** ****** ****** ****** ****** ****** ****** ****** ****** ******
   8  ****** ****** ****** ****** ****** ****** ****** ****** ****** ******
      ****** ****** ****** ****** ****** ****** ****** ****** ****** ******
      ****** ****** ****** ****** ****** ****** ****** ****** ****** ******
   9  ****** ****** ****** ****** ****** ****** ****** ****** ****** ******
      ****** ****** ****** ****** ****** ****** ****** ****** ****** ******
      ****** ****** ****** ****** ****** ****** ****** ****** ****** ******
  10  ****** ****** ****** ****** ****** ****** ****** ****** ****** ******
      ****** ****** ****** ****** ****** ****** ****** ****** ****** ******
      ****** ****** ****** ****** ****** ****** ****** ****** ****** ******
  11  ****** ****** ****** ****** ****** ****** ****** ****** ****** ******
      ****** ****** ****** ****** ****** ****** ****** ****** ****** ******
      ****** ****** ****** ****** ****** ****** ****** ****** ****** ******
  12  ****** ****** ****** ****** ****** ****** ****** ****** ****** ******
      ****** ****** ****** ****** ****** ****** ****** ****** ****** ******
      ****** ****** ****** ****** ****** ****** ****** ****** ****** ******
  13  ****** ****** ****** ****** ****** ****** ****** ****** ****** ******
      ****** ****** ****** ****** ****** ****** ****** ****** ****** ******
      ****** ****** ****** ****** ****** ****** ****** ****** ****** ******
  14  ****** ****** ****** ****** ****** ****** ****** ****** ****** ******
      ****** ****** ****** ****** ****** ****** ****** ****** ****** ******
      ****** ****** ****** ****** ****** ****** ****** ****** ****** ******
  15  ****** ****** ****** ****** ****** ****** ****** ****** ****** ******
      ****** ****** ****** ****** ****** ****** ****** ****** ****** ******
      ****** ****** ****** ****** ****** ****** ****** ****** ****** ******
  16  ****** ****** ****** ****** ****** ****** ****** ****** ****** ******
      ****** ****** ****** ****** ****** ****** ****** ****** ****** ******
      ****** ****** ****** ****** ****** ****** ****** ****** ****** ******
  17  ****** ****** ****** ****** ****** ****** ****** ****** ****** ******
      ****** ****** ****** ****** ****** ****** ****** ****** ****** ******
      ****** ****** ****** ****** ****** ****** ****** ****** ****** ******
  18  ****** ****** ****** ****** ****** ****** ****** ****** ****** ******
      ****** ****** ****** ****** ****** ****** ****** ****** ****** ******
      ****** ****** ****** ****** ****** ****** ****** ****** ****** ******
  19  ****** ****** ****** ****** ****** ****** ****** ****** ****** ******
      ****** ****** ****** ****** ****** ****** ****** ****** ****** ******
      ****** ****** ****** ****** ****** ****** ****** ****** ****** ******
  20  ****** ****** ****** ****** ****** ****** ****** ****** ****** ******
      ****** ****** ****** ****** ****** ****** ****** ****** ****** ******
      ****** ****** ****** ****** ****** ****** ****** ****** ****** ******
  21  ****** ****** ****** ****** ****** ****** ****** ****** ****** ******
      ****** ****** ****** ****** ****** ****** ****** ****** ****** ******
      ****** ****** ****** ****** ****** ****** ****** ****** ****** ******
  22  ****** ****** ****** ****** ****** ****** ****** ****** ****** ******
      ****** ****** ****** ****** ****** ****** ****** ****** ****** ******
      ****** ****** ****** ****** ****** ****** ****** ****** ****** ******
  23  ****** ****** ****** ****** ****** ****** ****** ****** ****** ******
      ****** ****** ****** ****** ****** ****** ****** ****** ****** ******
      ****** ****** ****** ****** ****** ****** ****** ****** ****** ******
  24  ****** ****** ****** ****** ****** ****** ****** ****** ****** ******
      ****** ****** ****** ****** ****** ****** ****** ****** ****** ******
      ****** ****** ****** ****** ****** ****** ****** ****** ****** ******
  25  ****** ****** ****** ****** ****** ****** ****** ****** ****** ******
      ****** ****** ****** ****** ****** ****** ****** ****** ****** ******
      ****** ****** ****** ****** ****** ****** ****** ****** ****** ******

 HEAD WILL BE SAVED ON UNIT   51 AT END OF TIME STEP    1, STRESS PERIOD    5
1
  VOLUMETRIC BUDGET FOR ENTIRE MODEL AT END OF TIME STEP    1, STRESS PERIOD   5
  ------------------------------------------------------------------------------

     CUMULATIVE VOLUMES      L**3       RATES FOR THIS TIME STEP      L**3/T
     ------------------                 ------------------------

           IN:                                      IN:
           ---                                      ---
             STORAGE =    32525572.9121               STORAGE =       20524.8803
       CONSTANT HEAD =    11131210.6725         CONSTANT HEAD =       33104.1718
               WELLS =           0.0000                 WELLS =           0.0000
            RECHARGE =    10074000.0000              RECHARGE =       13800.0000
      STREAM LEAKAGE =     2609193.2527        STREAM LEAKAGE =        6685.9587

            TOTAL IN =    56339976.8373              TOTAL IN =       74115.0109

          OUT:                                     OUT:
          ----                                     ----
             STORAGE =        1175.7262               STORAGE =           0.0000
       CONSTANT HEAD =           0.0000         CONSTANT HEAD =           0.0000
               WELLS =    11276560.4476                 WELLS =       24675.1870
            RECHARGE =           0.0000              RECHARGE =           0.0000
      STREAM LEAKAGE =    45062243.0333        STREAM LEAKAGE =       49439.8273

           TOTAL OUT =    56339979.2071             TOTAL OUT =       74115.0143

            IN - OUT =          -2.3698              IN - OUT =      -3.4636E-03

 PERCENT DISCREPANCY =          -0.00     PERCENT DISCREPANCY =          -0.00






         TIME SUMMARY AT END OF TIME STEP    1 IN STRESS PERIOD    5
                    SECONDS     MINUTES      HOURS       DAYS        YEARS
                    -----------------------------------------------------------
   TIME STEP LENGTH 7.94880E+06 1.32480E+05  2208.0      92.000     0.25188    
 STRESS PERIOD TIME 7.94880E+06 1.32480E+05  2208.0      92.000     0.25188    
         TOTAL TIME 3.94848E+07 6.58080E+05  10968.      457.00      1.2512    
1
1
                            STRESS PERIOD NO.    6, LENGTH =   91.00000    
                            -----------------------------------------------

                              NUMBER OF TIME STEPS =     1

                               MULTIPLIER FOR DELT =     1.500

                            INITIAL TIME STEP SIZE =   91.00000    

 WELL NO.  LAYER   ROW   COL   STRESS RATE         
 --------------------------------------------------
      1      1      6     26      -9457.    
      2      1     23      4      -2056.    
      3      1     12     10      -6573.    
      4      1      4      5      -6588.    

      4 WELLS

                 RECHARGE =  2.000000E-03

 REUSING STREAM SEGMENT DATA FROM LAST STRESS PERIOD
 
 SOLVING FOR HEAD 


     7 CALLS TO PCG ROUTINE FOR TIME STEP   1 IN STRESS PERIOD    6
    26 TOTAL ITERATIONS

 OUTPUT CONTROL FOR STRESS PERIOD    6   TIME STEP    1
    SAVE BUDGET
    SAVE HEAD FOR ALL LAYERS
    PRINT HEAD FOR ALL LAYERS
 UBDSV2 SAVING "STREAMFLOW OUT  " ON UNIT  50 AT TIME STEP  1, STRESS PERIOD   6



 STREAM LISTING     PERIOD      6   STEP        1

 LAYER ROW COL. STREAM  RCH.  FLOW INTO     FLOW TO   FLOW OUT OF   OVRLND.     DIRECT     STREAM       STREAM     STREAM     STREAM   STREAMBED  STREAMBED
                SEG.NO.  NO.  STRM. RCH.    AQUIFER    STRM. RCH.    RUNOFF     PRECIP       ET          HEAD       DEPTH      WIDTH   CONDCTNC.   GRADIENT

   1   13    1     1     1    1.0000E+05 -1.5956E+03   1.0160E+05  0.000E+00  0.000E+00  0.000E+00  4.84067E+01  1.453E-01  2.000E+01  2.000E+04 -7.978E-02
   1   13    2     1     2    1.0160E+05 -2.5492E+03   1.0414E+05  0.000E+00  0.000E+00  0.000E+00  4.79312E+01  1.471E-01  2.000E+01  2.000E+04 -1.275E-01
   1   14    3     1     3    1.0414E+05 -5.2555E+02   1.0467E+05  0.000E+00  0.000E+00  0.000E+00  4.74553E+01  1.484E-01  2.000E+01  2.000E+04 -2.628E-02
   1   15    4     1     4    1.0467E+05 -5.0298E+02   1.0517E+05  0.000E+00  0.000E+00  0.000E+00  4.69784E+01  1.489E-01  2.000E+01  2.000E+04 -2.515E-02
   1   16    5     1     5    1.0517E+05 -1.8481E+03   1.0702E+05  0.000E+00  0.000E+00  0.000E+00  4.65022E+01  1.499E-01  2.000E+01  2.000E+04 -9.241E-02
   1   16    6     1     6    1.0702E+05 -1.1462E+03   1.0817E+05  0.000E+00  0.000E+00  0.000E+00  4.60261E+01  1.511E-01  2.000E+01  2.000E+04 -5.731E-02
   1   16    7     1     7    1.0817E+05 -1.0939E+03   1.0926E+05  0.000E+00  0.000E+00  0.000E+00  4.55498E+01  1.521E-01  2.000E+01  2.000E+04 -5.470E-02
   1   16    8     1     8    1.0926E+05 -1.0472E+03   1.1031E+05  0.000E+00  0.000E+00  0.000E+00  4.50734E+01  1.530E-01  2.000E+01  2.000E+04 -5.236E-02
   1   16    9     1     9    1.1031E+05 -1.0037E+03   1.1131E+05  0.000E+00  0.000E+00  0.000E+00  4.45970E+01  1.538E-01  2.000E+01  2.000E+04 -5.019E-02
   1   16   10     1    10    1.1131E+05 -1.0144E+03   1.1233E+05  0.000E+00  0.000E+00  0.000E+00  4.41206E+01  1.547E-01  2.000E+01  2.000E+04 -5.072E-02
   1   16   11     1    11    1.1233E+05 -1.1628E+03   1.1349E+05  0.000E+00  0.000E+00  0.000E+00  4.36442E+01  1.556E-01  2.000E+01  2.000E+04 -5.814E-02
   1   16   12     1    12    1.1349E+05 -1.9958E+03   1.1549E+05  0.000E+00  0.000E+00  0.000E+00  4.31682E+01  1.569E-01  2.000E+01  2.000E+04 -9.979E-02
   1   15   13     1    13    1.1549E+05 -1.5282E+03   1.1701E+05  0.000E+00  0.000E+00  0.000E+00  4.26924E+01  1.583E-01  2.000E+01  2.000E+04 -7.641E-02
   1   14   14     1    14    1.1701E+05 -1.7199E+03   1.1873E+05  0.000E+00  0.000E+00  0.000E+00  4.22165E+01  1.597E-01  2.000E+01  2.000E+04 -8.600E-02
   1   13   15     1    15    1.1873E+05 -2.0953E+03   1.2083E+05  0.000E+00  0.000E+00  0.000E+00  4.17407E+01  1.612E-01  2.000E+01  2.000E+04 -1.048E-01
   1   12   16     1    16    1.2083E+05 -2.7266E+03   1.2356E+05  0.000E+00  0.000E+00  0.000E+00  4.12654E+01  1.631E-01  2.000E+01  2.000E+04 -1.363E-01
   1   12   17     1    17    1.2356E+05 -2.0157E+03   1.2557E+05  0.000E+00  0.000E+00  0.000E+00  4.07900E+01  1.650E-01  2.000E+01  2.000E+04 -1.008E-01
   1   12   18     1    18    1.2557E+05 -1.9708E+03   1.2754E+05  0.000E+00  0.000E+00  0.000E+00  4.03143E+01  1.666E-01  2.000E+01  2.000E+04 -9.854E-02
   1   12   19     1    19    1.2754E+05 -2.4876E+03   1.3003E+05  0.000E+00  0.000E+00  0.000E+00  3.98388E+01  1.684E-01  2.000E+01  2.000E+04 -1.244E-01
   1   13   20     1    20    1.3003E+05 -2.1204E+03   1.3215E+05  0.000E+00  0.000E+00  0.000E+00  3.93633E+01  1.702E-01  2.000E+01  2.000E+04 -1.060E-01
   1   14   21     1    21    1.3215E+05 -2.1177E+03   1.3427E+05  0.000E+00  0.000E+00  0.000E+00  3.88877E+01  1.718E-01  2.000E+01  2.000E+04 -1.059E-01
   1   14   22     1    22    1.3427E+05  4.7777E+03   1.2949E+05  0.000E+00  0.000E+00  0.000E+00  3.84094E+01  1.708E-01  2.000E+01  2.000E+04  2.389E-01
   1    9   30     2     1    5.0000E+04 -2.6167E+02   5.0262E+04  0.000E+00  0.000E+00  0.000E+00  4.02410E+01  1.160E-01  2.000E+01  2.000E+04 -1.308E-02
   1    9   29     2     2    5.0262E+04 -4.7166E+02   5.0733E+04  0.000E+00  0.000E+00  0.000E+00  3.99916E+01  1.166E-01  2.000E+01  2.000E+04 -2.358E-02
   1    9   28     2     3    5.0733E+04 -5.2671E+02   5.1260E+04  0.000E+00  0.000E+00  0.000E+00  3.97422E+01  1.172E-01  2.000E+01  2.000E+04 -2.634E-02
   1    9   27     2     4    5.1260E+04 -1.0294E+03   5.2289E+04  0.000E+00  0.000E+00  0.000E+00  3.94933E+01  1.183E-01  2.000E+01  2.000E+04 -5.147E-02
   1   10   26     2     5    5.2289E+04 -1.1026E+03   5.3392E+04  0.000E+00  0.000E+00  0.000E+00  3.92448E+01  1.198E-01  2.000E+01  2.000E+04 -5.513E-02
   1   11   25     2     6    5.3392E+04 -1.3153E+03   5.4707E+04  0.000E+00  0.000E+00  0.000E+00  3.89964E+01  1.214E-01  2.000E+01  2.000E+04 -6.576E-02
   1   12   24     2     7    5.4707E+04 -1.5462E+03   5.6254E+04  0.000E+00  0.000E+00  0.000E+00  3.87483E+01  1.233E-01  2.000E+01  2.000E+04 -7.731E-02
   1   13   23     2     8    5.6254E+04 -3.3143E+02   5.6585E+04  0.000E+00  0.000E+00  0.000E+00  3.84996E+01  1.246E-01  2.000E+01  2.000E+04 -1.657E-02
   1   14   22     2     9    5.6585E+04  1.5645E+03   5.5020E+04  0.000E+00  0.000E+00  0.000E+00  3.82488E+01  1.238E-01  2.000E+01  2.000E+04  7.823E-02
   1   14   22     3     1    1.8451E+05 -8.7833E+03   1.9329E+05  0.000E+00  0.000E+00  0.000E+00  3.77314E+01  1.758E-01  2.000E+01  2.000E+04 -4.392E-01
   1   15   23     3     2    1.9329E+05 -6.9441E+02   1.9399E+05  0.000E+00  0.000E+00  0.000E+00  3.68451E+01  1.784E-01  2.000E+01  2.000E+04 -3.472E-02
   1   15   24     3     3    1.9399E+05 -3.9943E+02   1.9439E+05  0.000E+00  0.000E+00  0.000E+00  3.59565E+01  1.787E-01  2.000E+01  2.000E+04 -1.997E-02
   1   15   25     3     4    1.9439E+05 -3.9236E+02   1.9478E+05  0.000E+00  0.000E+00  0.000E+00  3.50679E+01  1.790E-01  2.000E+01  2.000E+04 -1.962E-02
   1   15   26     3     5    1.9478E+05 -4.6074E+02   1.9524E+05  0.000E+00  0.000E+00  0.000E+00  3.41792E+01  1.792E-01  2.000E+01  2.000E+04 -2.304E-02
   1   16   27     3     6    1.9524E+05 -5.1747E+02   1.9576E+05  0.000E+00  0.000E+00  0.000E+00  3.32906E+01  1.795E-01  2.000E+01  2.000E+04 -2.587E-02
   1   17   28     3     7    1.9576E+05 -1.9982E+03   1.9776E+05  0.000E+00  0.000E+00  0.000E+00  3.24024E+01  1.802E-01  2.000E+01  2.000E+04 -9.991E-02
   1   18   29     3     8    1.9776E+05 -3.4345E+03   2.0119E+05  0.000E+00  0.000E+00  0.000E+00  3.15150E+01  1.816E-01  2.000E+01  2.000E+04 -1.717E-01
   1   18   30     3     9    2.0119E+05 -3.5673E+03   2.0476E+05  0.000E+00  0.000E+00  0.000E+00  3.06280E+01  1.836E-01  2.000E+01  2.000E+04 -1.784E-01



1
              HEAD IN LAYER   1 AT END OF TIME STEP   1 IN STRESS PERIOD    6
  ---------------------------------------------------------------------------

          1      2      3      4      5      6      7      8      9     10
         11     12     13     14     15     16     17     18     19     20
         21     22     23     24     25     26     27     28     29     30
 .........................................................................
   1  ****** ****** ****** ****** ****** ****** ****** ****** ****** ******
      ****** ****** ****** ****** ****** ****** ****** ****** ****** ******
      ****** ****** ****** ****** ****** ****** ****** ****** ****** ******
   2  ****** ****** ****** ****** ****** ****** ****** ****** ****** ******
      ****** ****** ****** ****** ****** ****** ****** ****** ****** ******
      ****** ****** ****** ****** ****** ****** ****** ****** ****** ******
   3  ****** ****** ****** ****** ****** ****** ****** ****** ****** ******
      ****** ****** ****** ****** ****** ****** ****** ****** ****** ******
      ****** ****** ****** ****** ****** ****** ****** ****** ****** ******
   4  ****** ****** ****** ****** ****** ****** ****** ****** ****** ******
      ****** ****** ****** ****** ****** ****** ****** ****** ****** ******
      ****** ****** ****** ****** ****** ****** ****** ****** ****** ******
   5  ****** ****** ****** ****** ****** ****** ****** ****** ****** ******
      ****** ****** ****** ****** ****** ****** ****** ****** ****** ******
      ****** ****** ****** ****** ****** ****** ****** ****** ****** ******
   6  ****** ****** ****** ****** ****** ****** ****** ****** ****** ******
      ****** ****** ****** ****** ****** ****** ****** ****** ****** ******
      ****** ****** ****** ****** ****** ****** ****** ****** ****** ******
   7  ****** ****** ****** ****** ****** ****** ****** ****** ****** ******
      ****** ****** ****** ****** ****** ****** ****** ****** ****** ******
      ****** ****** ****** ****** ****** ****** ****** ****** ****** ******
   8  ****** ****** ****** ****** ****** ****** ****** ****** ****** ******
      ****** ****** ****** ****** ****** ****** ****** ****** ****** ******
      ****** ****** ****** ****** ****** ****** ****** ****** ****** ******
   9  ****** ****** ****** ****** ****** ****** ****** ****** ****** ******
      ****** ****** ****** ****** ****** ****** ****** ****** ****** ******
      ****** ****** ****** ****** ****** ****** ****** ****** ****** ******
  10  ****** ****** ****** ****** ****** ****** ****** ****** ****** ******
      ****** ****** ****** ****** ****** ****** ****** ****** ****** ******
      ****** ****** ****** ****** ****** ****** ****** ****** ****** ******
  11  ****** ****** ****** ****** ****** ****** ****** ****** ****** ******
      ****** ****** ****** ****** ****** ****** ****** ****** ****** ******
      ****** ****** ****** ****** ****** ****** ****** ****** ****** ******
  12  ****** ****** ****** ****** ****** ****** ****** ****** ****** ******
      ****** ****** ****** ****** ****** ****** ****** ****** ****** ******
      ****** ****** ****** ****** ****** ****** ****** ****** ****** ******
  13  ****** ****** ****** ****** ****** ****** ****** ****** ****** ******
      ****** ****** ****** ****** ****** ****** ****** ****** ****** ******
      ****** ****** ****** ****** ****** ****** ****** ****** ****** ******
  14  ****** ****** ****** ****** ****** ****** ****** ****** ****** ******
      ****** ****** ****** ****** ****** ****** ****** ****** ****** ******
      ****** ****** ****** ****** ****** ****** ****** ****** ****** ******
  15  ****** ****** ****** ****** ****** ****** ****** ****** ****** ******
      ****** ****** ****** ****** ****** ****** ****** ****** ****** ******
      ****** ****** ****** ****** ****** ****** ****** ****** ****** ******
  16  ****** ****** ****** ****** ****** ****** ****** ****** ****** ******
      ****** ****** ****** ****** ****** ****** ****** ****** ****** ******
      ****** ****** ****** ****** ****** ****** ****** ****** ****** ******
  17  ****** ****** ****** ****** ****** ****** ****** ****** ****** ******
      ****** ****** ****** ****** ****** ****** ****** ****** ****** ******
      ****** ****** ****** ****** ****** ****** ****** ****** ****** ******
  18  ****** ****** ****** ****** ****** ****** ****** ****** ****** ******
      ****** ****** ****** ****** ****** ****** ****** ****** ****** ******
      ****** ****** ****** ****** ****** ****** ****** ****** ****** ******
  19  ****** ****** ****** ****** ****** ****** ****** ****** ****** ******
      ****** ****** ****** ****** ****** ****** ****** ****** ****** ******
      ****** ****** ****** ****** ****** ****** ****** ****** ****** ******
  20  ****** ****** ****** ****** ****** ****** ****** ****** ****** ******
      ****** ****** ****** ****** ****** ****** ****** ****** ****** ******
      ****** ****** ****** ****** ****** ****** ****** ****** ****** ******
  21  ****** ****** ****** ****** ****** ****** ****** ****** ****** ******
      ****** ****** ****** ****** ****** ****** ****** ****** ****** ******
      ****** ****** ****** ****** ****** ****** ****** ****** ****** ******
  22  ****** ****** ****** ****** ****** ****** ****** ****** ****** ******
      ****** ****** ****** ****** ****** ****** ****** ****** ****** ******
      ****** ****** ****** ****** ****** ****** ****** ****** ****** ******
  23  ****** ****** ****** ****** ****** ****** ****** ****** ****** ******
      ****** ****** ****** ****** ****** ****** ****** ****** ****** ******
      ****** ****** ****** ****** ****** ****** ****** ****** ****** ******
  24  ****** ****** ****** ****** ****** ****** ****** ****** ****** ******
      ****** ****** ****** ****** ****** ****** ****** ****** ****** ******
      ****** ****** ****** ****** ****** ****** ****** ****** ****** ******
  25  ****** ****** ****** ****** ****** ****** ****** ****** ****** ******
      ****** ****** ****** ****** ****** ****** ****** ****** ****** ******
      ****** ****** ****** ****** ****** ****** ****** ****** ****** ******

 HEAD WILL BE SAVED ON UNIT   51 AT END OF TIME STEP    1, STRESS PERIOD    6
1
  VOLUMETRIC BUDGET FOR ENTIRE MODEL AT END OF TIME STEP    1, STRESS PERIOD   6
  ------------------------------------------------------------------------------

     CUMULATIVE VOLUMES      L**3       RATES FOR THIS TIME STEP      L**3/T
     ------------------                 ------------------------

           IN:                                      IN:
           ---                                      ---
             STORAGE =    32570551.3918               STORAGE =         494.2690
       CONSTANT HEAD =    13983913.6034         CONSTANT HEAD =       31348.3839
               WELLS =           0.0000                 WELLS =           0.0000
            RECHARGE =    15097200.0000              RECHARGE =       55200.0000
      STREAM LEAKAGE =     3186337.0863        STREAM LEAKAGE =        6342.2399

            TOTAL IN =    64838002.0815              TOTAL IN =       93384.8928

          OUT:                                     OUT:
          ----                                     ----
             STORAGE =      693646.1269               STORAGE =        7609.5648
       CONSTANT HEAD =           0.0000         CONSTANT HEAD =           0.0000
               WELLS =    13522002.4623                 WELLS =       24675.1870
            RECHARGE =           0.0000              RECHARGE =           0.0000
      STREAM LEAKAGE =    50622355.6150        STREAM LEAKAGE =       61100.1383

           TOTAL OUT =    64838004.2042             TOTAL OUT =       93384.8901

            IN - OUT =          -2.1227              IN - OUT =       2.7158E-03

 PERCENT DISCREPANCY =          -0.00     PERCENT DISCREPANCY =           0.00






         TIME SUMMARY AT END OF TIME STEP    1 IN STRESS PERIOD    6
                    SECONDS     MINUTES      HOURS       DAYS        YEARS
                    -----------------------------------------------------------
   TIME STEP LENGTH 7.86240E+06 1.31040E+05  2184.0      91.000     0.24914    
 STRESS PERIOD TIME 7.86240E+06 1.31040E+05  2184.0      91.000     0.24914    
         TOTAL TIME 4.73472E+07 7.89120E+05  13152.      548.00      1.5003    
1
1
                            STRESS PERIOD NO.    7, LENGTH =   91.00000    
                            -----------------------------------------------

                              NUMBER OF TIME STEPS =     1

                               MULTIPLIER FOR DELT =     1.500

                            INITIAL TIME STEP SIZE =   91.00000    

 WELL NO.  LAYER   ROW   COL   STRESS RATE         
 --------------------------------------------------
      1      1      6     26      -9457.    
      2      1     23      4      -2056.    
      3      1     12     10      -6573.    
      4      1      4      5      -6588.    

      4 WELLS

                 RECHARGE =   0.00000    

 REUSING STREAM SEGMENT DATA FROM LAST STRESS PERIOD
 
 SOLVING FOR HEAD 


     7 CALLS TO PCG ROUTINE FOR TIME STEP   1 IN STRESS PERIOD    7
    26 TOTAL ITERATIONS

 OUTPUT CONTROL FOR STRESS PERIOD    7   TIME STEP    1
    SAVE BUDGET
    SAVE HEAD FOR ALL LAYERS
    PRINT HEAD FOR ALL LAYERS
 UBDSV2 SAVING "STREAMFLOW OUT  " ON UNIT  50 AT TIME STEP  1, STRESS PERIOD   7



 STREAM LISTING     PERIOD      7   STEP        1

 LAYER ROW COL. STREAM  RCH.  FLOW INTO     FLOW TO   FLOW OUT OF   OVRLND.     DIRECT     STREAM       STREAM     STREAM     STREAM   STREAMBED  STREAMBED
                SEG.NO.  NO.  STRM. RCH.    AQUIFER    STRM. RCH.    RUNOFF     PRECIP       ET          HEAD       DEPTH      WIDTH   CONDCTNC.   GRADIENT

   1   13    1     1     1    1.0000E+05 -8.8614E+02   1.0089E+05  0.000E+00  0.000E+00  0.000E+00  4.84064E+01  1.450E-01  2.000E+01  2.000E+04 -4.431E-02
   1   13    2     1     2    1.0089E+05 -1.7516E+03   1.0264E+05  0.000E+00  0.000E+00  0.000E+00  4.79303E+01  1.462E-01  2.000E+01  2.000E+04 -8.758E-02
   1   14    3     1     3    1.0264E+05 -2.6411E+02   1.0290E+05  0.000E+00  0.000E+00  0.000E+00  4.74539E+01  1.470E-01  2.000E+01  2.000E+04 -1.321E-02
   1   15    4     1     4    1.0290E+05 -2.3203E+02   1.0313E+05  0.000E+00  0.000E+00  0.000E+00  4.69768E+01  1.473E-01  2.000E+01  2.000E+04 -1.160E-02
   1   16    5     1     5    1.0313E+05 -1.0881E+03   1.0422E+05  0.000E+00  0.000E+00  0.000E+00  4.65001E+01  1.478E-01  2.000E+01  2.000E+04 -5.440E-02
   1   16    6     1     6    1.0422E+05 -6.8363E+02   1.0491E+05  0.000E+00  0.000E+00  0.000E+00  4.60236E+01  1.486E-01  2.000E+01  2.000E+04 -3.418E-02
   1   16    7     1     7    1.0491E+05 -6.4884E+02   1.0555E+05  0.000E+00  0.000E+00  0.000E+00  4.55469E+01  1.491E-01  2.000E+01  2.000E+04 -3.244E-02
   1   16    8     1     8    1.0555E+05 -6.0814E+02   1.0616E+05  0.000E+00  0.000E+00  0.000E+00  4.50701E+01  1.497E-01  2.000E+01  2.000E+04 -3.041E-02
   1   16    9     1     9    1.0616E+05 -5.6896E+02   1.0673E+05  0.000E+00  0.000E+00  0.000E+00  4.45934E+01  1.502E-01  2.000E+01  2.000E+04 -2.845E-02
   1   16   10     1    10    1.0673E+05 -5.8434E+02   1.0732E+05  0.000E+00  0.000E+00  0.000E+00  4.41166E+01  1.507E-01  2.000E+01  2.000E+04 -2.922E-02
   1   16   11     1    11    1.0732E+05 -7.3464E+02   1.0805E+05  0.000E+00  0.000E+00  0.000E+00  4.36399E+01  1.512E-01  2.000E+01  2.000E+04 -3.673E-02
   1   16   12     1    12    1.0805E+05 -1.2756E+03   1.0933E+05  0.000E+00  0.000E+00  0.000E+00  4.31634E+01  1.521E-01  2.000E+01  2.000E+04 -6.378E-02
   1   15   13     1    13    1.0933E+05 -7.4515E+02   1.1007E+05  0.000E+00  0.000E+00  0.000E+00  4.26870E+01  1.529E-01  2.000E+01  2.000E+04 -3.726E-02
   1   14   14     1    14    1.1007E+05 -9.0301E+02   1.1097E+05  0.000E+00  0.000E+00  0.000E+00  4.22104E+01  1.536E-01  2.000E+01  2.000E+04 -4.515E-02
   1   13   15     1    15    1.1097E+05 -1.2721E+03   1.1225E+05  0.000E+00  0.000E+00  0.000E+00  4.17341E+01  1.545E-01  2.000E+01  2.000E+04 -6.360E-02
   1   12   16     1    16    1.1225E+05 -1.9017E+03   1.1415E+05  0.000E+00  0.000E+00  0.000E+00  4.12581E+01  1.558E-01  2.000E+01  2.000E+04 -9.508E-02
   1   12   17     1    17    1.1415E+05 -1.4248E+03   1.1557E+05  0.000E+00  0.000E+00  0.000E+00  4.07822E+01  1.572E-01  2.000E+01  2.000E+04 -7.124E-02
   1   12   18     1    18    1.1557E+05 -1.3971E+03   1.1697E+05  0.000E+00  0.000E+00  0.000E+00  4.03061E+01  1.583E-01  2.000E+01  2.000E+04 -6.986E-02
   1   12   19     1    19    1.1697E+05 -1.7874E+03   1.1876E+05  0.000E+00  0.000E+00  0.000E+00  3.98301E+01  1.596E-01  2.000E+01  2.000E+04 -8.937E-02
   1   13   20     1    20    1.1876E+05 -1.4477E+03   1.2020E+05  0.000E+00  0.000E+00  0.000E+00  3.93541E+01  1.610E-01  2.000E+01  2.000E+04 -7.239E-02
   1   14   21     1    21    1.2020E+05 -1.4595E+03   1.2166E+05  0.000E+00  0.000E+00  0.000E+00  3.88780E+01  1.621E-01  2.000E+01  2.000E+04 -7.298E-02
   1   14   22     1    22    1.2166E+05  4.9349E+03   1.1673E+05  0.000E+00  0.000E+00  0.000E+00  3.83994E+01  1.607E-01  2.000E+01  2.000E+04  2.467E-01
   1    9   30     2     1    5.0000E+04  2.5510E+02   4.9745E+04  0.000E+00  0.000E+00  0.000E+00  4.02407E+01  1.157E-01  2.000E+01  2.000E+04  1.275E-02
   1    9   29     2     2    4.9745E+04  4.3559E+01   4.9701E+04  0.000E+00  0.000E+00  0.000E+00  3.99905E+01  1.155E-01  2.000E+01  2.000E+04  2.178E-03
   1    9   28     2     3    4.9701E+04 -9.4869E+00   4.9711E+04  0.000E+00  0.000E+00  0.000E+00  3.97405E+01  1.155E-01  2.000E+01  2.000E+04 -4.743E-04
   1    9   27     2     4    4.9711E+04 -3.2373E+02   5.0035E+04  0.000E+00  0.000E+00  0.000E+00  3.94907E+01  1.157E-01  2.000E+01  2.000E+04 -1.619E-02
   1   10   26     2     5    5.0035E+04 -3.9642E+02   5.0431E+04  0.000E+00  0.000E+00  0.000E+00  3.92412E+01  1.162E-01  2.000E+01  2.000E+04 -1.982E-02
   1   11   25     2     6    5.0431E+04 -6.3814E+02   5.1069E+04  0.000E+00  0.000E+00  0.000E+00  3.89919E+01  1.169E-01  2.000E+01  2.000E+04 -3.191E-02
   1   12   24     2     7    5.1069E+04 -9.2827E+02   5.1997E+04  0.000E+00  0.000E+00  0.000E+00  3.87430E+01  1.180E-01  2.000E+01  2.000E+04 -4.641E-02
   1   13   23     2     8    5.1997E+04 -1.3854E+02   5.2136E+04  0.000E+00  0.000E+00  0.000E+00  3.84937E+01  1.187E-01  2.000E+01  2.000E+04 -6.927E-03
   1   14   22     2     9    5.2136E+04  1.7992E+03   5.0337E+04  0.000E+00  0.000E+00  0.000E+00  3.82426E+01  1.176E-01  2.000E+01  2.000E+04  8.996E-02
   1   14   22     3     1    1.6707E+05 -8.6245E+03   1.7569E+05  0.000E+00  0.000E+00  0.000E+00  3.77214E+01  1.658E-01  2.000E+01  2.000E+04 -4.312E-01
   1   15   23     3     2    1.7569E+05 -4.8939E+02   1.7618E+05  0.000E+00  0.000E+00  0.000E+00  3.68351E+01  1.685E-01  2.000E+01  2.000E+04 -2.447E-02
   1   15   24     3     3    1.7618E+05 -2.2663E+02   1.7641E+05  0.000E+00  0.000E+00  0.000E+00  3.59464E+01  1.687E-01  2.000E+01  2.000E+04 -1.133E-02
   1   15   25     3     4    1.7641E+05 -2.1640E+02   1.7662E+05  0.000E+00  0.000E+00  0.000E+00  3.50577E+01  1.688E-01  2.000E+01  2.000E+04 -1.082E-02
   1   15   26     3     5    1.7662E+05 -2.6003E+02   1.7688E+05  0.000E+00  0.000E+00  0.000E+00  3.41689E+01  1.689E-01  2.000E+01  2.000E+04 -1.300E-02
   1   16   27     3     6    1.7688E+05 -2.8605E+02   1.7717E+05  0.000E+00  0.000E+00  0.000E+00  3.32802E+01  1.691E-01  2.000E+01  2.000E+04 -1.430E-02
   1   17   28     3     7    1.7717E+05 -1.3599E+03   1.7853E+05  0.000E+00  0.000E+00  0.000E+00  3.23918E+01  1.696E-01  2.000E+01  2.000E+04 -6.799E-02
   1   18   29     3     8    1.7853E+05 -2.7551E+03   1.8128E+05  0.000E+00  0.000E+00  0.000E+00  3.15041E+01  1.707E-01  2.000E+01  2.000E+04 -1.378E-01
   1   18   30     3     9    1.8128E+05 -3.0428E+03   1.8433E+05  0.000E+00  0.000E+00  0.000E+00  3.06168E+01  1.724E-01  2.000E+01  2.000E+04 -1.521E-01



1
              HEAD IN LAYER   1 AT END OF TIME STEP   1 IN STRESS PERIOD    7
  ---------------------------------------------------------------------------

          1      2      3      4      5      6      7      8      9     10
         11     12     13     14     15     16     17     18     19     20
         21     22     23     24     25     26     27     28     29     30
 .........................................................................
   1  ****** ****** ****** ****** ****** ****** ****** ****** ****** ******
      ****** ****** ****** ****** ****** ****** ****** ****** ****** ******
      ****** ****** ****** ****** ****** ****** ****** ****** ****** ******
   2  ****** ****** ****** ****** ****** ****** ****** ****** ****** ******
      ****** ****** ****** ****** ****** ****** ****** ****** ****** ******
      ****** ****** ****** ****** ****** ****** ****** ****** ****** ******
   3  ****** ****** ****** ****** ****** ****** ****** ****** ****** ******
      ****** ****** ****** ****** ****** ****** ****** ****** ****** ******
      ****** ****** ****** ****** ****** ****** ****** ****** ****** ******
   4  ****** ****** ****** ****** ****** ****** ****** ****** ****** ******
      ****** ****** ****** ****** ****** ****** ****** ****** ****** ******
      ****** ****** ****** ****** ****** ****** ****** ****** ****** ******
   5  ****** ****** ****** ****** ****** ****** ****** ****** ****** ******
      ****** ****** ****** ****** ****** ****** ****** ****** ****** ******
      ****** ****** ****** ****** ****** ****** ****** ****** ****** ******
   6  ****** ****** ****** ****** ****** ****** ****** ****** ****** ******
      ****** ****** ****** ****** ****** ****** ****** ****** ****** ******
      ****** ****** ****** ****** ****** ****** ****** ****** ****** ******
   7  ****** ****** ****** ****** ****** ****** ****** ****** ****** ******
      ****** ****** ****** ****** ****** ****** ****** ****** ****** ******
      ****** ****** ****** ****** ****** ****** ****** ****** ****** ******
   8  ****** ****** ****** ****** ****** ****** ****** ****** ****** ******
      ****** ****** ****** ****** ****** ****** ****** ****** ****** ******
      ****** ****** ****** ****** ****** ****** ****** ****** ****** ******
   9  ****** ****** ****** ****** ****** ****** ****** ****** ****** ******
      ****** ****** ****** ****** ****** ****** ****** ****** ****** ******
      ****** ****** ****** ****** ****** ****** ****** ****** ****** ******
  10  ****** ****** ****** ****** ****** ****** ****** ****** ****** ******
      ****** ****** ****** ****** ****** ****** ****** ****** ****** ******
      ****** ****** ****** ****** ****** ****** ****** ****** ****** ******
  11  ****** ****** ****** ****** ****** ****** ****** ****** ****** ******
      ****** ****** ****** ****** ****** ****** ****** ****** ****** ******
      ****** ****** ****** ****** ****** ****** ****** ****** ****** ******
  12  ****** ****** ****** ****** ****** ****** ****** ****** ****** ******
      ****** ****** ****** ****** ****** ****** ****** ****** ****** ******
      ****** ****** ****** ****** ****** ****** ****** ****** ****** ******
  13  ****** ****** ****** ****** ****** ****** ****** ****** ****** ******
      ****** ****** ****** ****** ****** ****** ****** ****** ****** ******
      ****** ****** ****** ****** ****** ****** ****** ****** ****** ******
  14  ****** ****** ****** ****** ****** ****** ****** ****** ****** ******
      ****** ****** ****** ****** ****** ****** ****** ****** ****** ******
      ****** ****** ****** ****** ****** ****** ****** ****** ****** ******
  15  ****** ****** ****** ****** ****** ****** ****** ****** ****** ******
      ****** ****** ****** ****** ****** ****** ****** ****** ****** ******
      ****** ****** ****** ****** ****** ****** ****** ****** ****** ******
  16  ****** ****** ****** ****** ****** ****** ****** ****** ****** ******
      ****** ****** ****** ****** ****** ****** ****** ****** ****** ******
      ****** ****** ****** ****** ****** ****** ****** ****** ****** ******
  17  ****** ****** ****** ****** ****** ****** ****** ****** ****** ******
      ****** ****** ****** ****** ****** ****** ****** ****** ****** ******
      ****** ****** ****** ****** ****** ****** ****** ****** ****** ******
  18  ****** ****** ****** ****** ****** ****** ****** ****** ****** ******
      ****** ****** ****** ****** ****** ****** ****** ****** ****** ******
      ****** ****** ****** ****** ****** ****** ****** ****** ****** ******
  19  ****** ****** ****** ****** ****** ****** ****** ****** ****** ******
      ****** ****** ****** ****** ****** ****** ****** ****** ****** ******
      ****** ****** ****** ****** ****** ****** ****** ****** ****** ******
  20  ****** ****** ****** ****** ****** ****** ****** ****** ****** ******
      ****** ****** ****** ****** ****** ****** ****** ****** ****** ******
      ****** ****** ****** ****** ****** ****** ****** ****** ****** ******
  21  ****** ****** ****** ****** ****** ****** ****** ****** ****** ******
      ****** ****** ****** ****** ****** ****** ****** ****** ****** ******
      ****** ****** ****** ****** ****** ****** ****** ****** ****** ******
  22  ****** ****** ****** ****** ****** ****** ****** ****** ****** ******
      ****** ****** ****** ****** ****** ****** ****** ****** ****** ******
      ****** ****** ****** ****** ****** ****** ****** ****** ****** ******
  23  ****** ****** ****** ****** ****** ****** ****** ****** ****** ******
      ****** ****** ****** ****** ****** ****** ****** ****** ****** ******
      ****** ****** ****** ****** ****** ****** ****** ****** ****** ******
  24  ****** ****** ****** ****** ****** ****** ****** ****** ****** ******
      ****** ****** ****** ****** ****** ****** ****** ****** ****** ******
      ****** ****** ****** ****** ****** ****** ****** ****** ****** ******
  25  ****** ****** ****** ****** ****** ****** ****** ****** ****** ******
      ****** ****** ****** ****** ****** ****** ****** ****** ****** ******
      ****** ****** ****** ****** ****** ****** ****** ****** ****** ******

 HEAD WILL BE SAVED ON UNIT   51 AT END OF TIME STEP    1, STRESS PERIOD    7
1
  VOLUMETRIC BUDGET FOR ENTIRE MODEL AT END OF TIME STEP    1, STRESS PERIOD   7
  ------------------------------------------------------------------------------

     CUMULATIVE VOLUMES      L**3       RATES FOR THIS TIME STEP      L**3/T
     ------------------                 ------------------------

           IN:                                      IN:
           ---                                      ---
             STORAGE =    34719133.7950               STORAGE =       23610.7956
       CONSTANT HEAD =    17204540.0641         CONSTANT HEAD =       35391.4996
               WELLS =           0.0000                 WELLS =           0.0000
            RECHARGE =    15097200.0000              RECHARGE =           0.0000
      STREAM LEAKAGE =     3826323.8282        STREAM LEAKAGE =        7032.8213

            TOTAL IN =    70847197.6873              TOTAL IN =       66035.1165

          OUT:                                     OUT:
          ----                                     ----
             STORAGE =      693646.1269               STORAGE =           0.0000
       CONSTANT HEAD =           0.0000         CONSTANT HEAD =           0.0000
               WELLS =    15767444.4771                 WELLS =       24675.1870
            RECHARGE =           0.0000              RECHARGE =           0.0000
      STREAM LEAKAGE =    54386109.7084        STREAM LEAKAGE =       41359.9351

           TOTAL OUT =    70847200.3123             TOTAL OUT =       66035.1221

            IN - OUT =          -2.6250              IN - OUT =      -5.5204E-03

 PERCENT DISCREPANCY =          -0.00     PERCENT DISCREPANCY =          -0.00






         TIME SUMMARY AT END OF TIME STEP    1 IN STRESS PERIOD    7
                    SECONDS     MINUTES      HOURS       DAYS        YEARS
                    -----------------------------------------------------------
   TIME STEP LENGTH 7.86240E+06 1.31040E+05  2184.0      91.000     0.24914    
 STRESS PERIOD TIME 7.86240E+06 1.31040E+05  2184.0      91.000     0.24914    
         TOTAL TIME 5.52096E+07 9.20160E+05  15336.      639.00      1.7495    
1
1
                            STRESS PERIOD NO.    8, LENGTH =   91.00000    
                            -----------------------------------------------

                              NUMBER OF TIME STEPS =     1

                               MULTIPLIER FOR DELT =     1.500

                            INITIAL TIME STEP SIZE =   91.00000    

 WELL NO.  LAYER   ROW   COL   STRESS RATE         
 --------------------------------------------------
      1      1      6     26      -9457.    
      2      1     23      4      -2056.    
      3      1     12     10      -6573.    
      4      1      4      5      -6588.    

      4 WELLS

                 RECHARGE =  1.000000E-03

 REUSING STREAM SEGMENT DATA FROM LAST STRESS PERIOD
 
 SOLVING FOR HEAD 


     6 CALLS TO PCG ROUTINE FOR TIME STEP   1 IN STRESS PERIOD    8
    22 TOTAL ITERATIONS

 OUTPUT CONTROL FOR STRESS PERIOD    8   TIME STEP    1
    SAVE BUDGET
    SAVE HEAD FOR ALL LAYERS
    PRINT HEAD FOR ALL LAYERS
 UBDSV2 SAVING "STREAMFLOW OUT  " ON UNIT  50 AT TIME STEP  1, STRESS PERIOD   8



 STREAM LISTING     PERIOD      8   STEP        1

 LAYER ROW COL. STREAM  RCH.  FLOW INTO     FLOW TO   FLOW OUT OF   OVRLND.     DIRECT     STREAM       STREAM     STREAM     STREAM   STREAMBED  STREAMBED
                SEG.NO.  NO.  STRM. RCH.    AQUIFER    STRM. RCH.    RUNOFF     PRECIP       ET          HEAD       DEPTH      WIDTH   CONDCTNC.   GRADIENT

   1   13    1     1     1    1.0000E+05 -9.2811E+02   1.0093E+05  0.000E+00  0.000E+00  0.000E+00  4.84064E+01  1.451E-01  2.000E+01  2.000E+04 -4.641E-02
   1   13    2     1     2    1.0093E+05 -1.7865E+03   1.0271E+05  0.000E+00  0.000E+00  0.000E+00  4.79303E+01  1.462E-01  2.000E+01  2.000E+04 -8.932E-02
   1   14    3     1     3    1.0271E+05 -3.2129E+02   1.0304E+05  0.000E+00  0.000E+00  0.000E+00  4.74540E+01  1.471E-01  2.000E+01  2.000E+04 -1.606E-02
   1   15    4     1     4    1.0304E+05 -2.9483E+02   1.0333E+05  0.000E+00  0.000E+00  0.000E+00  4.69769E+01  1.474E-01  2.000E+01  2.000E+04 -1.474E-02
   1   16    5     1     5    1.0333E+05 -1.2576E+03   1.0459E+05  0.000E+00  0.000E+00  0.000E+00  4.65003E+01  1.481E-01  2.000E+01  2.000E+04 -6.288E-02
   1   16    6     1     6    1.0459E+05 -7.8501E+02   1.0537E+05  0.000E+00  0.000E+00  0.000E+00  4.60239E+01  1.489E-01  2.000E+01  2.000E+04 -3.925E-02
   1   16    7     1     7    1.0537E+05 -7.4460E+02   1.0612E+05  0.000E+00  0.000E+00  0.000E+00  4.55473E+01  1.496E-01  2.000E+01  2.000E+04 -3.723E-02
   1   16    8     1     8    1.0612E+05 -7.0320E+02   1.0682E+05  0.000E+00  0.000E+00  0.000E+00  4.50707E+01  1.502E-01  2.000E+01  2.000E+04 -3.516E-02
   1   16    9     1     9    1.0682E+05 -6.6603E+02   1.0749E+05  0.000E+00  0.000E+00  0.000E+00  4.45940E+01  1.508E-01  2.000E+01  2.000E+04 -3.330E-02
   1   16   10     1    10    1.0749E+05 -6.8547E+02   1.0817E+05  0.000E+00  0.000E+00  0.000E+00  4.41173E+01  1.513E-01  2.000E+01  2.000E+04 -3.427E-02
   1   16   11     1    11    1.0817E+05 -8.4086E+02   1.0901E+05  0.000E+00  0.000E+00  0.000E+00  4.36406E+01  1.520E-01  2.000E+01  2.000E+04 -4.204E-02
   1   16   12     1    12    1.0901E+05 -1.4334E+03   1.1045E+05  0.000E+00  0.000E+00  0.000E+00  4.31643E+01  1.529E-01  2.000E+01  2.000E+04 -7.167E-02
   1   15   13     1    13    1.1045E+05 -9.0199E+02   1.1135E+05  0.000E+00  0.000E+00  0.000E+00  4.26880E+01  1.539E-01  2.000E+01  2.000E+04 -4.510E-02
   1   14   14     1    14    1.1135E+05 -1.0481E+03   1.1240E+05  0.000E+00  0.000E+00  0.000E+00  4.22115E+01  1.547E-01  2.000E+01  2.000E+04 -5.241E-02
   1   13   15     1    15    1.1240E+05 -1.4008E+03   1.1380E+05  0.000E+00  0.000E+00  0.000E+00  4.17353E+01  1.557E-01  2.000E+01  2.000E+04 -7.004E-02
   1   12   16     1    16    1.1380E+05 -1.9858E+03   1.1578E+05  0.000E+00  0.000E+00  0.000E+00  4.12594E+01  1.571E-01  2.000E+01  2.000E+04 -9.929E-02
   1   12   17     1    17    1.1578E+05 -1.5234E+03   1.1731E+05  0.000E+00  0.000E+00  0.000E+00  4.07836E+01  1.586E-01  2.000E+01  2.000E+04 -7.617E-02
   1   12   18     1    18    1.1731E+05 -1.5050E+03   1.1881E+05  0.000E+00  0.000E+00  0.000E+00  4.03075E+01  1.598E-01  2.000E+01  2.000E+04 -7.525E-02
   1   12   19     1    19    1.1881E+05 -1.9245E+03   1.2074E+05  0.000E+00  0.000E+00  0.000E+00  3.98316E+01  1.612E-01  2.000E+01  2.000E+04 -9.622E-02
   1   13   20     1    20    1.2074E+05 -1.6220E+03   1.2236E+05  0.000E+00  0.000E+00  0.000E+00  3.93558E+01  1.626E-01  2.000E+01  2.000E+04 -8.110E-02
   1   14   21     1    21    1.2236E+05 -1.6188E+03   1.2398E+05  0.000E+00  0.000E+00  0.000E+00  3.88798E+01  1.639E-01  2.000E+01  2.000E+04 -8.094E-02
   1   14   22     1    22    1.2398E+05  4.8857E+03   1.1909E+05  0.000E+00  0.000E+00  0.000E+00  3.84012E+01  1.626E-01  2.000E+01  2.000E+04  2.443E-01
   1    9   30     2     1    5.0000E+04  9.4426E+01   4.9906E+04  0.000E+00  0.000E+00  0.000E+00  4.02408E+01  1.158E-01  2.000E+01  2.000E+04  4.721E-03
   1    9   29     2     2    4.9906E+04 -1.1411E+02   5.0020E+04  0.000E+00  0.000E+00  0.000E+00  3.99908E+01  1.158E-01  2.000E+01  2.000E+04 -5.705E-03
   1    9   28     2     3    5.0020E+04 -1.6102E+02   5.0181E+04  0.000E+00  0.000E+00  0.000E+00  3.97410E+01  1.160E-01  2.000E+01  2.000E+04 -8.051E-03
   1    9   27     2     4    5.0181E+04 -4.9464E+02   5.0675E+04  0.000E+00  0.000E+00  0.000E+00  3.94915E+01  1.165E-01  2.000E+01  2.000E+04 -2.473E-02
   1   10   26     2     5    5.0675E+04 -5.9547E+02   5.1271E+04  0.000E+00  0.000E+00  0.000E+00  3.92422E+01  1.172E-01  2.000E+01  2.000E+04 -2.977E-02
   1   11   25     2     6    5.1271E+04 -8.3591E+02   5.2107E+04  0.000E+00  0.000E+00  0.000E+00  3.89932E+01  1.182E-01  2.000E+01  2.000E+04 -4.180E-02
   1   12   24     2     7    5.2107E+04 -1.1072E+03   5.3214E+04  0.000E+00  0.000E+00  0.000E+00  3.87445E+01  1.195E-01  2.000E+01  2.000E+04 -5.536E-02
   1   13   23     2     8    5.3214E+04 -2.1186E+02   5.3426E+04  0.000E+00  0.000E+00  0.000E+00  3.84954E+01  1.204E-01  2.000E+01  2.000E+04 -1.059E-02
   1   14   22     2     9    5.3426E+04  1.7484E+03   5.1677E+04  0.000E+00  0.000E+00  0.000E+00  3.82444E+01  1.194E-01  2.000E+01  2.000E+04  8.742E-02
   1   14   22     3     1    1.7077E+05 -8.6683E+03   1.7944E+05  0.000E+00  0.000E+00  0.000E+00  3.77235E+01  1.680E-01  2.000E+01  2.000E+04 -4.334E-01
   1   15   23     3     2    1.7944E+05 -5.5422E+02   1.7999E+05  0.000E+00  0.000E+00  0.000E+00  3.68373E+01  1.706E-01  2.000E+01  2.000E+04 -2.771E-02
   1   15   24     3     3    1.7999E+05 -2.8752E+02   1.8028E+05  0.000E+00  0.000E+00  0.000E+00  3.59486E+01  1.709E-01  2.000E+01  2.000E+04 -1.438E-02
   1   15   25     3     4    1.8028E+05 -2.7897E+02   1.8056E+05  0.000E+00  0.000E+00  0.000E+00  3.50599E+01  1.710E-01  2.000E+01  2.000E+04 -1.395E-02
   1   15   26     3     5    1.8056E+05 -3.3491E+02   1.8089E+05  0.000E+00  0.000E+00  0.000E+00  3.41712E+01  1.712E-01  2.000E+01  2.000E+04 -1.675E-02
   1   16   27     3     6    1.8089E+05 -3.6828E+02   1.8126E+05  0.000E+00  0.000E+00  0.000E+00  3.32825E+01  1.714E-01  2.000E+01  2.000E+04 -1.841E-02
   1   17   28     3     7    1.8126E+05 -1.5651E+03   1.8283E+05  0.000E+00  0.000E+00  0.000E+00  3.23942E+01  1.720E-01  2.000E+01  2.000E+04 -7.825E-02
   1   18   29     3     8    1.8283E+05 -2.9236E+03   1.8575E+05  0.000E+00  0.000E+00  0.000E+00  3.15066E+01  1.732E-01  2.000E+01  2.000E+04 -1.462E-01
   1   18   30     3     9    1.8575E+05 -3.1914E+03   1.8894E+05  0.000E+00  0.000E+00  0.000E+00  3.06194E+01  1.749E-01  2.000E+01  2.000E+04 -1.596E-01



1
              HEAD IN LAYER   1 AT END OF TIME STEP   1 IN STRESS PERIOD    8
  ---------------------------------------------------------------------------

          1      2      3      4      5      6      7      8      9     10
         11     12     13     14     15     16     17     18     19     20
         21     22     23     24     25     26     27     28     29     30
 .........................................................................
   1  ****** ****** ****** ****** ****** ****** ****** ****** ****** ******
      ****** ****** ****** ****** ****** ****** ****** ****** ****** ******
      ****** ****** ****** ****** ****** ****** ****** ****** ****** ******
   2  ****** ****** ****** ****** ****** ****** ****** ****** ****** ******
      ****** ****** ****** ****** ****** ****** ****** ****** ****** ******
      ****** ****** ****** ****** ****** ****** ****** ****** ****** ******
   3  ****** ****** ****** ****** ****** ****** ****** ****** ****** ******
      ****** ****** ****** ****** ****** ****** ****** ****** ****** ******
      ****** ****** ****** ****** ****** ****** ****** ****** ****** ******
   4  ****** ****** ****** ****** ****** ****** ****** ****** ****** ******
      ****** ****** ****** ****** ****** ****** ****** ****** ****** ******
      ****** ****** ****** ****** ****** ****** ****** ****** ****** ******
   5  ****** ****** ****** ****** ****** ****** ****** ****** ****** ******
      ****** ****** ****** ****** ****** ****** ****** ****** ****** ******
      ****** ****** ****** ****** ****** ****** ****** ****** ****** ******
   6  ****** ****** ****** ****** ****** ****** ****** ****** ****** ******
      ****** ****** ****** ****** ****** ****** ****** ****** ****** ******
      ****** ****** ****** ****** ****** ****** ****** ****** ****** ******
   7  ****** ****** ****** ****** ****** ****** ****** ****** ****** ******
      ****** ****** ****** ****** ****** ****** ****** ****** ****** ******
      ****** ****** ****** ****** ****** ****** ****** ****** ****** ******
   8  ****** ****** ****** ****** ****** ****** ****** ****** ****** ******
      ****** ****** ****** ****** ****** ****** ****** ****** ****** ******
      ****** ****** ****** ****** ****** ****** ****** ****** ****** ******
   9  ****** ****** ****** ****** ****** ****** ****** ****** ****** ******
      ****** ****** ****** ****** ****** ****** ****** ****** ****** ******
      ****** ****** ****** ****** ****** ****** ****** ****** ****** ******
  10  ****** ****** ****** ****** ****** ****** ****** ****** ****** ******
      ****** ****** ****** ****** ****** ****** ****** ****** ****** ******
      ****** ****** ****** ****** ****** ****** ****** ****** ****** ******
  11  ****** ****** ****** ****** ****** ****** ****** ****** ****** ******
      ****** ****** ****** ****** ****** ****** ****** ****** ****** ******
      ****** ****** ****** ****** ****** ****** ****** ****** ****** ******
  12  ****** ****** ****** ****** ****** ****** ****** ****** ****** ******
      ****** ****** ****** ****** ****** ****** ****** ****** ****** ******
      ****** ****** ****** ****** ****** ****** ****** ****** ****** ******
  13  ****** ****** ****** ****** ****** ****** ****** ****** ****** ******
      ****** ****** ****** ****** ****** ****** ****** ****** ****** ******
      ****** ****** ****** ****** ****** ****** ****** ****** ****** ******
  14  ****** ****** ****** ****** ****** ****** ****** ****** ****** ******
      ****** ****** ****** ****** ****** ****** ****** ****** ****** ******
      ****** ****** ****** ****** ****** ****** ****** ****** ****** ******
  15  ****** ****** ****** ****** ****** ****** ****** ****** ****** ******
      ****** ****** ****** ****** ****** ****** ****** ****** ****** ******
      ****** ****** ****** ****** ****** ****** ****** ****** ****** ******
  16  ****** ****** ****** ****** ****** ****** ****** ****** ****** ******
      ****** ****** ****** ****** ****** ****** ****** ****** ****** ******
      ****** ****** ****** ****** ****** ****** ****** ****** ****** ******
  17  ****** ****** ****** ****** ****** ****** ****** ****** ****** ******
      ****** ****** ****** ****** ****** ****** ****** ****** ****** ******
      ****** ****** ****** ****** ****** ****** ****** ****** ****** ******
  18  ****** ****** ****** ****** ****** ****** ****** ****** ****** ******
      ****** ****** ****** ****** ****** ****** ****** ****** ****** ******
      ****** ****** ****** ****** ****** ****** ****** ****** ****** ******
  19  ****** ****** ****** ****** ****** ****** ****** ****** ****** ******
      ****** ****** ****** ****** ****** ****** ****** ****** ****** ******
      ****** ****** ****** ****** ****** ****** ****** ****** ****** ******
  20  ****** ****** ****** ****** ****** ****** ****** ****** ****** ******
      ****** ****** ****** ****** ****** ****** ****** ****** ****** ******
      ****** ****** ****** ****** ****** ****** ****** ****** ****** ******
  21  ****** ****** ****** ****** ****** ****** ****** ****** ****** ******
      ****** ****** ****** ****** ****** ****** ****** ****** ****** ******
      ****** ****** ****** ****** ****** ****** ****** ****** ****** ******
  22  ****** ****** ****** ****** ****** ****** ****** ****** ****** ******
      ****** ****** ****** ****** ****** ****** ****** ****** ****** ******
      ****** ****** ****** ****** ****** ****** ****** ****** ****** ******
  23  ****** ****** ****** ****** ****** ****** ****** ****** ****** ******
      ****** ****** ****** ****** ****** ****** ****** ****** ****** ******
      ****** ****** ****** ****** ****** ****** ****** ****** ****** ******
  24  ****** ****** ****** ****** ****** ****** ****** ****** ****** ******
      ****** ****** ****** ****** ****** ****** ****** ****** ****** ******
      ****** ****** ****** ****** ****** ****** ****** ****** ****** ******
  25  ****** ****** ****** ****** ****** ****** ****** ****** ****** ******
      ****** ****** ****** ****** ****** ****** ****** ****** ****** ******
      ****** ****** ****** ****** ****** ****** ****** ****** ****** ******

 HEAD WILL BE SAVED ON UNIT   51 AT END OF TIME STEP    1, STRESS PERIOD    8
1
  VOLUMETRIC BUDGET FOR ENTIRE MODEL AT END OF TIME STEP    1, STRESS PERIOD   8
  ------------------------------------------------------------------------------

     CUMULATIVE VOLUMES      L**3       RATES FOR THIS TIME STEP      L**3/T
     ------------------                 ------------------------

           IN:                                      IN:
           ---                                      ---
             STORAGE =    34933447.8013               STORAGE =        2355.0990
       CONSTANT HEAD =    20406424.0259         CONSTANT HEAD =       35185.5380
               WELLS =           0.0000                 WELLS =           0.0000
            RECHARGE =    17608800.0000              RECHARGE =       27600.0000
      STREAM LEAKAGE =     4438620.9635        STREAM LEAKAGE =        6728.5399

            TOTAL IN =    77387292.7908              TOTAL IN =       71869.1770

          OUT:                                     OUT:
          ----                                     ----
             STORAGE =      832330.5014               STORAGE =        1524.0041
       CONSTANT HEAD =           0.0000         CONSTANT HEAD =           0.0000
               WELLS =    18012886.4918                 WELLS =       24675.1870
            RECHARGE =           0.0000              RECHARGE =           0.0000
      STREAM LEAKAGE =    58542077.7990        STREAM LEAKAGE =       45669.9790

           TOTAL OUT =    77387294.7923             TOTAL OUT =       71869.1701

            IN - OUT =          -2.0015              IN - OUT =       6.8521E-03

 PERCENT DISCREPANCY =          -0.00     PERCENT DISCREPANCY =           0.00






         TIME SUMMARY AT END OF TIME STEP    1 IN STRESS PERIOD    8
                    SECONDS     MINUTES      HOURS       DAYS        YEARS
                    -----------------------------------------------------------
   TIME STEP LENGTH 7.86240E+06 1.31040E+05  2184.0      91.000     0.24914    
 STRESS PERIOD TIME 7.86240E+06 1.31040E+05  2184.0      91.000     0.24914    
         TOTAL TIME 6.30720E+07 1.05120E+06  17520.      730.00      1.9986    
1
1
                            STRESS PERIOD NO.    9, LENGTH =   92.00000    
                            -----------------------------------------------

                              NUMBER OF TIME STEPS =     1

                               MULTIPLIER FOR DELT =     1.500

                            INITIAL TIME STEP SIZE =   92.00000    

 WELL NO.  LAYER   ROW   COL   STRESS RATE         
 --------------------------------------------------
      1      1      6     26      -9457.    
      2      1     23      4      -2056.    
      3      1     12     10      -6573.    
      4      1      4      5      -6588.    

      4 WELLS

                 RECHARGE =  5.000000E-04

 REUSING STREAM SEGMENT DATA FROM LAST STRESS PERIOD
 
 SOLVING FOR HEAD 


     6 CALLS TO PCG ROUTINE FOR TIME STEP   1 IN STRESS PERIOD    9
    23 TOTAL ITERATIONS

 OUTPUT CONTROL FOR STRESS PERIOD    9   TIME STEP    1
    SAVE BUDGET
    SAVE HEAD FOR ALL LAYERS
    PRINT HEAD FOR ALL LAYERS
 UBDSV2 SAVING "STREAMFLOW OUT  " ON UNIT  50 AT TIME STEP  1, STRESS PERIOD   9



 STREAM LISTING     PERIOD      9   STEP        1

 LAYER ROW COL. STREAM  RCH.  FLOW INTO     FLOW TO   FLOW OUT OF   OVRLND.     DIRECT     STREAM       STREAM     STREAM     STREAM   STREAMBED  STREAMBED
                SEG.NO.  NO.  STRM. RCH.    AQUIFER    STRM. RCH.    RUNOFF     PRECIP       ET          HEAD       DEPTH      WIDTH   CONDCTNC.   GRADIENT

   1   13    1     1     1    1.0000E+05 -6.9058E+02   1.0069E+05  0.000E+00  0.000E+00  0.000E+00  4.84063E+01  1.450E-01  2.000E+01  2.000E+04 -3.453E-02
   1   13    2     1     2    1.0069E+05 -1.5157E+03   1.0221E+05  0.000E+00  0.000E+00  0.000E+00  4.79300E+01  1.459E-01  2.000E+01  2.000E+04 -7.579E-02
   1   14    3     1     3    1.0221E+05 -2.4552E+02   1.0245E+05  0.000E+00  0.000E+00  0.000E+00  4.74535E+01  1.467E-01  2.000E+01  2.000E+04 -1.228E-02
   1   15    4     1     4    1.0245E+05 -2.1880E+02   1.0267E+05  0.000E+00  0.000E+00  0.000E+00  4.69764E+01  1.469E-01  2.000E+01  2.000E+04 -1.094E-02
   1   16    5     1     5    1.0267E+05 -1.0623E+03   1.0373E+05  0.000E+00  0.000E+00  0.000E+00  4.64997E+01  1.474E-01  2.000E+01  2.000E+04 -5.312E-02
   1   16    6     1     6    1.0373E+05 -6.6121E+02   1.0439E+05  0.000E+00  0.000E+00  0.000E+00  4.60232E+01  1.482E-01  2.000E+01  2.000E+04 -3.306E-02
   1   16    7     1     7    1.0439E+05 -6.2409E+02   1.0502E+05  0.000E+00  0.000E+00  0.000E+00  4.55464E+01  1.487E-01  2.000E+01  2.000E+04 -3.120E-02
   1   16    8     1     8    1.0502E+05 -5.8435E+02   1.0560E+05  0.000E+00  0.000E+00  0.000E+00  4.50697E+01  1.492E-01  2.000E+01  2.000E+04 -2.922E-02
   1   16    9     1     9    1.0560E+05 -5.4939E+02   1.0615E+05  0.000E+00  0.000E+00  0.000E+00  4.45929E+01  1.497E-01  2.000E+01  2.000E+04 -2.747E-02
   1   16   10     1    10    1.0615E+05 -5.7189E+02   1.0672E+05  0.000E+00  0.000E+00  0.000E+00  4.41161E+01  1.502E-01  2.000E+01  2.000E+04 -2.859E-02
   1   16   11     1    11    1.0672E+05 -7.2963E+02   1.0745E+05  0.000E+00  0.000E+00  0.000E+00  4.36394E+01  1.507E-01  2.000E+01  2.000E+04 -3.648E-02
   1   16   12     1    12    1.0745E+05 -1.2425E+03   1.0870E+05  0.000E+00  0.000E+00  0.000E+00  4.31629E+01  1.516E-01  2.000E+01  2.000E+04 -6.213E-02
   1   15   13     1    13    1.0870E+05 -6.8429E+02   1.0938E+05  0.000E+00  0.000E+00  0.000E+00  4.26865E+01  1.524E-01  2.000E+01  2.000E+04 -3.421E-02
   1   14   14     1    14    1.0938E+05 -8.1367E+02   1.1019E+05  0.000E+00  0.000E+00  0.000E+00  4.22098E+01  1.530E-01  2.000E+01  2.000E+04 -4.068E-02
   1   13   15     1    15    1.1019E+05 -1.1580E+03   1.1135E+05  0.000E+00  0.000E+00  0.000E+00  4.17334E+01  1.538E-01  2.000E+01  2.000E+04 -5.790E-02
   1   12   16     1    16    1.1135E+05 -1.7303E+03   1.1308E+05  0.000E+00  0.000E+00  0.000E+00  4.12573E+01  1.550E-01  2.000E+01  2.000E+04 -8.652E-02
   1   12   17     1    17    1.1308E+05 -1.3520E+03   1.1443E+05  0.000E+00  0.000E+00  0.000E+00  4.07813E+01  1.563E-01  2.000E+01  2.000E+04 -6.760E-02
   1   12   18     1    18    1.1443E+05 -1.3429E+03   1.1578E+05  0.000E+00  0.000E+00  0.000E+00  4.03051E+01  1.574E-01  2.000E+01  2.000E+04 -6.714E-02
   1   12   19     1    19    1.1578E+05 -1.7295E+03   1.1751E+05  0.000E+00  0.000E+00  0.000E+00  3.98291E+01  1.586E-01  2.000E+01  2.000E+04 -8.648E-02
   1   13   20     1    20    1.1751E+05 -1.4459E+03   1.1895E+05  0.000E+00  0.000E+00  0.000E+00  3.93531E+01  1.599E-01  2.000E+01  2.000E+04 -7.230E-02
   1   14   21     1    21    1.1895E+05 -1.4476E+03   1.2040E+05  0.000E+00  0.000E+00  0.000E+00  3.88770E+01  1.611E-01  2.000E+01  2.000E+04 -7.238E-02
   1   14   22     1    22    1.2040E+05  4.9236E+03   1.1548E+05  0.000E+00  0.000E+00  0.000E+00  3.83983E+01  1.597E-01  2.000E+01  2.000E+04  2.462E-01
   1    9   30     2     1    5.0000E+04  2.1933E+02   4.9781E+04  0.000E+00  0.000E+00  0.000E+00  4.02407E+01  1.157E-01  2.000E+01  2.000E+04  1.097E-02
   1    9   29     2     2    4.9781E+04  1.1159E+01   4.9770E+04  0.000E+00  0.000E+00  0.000E+00  3.99906E+01  1.156E-01  2.000E+01  2.000E+04  5.580E-04
   1    9   28     2     3    4.9770E+04 -3.3470E+01   4.9803E+04  0.000E+00  0.000E+00  0.000E+00  3.97406E+01  1.156E-01  2.000E+01  2.000E+04 -1.673E-03
   1    9   27     2     4    4.9803E+04 -3.1353E+02   5.0117E+04  0.000E+00  0.000E+00  0.000E+00  3.94908E+01  1.158E-01  2.000E+01  2.000E+04 -1.568E-02
   1   10   26     2     5    5.0117E+04 -4.1783E+02   5.0534E+04  0.000E+00  0.000E+00  0.000E+00  3.92413E+01  1.163E-01  2.000E+01  2.000E+04 -2.089E-02
   1   11   25     2     6    5.0534E+04 -6.6588E+02   5.1200E+04  0.000E+00  0.000E+00  0.000E+00  3.89921E+01  1.171E-01  2.000E+01  2.000E+04 -3.329E-02
   1   12   24     2     7    5.1200E+04 -9.5050E+02   5.2151E+04  0.000E+00  0.000E+00  0.000E+00  3.87432E+01  1.182E-01  2.000E+01  2.000E+04 -4.752E-02
   1   13   23     2     8    5.2151E+04 -1.6414E+02   5.2315E+04  0.000E+00  0.000E+00  0.000E+00  3.84939E+01  1.189E-01  2.000E+01  2.000E+04 -8.207E-03
   1   14   22     2     9    5.2315E+04  1.8130E+03   5.0502E+04  0.000E+00  0.000E+00  0.000E+00  3.82428E+01  1.178E-01  2.000E+01  2.000E+04  9.065E-02
   1   14   22     3     1    1.6598E+05 -8.6281E+03   1.7461E+05  0.000E+00  0.000E+00  0.000E+00  3.77208E+01  1.652E-01  2.000E+01  2.000E+04 -4.314E-01
   1   15   23     3     2    1.7461E+05 -5.0206E+02   1.7511E+05  0.000E+00  0.000E+00  0.000E+00  3.68345E+01  1.678E-01  2.000E+01  2.000E+04 -2.510E-02
   1   15   24     3     3    1.7511E+05 -2.4476E+02   1.7535E+05  0.000E+00  0.000E+00  0.000E+00  3.59458E+01  1.681E-01  2.000E+01  2.000E+04 -1.224E-02
   1   15   25     3     4    1.7535E+05 -2.3593E+02   1.7559E+05  0.000E+00  0.000E+00  0.000E+00  3.50571E+01  1.682E-01  2.000E+01  2.000E+04 -1.180E-02
   1   15   26     3     5    1.7559E+05 -2.8747E+02   1.7588E+05  0.000E+00  0.000E+00  0.000E+00  3.41683E+01  1.683E-01  2.000E+01  2.000E+04 -1.437E-02
   1   16   27     3     6    1.7588E+05 -3.1256E+02   1.7619E+05  0.000E+00  0.000E+00  0.000E+00  3.32796E+01  1.685E-01  2.000E+01  2.000E+04 -1.563E-02
   1   17   28     3     7    1.7619E+05 -1.4125E+03   1.7760E+05  0.000E+00  0.000E+00  0.000E+00  3.23912E+01  1.690E-01  2.000E+01  2.000E+04 -7.063E-02
   1   18   29     3     8    1.7760E+05 -2.7497E+03   1.8035E+05  0.000E+00  0.000E+00  0.000E+00  3.15035E+01  1.702E-01  2.000E+01  2.000E+04 -1.375E-01
   1   18   30     3     9    1.8035E+05 -3.0604E+03   1.8341E+05  0.000E+00  0.000E+00  0.000E+00  3.06163E+01  1.719E-01  2.000E+01  2.000E+04 -1.530E-01



1
              HEAD IN LAYER   1 AT END OF TIME STEP   1 IN STRESS PERIOD    9
  ---------------------------------------------------------------------------

          1      2      3      4      5      6      7      8      9     10
         11     12     13     14     15     16     17     18     19     20
         21     22     23     24     25     26     27     28     29     30
 .........................................................................
   1  ****** ****** ****** ****** ****** ****** ****** ****** ****** ******
      ****** ****** ****** ****** ****** ****** ****** ****** ****** ******
      ****** ****** ****** ****** ****** ****** ****** ****** ****** ******
   2  ****** ****** ****** ****** ****** ****** ****** ****** ****** ******
      ****** ****** ****** ****** ****** ****** ****** ****** ****** ******
      ****** ****** ****** ****** ****** ****** ****** ****** ****** ******
   3  ****** ****** ****** ****** ****** ****** ****** ****** ****** ******
      ****** ****** ****** ****** ****** ****** ****** ****** ****** ******
      ****** ****** ****** ****** ****** ****** ****** ****** ****** ******
   4  ****** ****** ****** ****** ****** ****** ****** ****** ****** ******
      ****** ****** ****** ****** ****** ****** ****** ****** ****** ******
      ****** ****** ****** ****** ****** ****** ****** ****** ****** ******
   5  ****** ****** ****** ****** ****** ****** ****** ****** ****** ******
      ****** ****** ****** ****** ****** ****** ****** ****** ****** ******
      ****** ****** ****** ****** ****** ****** ****** ****** ****** ******
   6  ****** ****** ****** ****** ****** ****** ****** ****** ****** ******
      ****** ****** ****** ****** ****** ****** ****** ****** ****** ******
      ****** ****** ****** ****** ****** ****** ****** ****** ****** ******
   7  ****** ****** ****** ****** ****** ****** ****** ****** ****** ******
      ****** ****** ****** ****** ****** ****** ****** ****** ****** ******
      ****** ****** ****** ****** ****** ****** ****** ****** ****** ******
   8  ****** ****** ****** ****** ****** ****** ****** ****** ****** ******
      ****** ****** ****** ****** ****** ****** ****** ****** ****** ******
      ****** ****** ****** ****** ****** ****** ****** ****** ****** ******
   9  ****** ****** ****** ****** ****** ****** ****** ****** ****** ******
      ****** ****** ****** ****** ****** ****** ****** ****** ****** ******
      ****** ****** ****** ****** ****** ****** ****** ****** ****** ******
  10  ****** ****** ****** ****** ****** ****** ****** ****** ****** ******
      ****** ****** ****** ****** ****** ****** ****** ****** ****** ******
      ****** ****** ****** ****** ****** ****** ****** ****** ****** ******
  11  ****** ****** ****** ****** ****** ****** ****** ****** ****** ******
      ****** ****** ****** ****** ****** ****** ****** ****** ****** ******
      ****** ****** ****** ****** ****** ****** ****** ****** ****** ******
  12  ****** ****** ****** ****** ****** ****** ****** ****** ****** ******
      ****** ****** ****** ****** ****** ****** ****** ****** ****** ******
      ****** ****** ****** ****** ****** ****** ****** ****** ****** ******
  13  ****** ****** ****** ****** ****** ****** ****** ****** ****** ******
      ****** ****** ****** ****** ****** ****** ****** ****** ****** ******
      ****** ****** ****** ****** ****** ****** ****** ****** ****** ******
  14  ****** ****** ****** ****** ****** ****** ****** ****** ****** ******
      ****** ****** ****** ****** ****** ****** ****** ****** ****** ******
      ****** ****** ****** ****** ****** ****** ****** ****** ****** ******
  15  ****** ****** ****** ****** ****** ****** ****** ****** ****** ******
      ****** ****** ****** ****** ****** ****** ****** ****** ****** ******
      ****** ****** ****** ****** ****** ****** ****** ****** ****** ******
  16  ****** ****** ****** ****** ****** ****** ****** ****** ****** ******
      ****** ****** ****** ****** ****** ****** ****** ****** ****** ******
      ****** ****** ****** ****** ****** ****** ****** ****** ****** ******
  17  ****** ****** ****** ****** ****** ****** ****** ****** ****** ******
      ****** ****** ****** ****** ****** ****** ****** ****** ****** ******
      ****** ****** ****** ****** ****** ****** ****** ****** ****** ******
  18  ****** ****** ****** ****** ****** ****** ****** ****** ****** ******
      ****** ****** ****** ****** ****** ****** ****** ****** ****** ******
      ****** ****** ****** ****** ****** ****** ****** ****** ****** ******
  19  ****** ****** ****** ****** ****** ****** ****** ****** ****** ******
      ****** ****** ****** ****** ****** ****** ****** ****** ****** ******
      ****** ****** ****** ****** ****** ****** ****** ****** ****** ******
  20  ****** ****** ****** ****** ****** ****** ****** ****** ****** ******
      ****** ****** ****** ****** ****** ****** ****** ****** ****** ******
      ****** ****** ****** ****** ****** ****** ****** ****** ****** ******
  21  ****** ****** ****** ****** ****** ****** ****** ****** ****** ******
      ****** ****** ****** ****** ****** ****** ****** ****** ****** ******
      ****** ****** ****** ****** ****** ****** ****** ****** ****** ******
  22  ****** ****** ****** ****** ****** ****** ****** ****** ****** ******
      ****** ****** ****** ****** ****** ****** ****** ****** ****** ******
      ****** ****** ****** ****** ****** ****** ****** ****** ****** ******
  23  ****** ****** ****** ****** ****** ****** ****** ****** ****** ******
      ****** ****** ****** ****** ****** ****** ****** ****** ****** ******
      ****** ****** ****** ****** ****** ****** ****** ****** ****** ******
  24  ****** ****** ****** ****** ****** ****** ****** ****** ****** ******
      ****** ****** ****** ****** ****** ****** ****** ****** ****** ******
      ****** ****** ****** ****** ****** ****** ****** ****** ****** ******
  25  ****** ****** ****** ****** ****** ****** ****** ****** ****** ******
      ****** ****** ****** ****** ****** ****** ****** ****** ****** ******
      ****** ****** ****** ****** ****** ****** ****** ****** ****** ******

 HEAD WILL BE SAVED ON UNIT   51 AT END OF TIME STEP    1, STRESS PERIOD    9
1
  VOLUMETRIC BUDGET FOR ENTIRE MODEL AT END OF TIME STEP    1, STRESS PERIOD   9
  ------------------------------------------------------------------------------

     CUMULATIVE VOLUMES      L**3       RATES FOR THIS TIME STEP      L**3/T
     ------------------                 ------------------------

           IN:                                      IN:
           ---                                      ---
             STORAGE =    35657361.2898               STORAGE =        7868.6249
       CONSTANT HEAD =    23756946.8308         CONSTANT HEAD =       36418.7261
               WELLS =           0.0000                 WELLS =           0.0000
            RECHARGE =    18878400.0000              RECHARGE =       13800.0000
      STREAM LEAKAGE =     5079588.4165        STREAM LEAKAGE =        6967.0375

            TOTAL IN =    83372296.5371              TOTAL IN =       65054.3885

          OUT:                                     OUT:
          ----                                     ----
             STORAGE =      832330.5014               STORAGE =           0.0000
       CONSTANT HEAD =           0.0000         CONSTANT HEAD =           0.0000
               WELLS =    20283003.6935                 WELLS =       24675.1870
            RECHARGE =           0.0000              RECHARGE =           0.0000
      STREAM LEAKAGE =    62256964.4207        STREAM LEAKAGE =       40379.2024

           TOTAL OUT =    83372298.6156             TOTAL OUT =       65054.3894

            IN - OUT =          -2.0785              IN - OUT =      -8.3668E-04

 PERCENT DISCREPANCY =          -0.00     PERCENT DISCREPANCY =          -0.00






         TIME SUMMARY AT END OF TIME STEP    1 IN STRESS PERIOD    9
                    SECONDS     MINUTES      HOURS       DAYS        YEARS
                    -----------------------------------------------------------
   TIME STEP LENGTH 7.94880E+06 1.32480E+05  2208.0      92.000     0.25188    
 STRESS PERIOD TIME 7.94880E+06 1.32480E+05  2208.0      92.000     0.25188    
         TOTAL TIME 7.10208E+07 1.18368E+06  19728.      822.00      2.2505    
1
1
                            STRESS PERIOD NO.   10, LENGTH =   91.00000    
                            -----------------------------------------------

                              NUMBER OF TIME STEPS =     1

                               MULTIPLIER FOR DELT =     1.500

                            INITIAL TIME STEP SIZE =   91.00000    

 WELL NO.  LAYER   ROW   COL   STRESS RATE         
 --------------------------------------------------
      1      1      6     26      -9457.    
      2      1     23      4      -2056.    
      3      1     12     10      -6573.    
      4      1      4      5      -6588.    

      4 WELLS

                 RECHARGE =  2.000000E-03

 REUSING STREAM SEGMENT DATA FROM LAST STRESS PERIOD
 
 SOLVING FOR HEAD 


     7 CALLS TO PCG ROUTINE FOR TIME STEP   1 IN STRESS PERIOD   10
    26 TOTAL ITERATIONS

 OUTPUT CONTROL FOR STRESS PERIOD   10   TIME STEP    1
    SAVE BUDGET
    SAVE HEAD FOR ALL LAYERS
    PRINT HEAD FOR ALL LAYERS
 UBDSV2 SAVING "STREAMFLOW OUT  " ON UNIT  50 AT TIME STEP  1, STRESS PERIOD  10



 STREAM LISTING     PERIOD     10   STEP        1

 LAYER ROW COL. STREAM  RCH.  FLOW INTO     FLOW TO   FLOW OUT OF   OVRLND.     DIRECT     STREAM       STREAM     STREAM     STREAM   STREAMBED  STREAMBED
                SEG.NO.  NO.  STRM. RCH.    AQUIFER    STRM. RCH.    RUNOFF     PRECIP       ET          HEAD       DEPTH      WIDTH   CONDCTNC.   GRADIENT

   1   13    1     1     1    1.0000E+05 -1.1264E+03   1.0113E+05  0.000E+00  0.000E+00  0.000E+00  4.84065E+01  1.451E-01  2.000E+01  2.000E+04 -5.632E-02
   1   13    2     1     2    1.0113E+05 -1.9971E+03   1.0312E+05  0.000E+00  0.000E+00  0.000E+00  4.79306E+01  1.465E-01  2.000E+01  2.000E+04 -9.985E-02
   1   14    3     1     3    1.0312E+05 -4.2852E+02   1.0355E+05  0.000E+00  0.000E+00  0.000E+00  4.74543E+01  1.475E-01  2.000E+01  2.000E+04 -2.143E-02
   1   15    4     1     4    1.0355E+05 -4.1527E+02   1.0397E+05  0.000E+00  0.000E+00  0.000E+00  4.69774E+01  1.479E-01  2.000E+01  2.000E+04 -2.076E-02
   1   16    5     1     5    1.0397E+05 -1.6794E+03   1.0565E+05  0.000E+00  0.000E+00  0.000E+00  4.65011E+01  1.488E-01  2.000E+01  2.000E+04 -8.397E-02
   1   16    6     1     6    1.0565E+05 -1.0208E+03   1.0667E+05  0.000E+00  0.000E+00  0.000E+00  4.60249E+01  1.499E-01  2.000E+01  2.000E+04 -5.104E-02
   1   16    7     1     7    1.0667E+05 -9.6557E+02   1.0763E+05  0.000E+00  0.000E+00  0.000E+00  4.55485E+01  1.508E-01  2.000E+01  2.000E+04 -4.828E-02
   1   16    8     1     8    1.0763E+05 -9.2046E+02   1.0855E+05  0.000E+00  0.000E+00  0.000E+00  4.50720E+01  1.516E-01  2.000E+01  2.000E+04 -4.602E-02
   1   16    9     1     9    1.0855E+05 -8.8440E+02   1.0944E+05  0.000E+00  0.000E+00  0.000E+00  4.45955E+01  1.523E-01  2.000E+01  2.000E+04 -4.422E-02
   1   16   10     1    10    1.0944E+05 -9.0778E+02   1.1035E+05  0.000E+00  0.000E+00  0.000E+00  4.41190E+01  1.531E-01  2.000E+01  2.000E+04 -4.539E-02
   1   16   11     1    11    1.1035E+05 -1.0699E+03   1.1142E+05  0.000E+00  0.000E+00  0.000E+00  4.36425E+01  1.539E-01  2.000E+01  2.000E+04 -5.349E-02
   1   16   12     1    12    1.1142E+05 -1.8100E+03   1.1323E+05  0.000E+00  0.000E+00  0.000E+00  4.31665E+01  1.551E-01  2.000E+01  2.000E+04 -9.050E-02
   1   15   13     1    13    1.1323E+05 -1.2649E+03   1.1449E+05  0.000E+00  0.000E+00  0.000E+00  4.26905E+01  1.564E-01  2.000E+01  2.000E+04 -6.325E-02
   1   14   14     1    14    1.1449E+05 -1.3991E+03   1.1589E+05  0.000E+00  0.000E+00  0.000E+00  4.22143E+01  1.575E-01  2.000E+01  2.000E+04 -6.996E-02
   1   13   15     1    15    1.1589E+05 -1.7317E+03   1.1762E+05  0.000E+00  0.000E+00  0.000E+00  4.17383E+01  1.587E-01  2.000E+01  2.000E+04 -8.659E-02
   1   12   16     1    16    1.1762E+05 -2.2793E+03   1.1990E+05  0.000E+00  0.000E+00  0.000E+00  4.12626E+01  1.604E-01  2.000E+01  2.000E+04 -1.140E-01
   1   12   17     1    17    1.1990E+05 -1.7714E+03   1.2167E+05  0.000E+00  0.000E+00  0.000E+00  4.07870E+01  1.620E-01  2.000E+01  2.000E+04 -8.857E-02
   1   12   18     1    18    1.2167E+05 -1.7594E+03   1.2343E+05  0.000E+00  0.000E+00  0.000E+00  4.03112E+01  1.634E-01  2.000E+01  2.000E+04 -8.797E-02
   1   12   19     1    19    1.2343E+05 -2.2425E+03   1.2567E+05  0.000E+00  0.000E+00  0.000E+00  3.98355E+01  1.650E-01  2.000E+01  2.000E+04 -1.121E-01
   1   13   20     1    20    1.2567E+05 -1.9653E+03   1.2764E+05  0.000E+00  0.000E+00  0.000E+00  3.93599E+01  1.667E-01  2.000E+01  2.000E+04 -9.826E-02
   1   14   21     1    21    1.2764E+05 -1.9728E+03   1.2961E+05  0.000E+00  0.000E+00  0.000E+00  3.88841E+01  1.682E-01  2.000E+01  2.000E+04 -9.864E-02
   1   14   22     1    22    1.2961E+05  4.7952E+03   1.2482E+05  0.000E+00  0.000E+00  0.000E+00  3.84058E+01  1.671E-01  2.000E+01  2.000E+04  2.398E-01
   1    9   30     2     1    5.0000E+04 -1.9383E+02   5.0194E+04  0.000E+00  0.000E+00  0.000E+00  4.02410E+01  1.160E-01  2.000E+01  2.000E+04 -9.692E-03
   1    9   29     2     2    5.0194E+04 -3.9961E+02   5.0593E+04  0.000E+00  0.000E+00  0.000E+00  3.99914E+01  1.164E-01  2.000E+01  2.000E+04 -1.998E-02
   1    9   28     2     3    5.0593E+04 -4.4316E+02   5.1037E+04  0.000E+00  0.000E+00  0.000E+00  3.97420E+01  1.170E-01  2.000E+01  2.000E+04 -2.216E-02
   1    9   27     2     4    5.1037E+04 -8.6328E+02   5.1900E+04  0.000E+00  0.000E+00  0.000E+00  3.94929E+01  1.179E-01  2.000E+01  2.000E+04 -4.316E-02
   1   10   26     2     5    5.1900E+04 -9.6797E+02   5.2868E+04  0.000E+00  0.000E+00  0.000E+00  3.92441E+01  1.191E-01  2.000E+01  2.000E+04 -4.840E-02
   1   11   25     2     6    5.2868E+04 -1.1916E+03   5.4059E+04  0.000E+00  0.000E+00  0.000E+00  3.89956E+01  1.206E-01  2.000E+01  2.000E+04 -5.958E-02
   1   12   24     2     7    5.4059E+04 -1.4260E+03   5.5485E+04  0.000E+00  0.000E+00  0.000E+00  3.87474E+01  1.224E-01  2.000E+01  2.000E+04 -7.130E-02
   1   13   23     2     8    5.5485E+04 -3.1239E+02   5.5798E+04  0.000E+00  0.000E+00  0.000E+00  3.84985E+01  1.235E-01  2.000E+01  2.000E+04 -1.562E-02
   1   14   22     2     9    5.5798E+04  1.6332E+03   5.4165E+04  0.000E+00  0.000E+00  0.000E+00  3.82477E+01  1.227E-01  2.000E+01  2.000E+04  8.166E-02
   1   14   22     3     1    1.7898E+05 -8.7550E+03   1.8774E+05  0.000E+00  0.000E+00  0.000E+00  3.77283E+01  1.727E-01  2.000E+01  2.000E+04 -4.377E-01
   1   15   23     3     2    1.8774E+05 -6.6482E+02   1.8840E+05  0.000E+00  0.000E+00  0.000E+00  3.68420E+01  1.753E-01  2.000E+01  2.000E+04 -3.324E-02
   1   15   24     3     3    1.8840E+05 -3.8207E+02   1.8878E+05  0.000E+00  0.000E+00  0.000E+00  3.59534E+01  1.756E-01  2.000E+01  2.000E+04 -1.910E-02
   1   15   25     3     4    1.8878E+05 -3.7665E+02   1.8916E+05  0.000E+00  0.000E+00  0.000E+00  3.50647E+01  1.758E-01  2.000E+01  2.000E+04 -1.883E-02
   1   15   26     3     5    1.8916E+05 -4.4980E+02   1.8961E+05  0.000E+00  0.000E+00  0.000E+00  3.41761E+01  1.761E-01  2.000E+01  2.000E+04 -2.249E-02
   1   16   27     3     6    1.8961E+05 -4.9858E+02   1.9011E+05  0.000E+00  0.000E+00  0.000E+00  3.32875E+01  1.763E-01  2.000E+01  2.000E+04 -2.493E-02
   1   17   28     3     7    1.9011E+05 -1.9337E+03   1.9204E+05  0.000E+00  0.000E+00  0.000E+00  3.23992E+01  1.770E-01  2.000E+01  2.000E+04 -9.669E-02
   1   18   29     3     8    1.9204E+05 -3.3023E+03   1.9534E+05  0.000E+00  0.000E+00  0.000E+00  3.15118E+01  1.785E-01  2.000E+01  2.000E+04 -1.651E-01
   1   18   30     3     9    1.9534E+05 -3.4865E+03   1.9883E+05  0.000E+00  0.000E+00  0.000E+00  3.06248E+01  1.803E-01  2.000E+01  2.000E+04 -1.743E-01



1
              HEAD IN LAYER   1 AT END OF TIME STEP   1 IN STRESS PERIOD   10
  ---------------------------------------------------------------------------

          1      2      3      4      5      6      7      8      9     10
         11     12     13     14     15     16     17     18     19     20
         21     22     23     24     25     26     27     28     29     30
 .........................................................................
   1  ****** ****** ****** ****** ****** ****** ****** ****** ****** ******
      ****** ****** ****** ****** ****** ****** ****** ****** ****** ******
      ****** ****** ****** ****** ****** ****** ****** ****** ****** ******
   2  ****** ****** ****** ****** ****** ****** ****** ****** ****** ******
      ****** ****** ****** ****** ****** ****** ****** ****** ****** ******
      ****** ****** ****** ****** ****** ****** ****** ****** ****** ******
   3  ****** ****** ****** ****** ****** ****** ****** ****** ****** ******
      ****** ****** ****** ****** ****** ****** ****** ****** ****** ******
      ****** ****** ****** ****** ****** ****** ****** ****** ****** ******
   4  ****** ****** ****** ****** ****** ****** ****** ****** ****** ******
      ****** ****** ****** ****** ****** ****** ****** ****** ****** ******
      ****** ****** ****** ****** ****** ****** ****** ****** ****** ******
   5  ****** ****** ****** ****** ****** ****** ****** ****** ****** ******
      ****** ****** ****** ****** ****** ****** ****** ****** ****** ******
      ****** ****** ****** ****** ****** ****** ****** ****** ****** ******
   6  ****** ****** ****** ****** ****** ****** ****** ****** ****** ******
      ****** ****** ****** ****** ****** ****** ****** ****** ****** ******
      ****** ****** ****** ****** ****** ****** ****** ****** ****** ******
   7  ****** ****** ****** ****** ****** ****** ****** ****** ****** ******
      ****** ****** ****** ****** ****** ****** ****** ****** ****** ******
      ****** ****** ****** ****** ****** ****** ****** ****** ****** ******
   8  ****** ****** ****** ****** ****** ****** ****** ****** ****** ******
      ****** ****** ****** ****** ****** ****** ****** ****** ****** ******
      ****** ****** ****** ****** ****** ****** ****** ****** ****** ******
   9  ****** ****** ****** ****** ****** ****** ****** ****** ****** ******
      ****** ****** ****** ****** ****** ****** ****** ****** ****** ******
      ****** ****** ****** ****** ****** ****** ****** ****** ****** ******
  10  ****** ****** ****** ****** ****** ****** ****** ****** ****** ******
      ****** ****** ****** ****** ****** ****** ****** ****** ****** ******
      ****** ****** ****** ****** ****** ****** ****** ****** ****** ******
  11  ****** ****** ****** ****** ****** ****** ****** ****** ****** ******
      ****** ****** ****** ****** ****** ****** ****** ****** ****** ******
      ****** ****** ****** ****** ****** ****** ****** ****** ****** ******
  12  ****** ****** ****** ****** ****** ****** ****** ****** ****** ******
      ****** ****** ****** ****** ****** ****** ****** ****** ****** ******
      ****** ****** ****** ****** ****** ****** ****** ****** ****** ******
  13  ****** ****** ****** ****** ****** ****** ****** ****** ****** ******
      ****** ****** ****** ****** ****** ****** ****** ****** ****** ******
      ****** ****** ****** ****** ****** ****** ****** ****** ****** ******
  14  ****** ****** ****** ****** ****** ****** ****** ****** ****** ******
      ****** ****** ****** ****** ****** ****** ****** ****** ****** ******
      ****** ****** ****** ****** ****** ****** ****** ****** ****** ******
  15  ****** ****** ****** ****** ****** ****** ****** ****** ****** ******
      ****** ****** ****** ****** ****** ****** ****** ****** ****** ******
      ****** ****** ****** ****** ****** ****** ****** ****** ****** ******
  16  ****** ****** ****** ****** ****** ****** ****** ****** ****** ******
      ****** ****** ****** ****** ****** ****** ****** ****** ****** ******
      ****** ****** ****** ****** ****** ****** ****** ****** ****** ******
  17  ****** ****** ****** ****** ****** ****** ****** ****** ****** ******
      ****** ****** ****** ****** ****** ****** ****** ****** ****** ******
      ****** ****** ****** ****** ****** ****** ****** ****** ****** ******
  18  ****** ****** ****** ****** ****** ****** ****** ****** ****** ******
      ****** ****** ****** ****** ****** ****** ****** ****** ****** ******
      ****** ****** ****** ****** ****** ****** ****** ****** ****** ******
  19  ****** ****** ****** ****** ****** ****** ****** ****** ****** ******
      ****** ****** ****** ****** ****** ****** ****** ****** ****** ******
      ****** ****** ****** ****** ****** ****** ****** ****** ****** ******
  20  ****** ****** ****** ****** ****** ****** ****** ****** ****** ******
      ****** ****** ****** ****** ****** ****** ****** ****** ****** ******
      ****** ****** ****** ****** ****** ****** ****** ****** ****** ******
  21  ****** ****** ****** ****** ****** ****** ****** ****** ****** ******
      ****** ****** ****** ****** ****** ****** ****** ****** ****** ******
      ****** ****** ****** ****** ****** ****** ****** ****** ****** ******
  22  ****** ****** ****** ****** ****** ****** ****** ****** ****** ******
      ****** ****** ****** ****** ****** ****** ****** ****** ****** ******
      ****** ****** ****** ****** ****** ****** ****** ****** ****** ******
  23  ****** ****** ****** ****** ****** ****** ****** ****** ****** ******
      ****** ****** ****** ****** ****** ****** ****** ****** ****** ******
      ****** ****** ****** ****** ****** ****** ****** ****** ****** ******
  24  ****** ****** ****** ****** ****** ****** ****** ****** ****** ******
      ****** ****** ****** ****** ****** ****** ****** ****** ****** ******
      ****** ****** ****** ****** ****** ****** ****** ****** ****** ******
  25  ****** ****** ****** ****** ****** ****** ****** ****** ****** ******
      ****** ****** ****** ****** ****** ****** ****** ****** ****** ******
      ****** ****** ****** ****** ****** ****** ****** ****** ****** ******

 HEAD WILL BE SAVED ON UNIT   51 AT END OF TIME STEP    1, STRESS PERIOD   10
1
  VOLUMETRIC BUDGET FOR ENTIRE MODEL AT END OF TIME STEP    1, STRESS PERIOD  10
  ------------------------------------------------------------------------------

     CUMULATIVE VOLUMES      L**3       RATES FOR THIS TIME STEP      L**3/T
     ------------------                 ------------------------

           IN:                                      IN:
           ---                                      ---
             STORAGE =    35657361.2898               STORAGE =           0.0000
       CONSTANT HEAD =    26806747.8909         CONSTANT HEAD =       33514.2974
               WELLS =           0.0000                 WELLS =           0.0000
            RECHARGE =    23901600.0000              RECHARGE =       55200.0000
      STREAM LEAKAGE =     5664574.3237        STREAM LEAKAGE =        6428.4166

            TOTAL IN =    92030283.5044              TOTAL IN =       95142.7139

          OUT:                                     OUT:
          ----                                     ----
             STORAGE =     2216294.5063               STORAGE =       15208.3957
       CONSTANT HEAD =           0.0000         CONSTANT HEAD =           0.0000
               WELLS =    22528445.7082                 WELLS =       24675.1870
            RECHARGE =           0.0000              RECHARGE =           0.0000
      STREAM LEAKAGE =    67285545.0385        STREAM LEAKAGE =       55259.1277

           TOTAL OUT =    92030285.2529             TOTAL OUT =       95142.7103

            IN - OUT =          -1.7485              IN - OUT =       3.6255E-03

 PERCENT DISCREPANCY =          -0.00     PERCENT DISCREPANCY =           0.00






         TIME SUMMARY AT END OF TIME STEP    1 IN STRESS PERIOD   10
                    SECONDS     MINUTES      HOURS       DAYS        YEARS
                    -----------------------------------------------------------
   TIME STEP LENGTH 7.86240E+06 1.31040E+05  2184.0      91.000     0.24914    
 STRESS PERIOD TIME 7.86240E+06 1.31040E+05  2184.0      91.000     0.24914    
         TOTAL TIME 7.88832E+07 1.31472E+06  21912.      913.00      2.4997    
1
1
                            STRESS PERIOD NO.   11, LENGTH =   91.00000    
                            -----------------------------------------------

                              NUMBER OF TIME STEPS =     1

                               MULTIPLIER FOR DELT =     1.500

                            INITIAL TIME STEP SIZE =   91.00000    

 WELL NO.  LAYER   ROW   COL   STRESS RATE         
 --------------------------------------------------
      1      1      6     26      -9457.    
      2      1     23      4      -2056.    
      3      1     12     10      -6573.    
      4      1      4      5      -6588.    

      4 WELLS

                 RECHARGE =   0.00000    

 REUSING STREAM SEGMENT DATA FROM LAST STRESS PERIOD
 
 SOLVING FOR HEAD 


     7 CALLS TO PCG ROUTINE FOR TIME STEP   1 IN STRESS PERIOD   11
    26 TOTAL ITERATIONS

 OUTPUT CONTROL FOR STRESS PERIOD   11   TIME STEP    1
    SAVE BUDGET
    SAVE HEAD FOR ALL LAYERS
    PRINT HEAD FOR ALL LAYERS
 UBDSV2 SAVING "STREAMFLOW OUT  " ON UNIT  50 AT TIME STEP  1, STRESS PERIOD  11



 STREAM LISTING     PERIOD     11   STEP        1

 LAYER ROW COL. STREAM  RCH.  FLOW INTO     FLOW TO   FLOW OUT OF   OVRLND.     DIRECT     STREAM       STREAM     STREAM     STREAM   STREAMBED  STREAMBED
                SEG.NO.  NO.  STRM. RCH.    AQUIFER    STRM. RCH.    RUNOFF     PRECIP       ET          HEAD       DEPTH      WIDTH   CONDCTNC.   GRADIENT

   1   13    1     1     1    1.0000E+05 -5.4657E+02   1.0055E+05  0.000E+00  0.000E+00  0.000E+00  4.84063E+01  1.449E-01  2.000E+01  2.000E+04 -2.733E-02
   1   13    2     1     2    1.0055E+05 -1.3503E+03   1.0190E+05  0.000E+00  0.000E+00  0.000E+00  4.79298E+01  1.457E-01  2.000E+01  2.000E+04 -6.752E-02
   1   14    3     1     3    1.0190E+05 -1.9510E+02   1.0209E+05  0.000E+00  0.000E+00  0.000E+00  4.74532E+01  1.464E-01  2.000E+01  2.000E+04 -9.755E-03
   1   15    4     1     4    1.0209E+05 -1.7126E+02   1.0226E+05  0.000E+00  0.000E+00  0.000E+00  4.69761E+01  1.465E-01  2.000E+01  2.000E+04 -8.563E-03
   1   16    5     1     5    1.0226E+05 -9.9025E+02   1.0325E+05  0.000E+00  0.000E+00  0.000E+00  4.64993E+01  1.470E-01  2.000E+01  2.000E+04 -4.951E-02
   1   16    6     1     6    1.0325E+05 -6.0461E+02   1.0386E+05  0.000E+00  0.000E+00  0.000E+00  4.60227E+01  1.477E-01  2.000E+01  2.000E+04 -3.023E-02
   1   16    7     1     7    1.0386E+05 -5.6681E+02   1.0442E+05  0.000E+00  0.000E+00  0.000E+00  4.55459E+01  1.482E-01  2.000E+01  2.000E+04 -2.834E-02
   1   16    8     1     8    1.0442E+05 -5.2728E+02   1.0495E+05  0.000E+00  0.000E+00  0.000E+00  4.50691E+01  1.487E-01  2.000E+01  2.000E+04 -2.636E-02
   1   16    9     1     9    1.0495E+05 -4.9373E+02   1.0545E+05  0.000E+00  0.000E+00  0.000E+00  4.45923E+01  1.491E-01  2.000E+01  2.000E+04 -2.469E-02
   1   16   10     1    10    1.0545E+05 -5.1868E+02   1.0596E+05  0.000E+00  0.000E+00  0.000E+00  4.41155E+01  1.495E-01  2.000E+01  2.000E+04 -2.593E-02
   1   16   11     1    11    1.0596E+05 -6.7958E+02   1.0664E+05  0.000E+00  0.000E+00  0.000E+00  4.36387E+01  1.501E-01  2.000E+01  2.000E+04 -3.398E-02
   1   16   12     1    12    1.0664E+05 -1.1629E+03   1.0781E+05  0.000E+00  0.000E+00  0.000E+00  4.31622E+01  1.508E-01  2.000E+01  2.000E+04 -5.814E-02
   1   15   13     1    13    1.0781E+05 -5.7216E+02   1.0838E+05  0.000E+00  0.000E+00  0.000E+00  4.26857E+01  1.516E-01  2.000E+01  2.000E+04 -2.861E-02
   1   14   14     1    14    1.0838E+05 -6.8694E+02   1.0907E+05  0.000E+00  0.000E+00  0.000E+00  4.22089E+01  1.521E-01  2.000E+01  2.000E+04 -3.435E-02
   1   13   15     1    15    1.0907E+05 -1.0238E+03   1.1009E+05  0.000E+00  0.000E+00  0.000E+00  4.17324E+01  1.528E-01  2.000E+01  2.000E+04 -5.119E-02
   1   12   16     1    16    1.1009E+05 -1.5926E+03   1.1168E+05  0.000E+00  0.000E+00  0.000E+00  4.12562E+01  1.539E-01  2.000E+01  2.000E+04 -7.963E-02
   1   12   17     1    17    1.1168E+05 -1.2602E+03   1.1294E+05  0.000E+00  0.000E+00  0.000E+00  4.07801E+01  1.551E-01  2.000E+01  2.000E+04 -6.301E-02
   1   12   18     1    18    1.1294E+05 -1.2567E+03   1.1420E+05  0.000E+00  0.000E+00  0.000E+00  4.03039E+01  1.561E-01  2.000E+01  2.000E+04 -6.284E-02
   1   12   19     1    19    1.1420E+05 -1.6257E+03   1.1583E+05  0.000E+00  0.000E+00  0.000E+00  3.98278E+01  1.573E-01  2.000E+01  2.000E+04 -8.129E-02
   1   13   20     1    20    1.1583E+05 -1.3515E+03   1.1718E+05  0.000E+00  0.000E+00  0.000E+00  3.93517E+01  1.585E-01  2.000E+01  2.000E+04 -6.757E-02
   1   14   21     1    21    1.1718E+05 -1.3758E+03   1.1855E+05  0.000E+00  0.000E+00  0.000E+00  3.88756E+01  1.596E-01  2.000E+01  2.000E+04 -6.879E-02
   1   14   22     1    22    1.1855E+05  4.9426E+03   1.1361E+05  0.000E+00  0.000E+00  0.000E+00  3.83968E+01  1.582E-01  2.000E+01  2.000E+04  2.471E-01
   1    9   30     2     1    5.0000E+04  2.9496E+02   4.9705E+04  0.000E+00  0.000E+00  0.000E+00  4.02407E+01  1.157E-01  2.000E+01  2.000E+04  1.475E-02
   1    9   29     2     2    4.9705E+04  8.6206E+01   4.9619E+04  0.000E+00  0.000E+00  0.000E+00  3.99904E+01  1.154E-01  2.000E+01  2.000E+04  4.310E-03
   1    9   28     2     3    4.9619E+04  4.0658E+01   4.9578E+04  0.000E+00  0.000E+00  0.000E+00  3.97403E+01  1.153E-01  2.000E+01  2.000E+04  2.033E-03
   1    9   27     2     4    4.9578E+04 -2.2133E+02   4.9800E+04  0.000E+00  0.000E+00  0.000E+00  3.94904E+01  1.154E-01  2.000E+01  2.000E+04 -1.107E-02
   1   10   26     2     5    4.9800E+04 -3.1189E+02   5.0111E+04  0.000E+00  0.000E+00  0.000E+00  3.92408E+01  1.158E-01  2.000E+01  2.000E+04 -1.559E-02
   1   11   25     2     6    5.0111E+04 -5.5937E+02   5.0671E+04  0.000E+00  0.000E+00  0.000E+00  3.89914E+01  1.164E-01  2.000E+01  2.000E+04 -2.797E-02
   1   12   24     2     7    5.0671E+04 -8.5073E+02   5.1521E+04  0.000E+00  0.000E+00  0.000E+00  3.87424E+01  1.174E-01  2.000E+01  2.000E+04 -4.254E-02
   1   13   23     2     8    5.1521E+04 -1.2624E+02   5.1648E+04  0.000E+00  0.000E+00  0.000E+00  3.84931E+01  1.181E-01  2.000E+01  2.000E+04 -6.312E-03
   1   14   22     2     9    5.1648E+04  1.8435E+03   4.9804E+04  0.000E+00  0.000E+00  0.000E+00  3.82419E+01  1.169E-01  2.000E+01  2.000E+04  9.217E-02
   1   14   22     3     1    1.6341E+05 -8.6089E+03   1.7202E+05  0.000E+00  0.000E+00  0.000E+00  3.77193E+01  1.637E-01  2.000E+01  2.000E+04 -4.304E-01
   1   15   23     3     2    1.7202E+05 -4.7291E+02   1.7250E+05  0.000E+00  0.000E+00  0.000E+00  3.68330E+01  1.663E-01  2.000E+01  2.000E+04 -2.365E-02
   1   15   24     3     3    1.7250E+05 -2.1703E+02   1.7271E+05  0.000E+00  0.000E+00  0.000E+00  3.59443E+01  1.665E-01  2.000E+01  2.000E+04 -1.085E-02
   1   15   25     3     4    1.7271E+05 -2.0776E+02   1.7292E+05  0.000E+00  0.000E+00  0.000E+00  3.50556E+01  1.667E-01  2.000E+01  2.000E+04 -1.039E-02
   1   15   26     3     5    1.7292E+05 -2.5416E+02   1.7317E+05  0.000E+00  0.000E+00  0.000E+00  3.41668E+01  1.668E-01  2.000E+01  2.000E+04 -1.271E-02
   1   16   27     3     6    1.7317E+05 -2.7566E+02   1.7345E+05  0.000E+00  0.000E+00  0.000E+00  3.32781E+01  1.670E-01  2.000E+01  2.000E+04 -1.378E-02
   1   17   28     3     7    1.7345E+05 -1.3243E+03   1.7477E+05  0.000E+00  0.000E+00  0.000E+00  3.23896E+01  1.674E-01  2.000E+01  2.000E+04 -6.621E-02
   1   18   29     3     8    1.7477E+05 -2.6811E+03   1.7746E+05  0.000E+00  0.000E+00  0.000E+00  3.15019E+01  1.686E-01  2.000E+01  2.000E+04 -1.341E-01
   1   18   30     3     9    1.7746E+05 -2.9977E+03   1.8045E+05  0.000E+00  0.000E+00  0.000E+00  3.06146E+01  1.702E-01  2.000E+01  2.000E+04 -1.499E-01



1
              HEAD IN LAYER   1 AT END OF TIME STEP   1 IN STRESS PERIOD   11
  ---------------------------------------------------------------------------

          1      2      3      4      5      6      7      8      9     10
         11     12     13     14     15     16     17     18     19     20
         21     22     23     24     25     26     27     28     29     30
 .........................................................................
   1  ****** ****** ****** ****** ****** ****** ****** ****** ****** ******
      ****** ****** ****** ****** ****** ****** ****** ****** ****** ******
      ****** ****** ****** ****** ****** ****** ****** ****** ****** ******
   2  ****** ****** ****** ****** ****** ****** ****** ****** ****** ******
      ****** ****** ****** ****** ****** ****** ****** ****** ****** ******
      ****** ****** ****** ****** ****** ****** ****** ****** ****** ******
   3  ****** ****** ****** ****** ****** ****** ****** ****** ****** ******
      ****** ****** ****** ****** ****** ****** ****** ****** ****** ******
      ****** ****** ****** ****** ****** ****** ****** ****** ****** ******
   4  ****** ****** ****** ****** ****** ****** ****** ****** ****** ******
      ****** ****** ****** ****** ****** ****** ****** ****** ****** ******
      ****** ****** ****** ****** ****** ****** ****** ****** ****** ******
   5  ****** ****** ****** ****** ****** ****** ****** ****** ****** ******
      ****** ****** ****** ****** ****** ****** ****** ****** ****** ******
      ****** ****** ****** ****** ****** ****** ****** ****** ****** ******
   6  ****** ****** ****** ****** ****** ****** ****** ****** ****** ******
      ****** ****** ****** ****** ****** ****** ****** ****** ****** ******
      ****** ****** ****** ****** ****** ****** ****** ****** ****** ******
   7  ****** ****** ****** ****** ****** ****** ****** ****** ****** ******
      ****** ****** ****** ****** ****** ****** ****** ****** ****** ******
      ****** ****** ****** ****** ****** ****** ****** ****** ****** ******
   8  ****** ****** ****** ****** ****** ****** ****** ****** ****** ******
      ****** ****** ****** ****** ****** ****** ****** ****** ****** ******
      ****** ****** ****** ****** ****** ****** ****** ****** ****** ******
   9  ****** ****** ****** ****** ****** ****** ****** ****** ****** ******
      ****** ****** ****** ****** ****** ****** ****** ****** ****** ******
      ****** ****** ****** ****** ****** ****** ****** ****** ****** ******
  10  ****** ****** ****** ****** ****** ****** ****** ****** ****** ******
      ****** ****** ****** ****** ****** ****** ****** ****** ****** ******
      ****** ****** ****** ****** ****** ****** ****** ****** ****** ******
  11  ****** ****** ****** ****** ****** ****** ****** ****** ****** ******
      ****** ****** ****** ****** ****** ****** ****** ****** ****** ******
      ****** ****** ****** ****** ****** ****** ****** ****** ****** ******
  12  ****** ****** ****** ****** ****** ****** ****** ****** ****** ******
      ****** ****** ****** ****** ****** ****** ****** ****** ****** ******
      ****** ****** ****** ****** ****** ****** ****** ****** ****** ******
  13  ****** ****** ****** ****** ****** ****** ****** ****** ****** ******
      ****** ****** ****** ****** ****** ****** ****** ****** ****** ******
      ****** ****** ****** ****** ****** ****** ****** ****** ****** ******
  14  ****** ****** ****** ****** ****** ****** ****** ****** ****** ******
      ****** ****** ****** ****** ****** ****** ****** ****** ****** ******
      ****** ****** ****** ****** ****** ****** ****** ****** ****** ******
  15  ****** ****** ****** ****** ****** ****** ****** ****** ****** ******
      ****** ****** ****** ****** ****** ****** ****** ****** ****** ******
      ****** ****** ****** ****** ****** ****** ****** ****** ****** ******
  16  ****** ****** ****** ****** ****** ****** ****** ****** ****** ******
      ****** ****** ****** ****** ****** ****** ****** ****** ****** ******
      ****** ****** ****** ****** ****** ****** ****** ****** ****** ******
  17  ****** ****** ****** ****** ****** ****** ****** ****** ****** ******
      ****** ****** ****** ****** ****** ****** ****** ****** ****** ******
      ****** ****** ****** ****** ****** ****** ****** ****** ****** ******
  18  ****** ****** ****** ****** ****** ****** ****** ****** ****** ******
      ****** ****** ****** ****** ****** ****** ****** ****** ****** ******
      ****** ****** ****** ****** ****** ****** ****** ****** ****** ******
  19  ****** ****** ****** ****** ****** ****** ****** ****** ****** ******
      ****** ****** ****** ****** ****** ****** ****** ****** ****** ******
      ****** ****** ****** ****** ****** ****** ****** ****** ****** ******
  20  ****** ****** ****** ****** ****** ****** ****** ****** ****** ******
      ****** ****** ****** ****** ****** ****** ****** ****** ****** ******
      ****** ****** ****** ****** ****** ****** ****** ****** ****** ******
  21  ****** ****** ****** ****** ****** ****** ****** ****** ****** ******
      ****** ****** ****** ****** ****** ****** ****** ****** ****** ******
      ****** ****** ****** ****** ****** ****** ****** ****** ****** ******
  22  ****** ****** ****** ****** ****** ****** ****** ****** ****** ******
      ****** ****** ****** ****** ****** ****** ****** ****** ****** ******
      ****** ****** ****** ****** ****** ****** ****** ****** ****** ******
  23  ****** ****** ****** ****** ****** ****** ****** ****** ****** ******
      ****** ****** ****** ****** ****** ****** ****** ****** ****** ******
      ****** ****** ****** ****** ****** ****** ****** ****** ****** ******
  24  ****** ****** ****** ****** ****** ****** ****** ****** ****** ******
      ****** ****** ****** ****** ****** ****** ****** ****** ****** ******
      ****** ****** ****** ****** ****** ****** ****** ****** ****** ******
  25  ****** ****** ****** ****** ****** ****** ****** ****** ****** ******
      ****** ****** ****** ****** ****** ****** ****** ****** ****** ******
      ****** ****** ****** ****** ****** ****** ****** ****** ****** ******

 HEAD WILL BE SAVED ON UNIT   51 AT END OF TIME STEP    1, STRESS PERIOD   11
1
  VOLUMETRIC BUDGET FOR ENTIRE MODEL AT END OF TIME STEP    1, STRESS PERIOD  11
  ------------------------------------------------------------------------------

     CUMULATIVE VOLUMES      L**3       RATES FOR THIS TIME STEP      L**3/T
     ------------------                 ------------------------

           IN:                                      IN:
           ---                                      ---
             STORAGE =    37321995.6293               STORAGE =       18292.6850
       CONSTANT HEAD =    30158832.0903         CONSTANT HEAD =       36836.0901
               WELLS =           0.0000                 WELLS =           0.0000
            RECHARGE =    23901600.0000              RECHARGE =           0.0000
      STREAM LEAKAGE =     6320487.7342        STREAM LEAKAGE =        7207.8397

            TOTAL IN =    97702915.4538              TOTAL IN =       62336.6148

          OUT:                                     OUT:
          ----                                     ----
             STORAGE =     2216294.5063               STORAGE =           0.0000
       CONSTANT HEAD =           0.0000         CONSTANT HEAD =           0.0000
               WELLS =    24773887.7229                 WELLS =       24675.1870
            RECHARGE =           0.0000              RECHARGE =           0.0000
      STREAM LEAKAGE =    70712735.4194        STREAM LEAKAGE =       37661.4328

           TOTAL OUT =    97702917.6486             TOTAL OUT =       62336.6197

            IN - OUT =          -2.1948              IN - OUT =      -4.9039E-03

 PERCENT DISCREPANCY =          -0.00     PERCENT DISCREPANCY =          -0.00






         TIME SUMMARY AT END OF TIME STEP    1 IN STRESS PERIOD   11
                    SECONDS     MINUTES      HOURS       DAYS        YEARS
                    -----------------------------------------------------------
   TIME STEP LENGTH 7.86240E+06 1.31040E+05  2184.0      91.000     0.24914    
 STRESS PERIOD TIME 7.86240E+06 1.31040E+05  2184.0      91.000     0.24914    
         TOTAL TIME 8.67456E+07 1.44576E+06  24096.      1004.0      2.7488    
1
1
                            STRESS PERIOD NO.   12, LENGTH =   91.00000    
                            -----------------------------------------------

                              NUMBER OF TIME STEPS =     1

                               MULTIPLIER FOR DELT =     1.500

                            INITIAL TIME STEP SIZE =   91.00000    

 WELL NO.  LAYER   ROW   COL   STRESS RATE         
 --------------------------------------------------
      1      1      6     26      -9457.    
      2      1     23      4      -2056.    
      3      1     12     10      -6573.    
      4      1      4      5      -6588.    

      4 WELLS

                 RECHARGE =  1.000000E-03

 REUSING STREAM SEGMENT DATA FROM LAST STRESS PERIOD
 
 SOLVING FOR HEAD 


     7 CALLS TO PCG ROUTINE FOR TIME STEP   1 IN STRESS PERIOD   12
    24 TOTAL ITERATIONS

 OUTPUT CONTROL FOR STRESS PERIOD   12   TIME STEP    1
    SAVE BUDGET
    SAVE HEAD FOR ALL LAYERS
    PRINT HEAD FOR ALL LAYERS
 UBDSV2 SAVING "STREAMFLOW OUT  " ON UNIT  50 AT TIME STEP  1, STRESS PERIOD  12



 STREAM LISTING     PERIOD     12   STEP        1

 LAYER ROW COL. STREAM  RCH.  FLOW INTO     FLOW TO   FLOW OUT OF   OVRLND.     DIRECT     STREAM       STREAM     STREAM     STREAM   STREAMBED  STREAMBED
                SEG.NO.  NO.  STRM. RCH.    AQUIFER    STRM. RCH.    RUNOFF     PRECIP       ET          HEAD       DEPTH      WIDTH   CONDCTNC.   GRADIENT

   1   13    1     1     1    1.0000E+05 -6.8200E+02   1.0068E+05  0.000E+00  0.000E+00  0.000E+00  4.84063E+01  1.449E-01  2.000E+01  2.000E+04 -3.410E-02
   1   13    2     1     2    1.0068E+05 -1.4948E+03   1.0218E+05  0.000E+00  0.000E+00  0.000E+00  4.79300E+01  1.459E-01  2.000E+01  2.000E+04 -7.474E-02
   1   14    3     1     3    1.0218E+05 -2.7184E+02   1.0245E+05  0.000E+00  0.000E+00  0.000E+00  4.74535E+01  1.466E-01  2.000E+01  2.000E+04 -1.359E-02
   1   15    4     1     4    1.0245E+05 -2.5211E+02   1.0270E+05  0.000E+00  0.000E+00  0.000E+00  4.69764E+01  1.469E-01  2.000E+01  2.000E+04 -1.261E-02
   1   16    5     1     5    1.0270E+05 -1.1991E+03   1.0390E+05  0.000E+00  0.000E+00  0.000E+00  4.64998E+01  1.475E-01  2.000E+01  2.000E+04 -5.995E-02
   1   16    6     1     6    1.0390E+05 -7.3371E+02   1.0463E+05  0.000E+00  0.000E+00  0.000E+00  4.60233E+01  1.483E-01  2.000E+01  2.000E+04 -3.669E-02
   1   16    7     1     7    1.0463E+05 -6.9069E+02   1.0532E+05  0.000E+00  0.000E+00  0.000E+00  4.55467E+01  1.489E-01  2.000E+01  2.000E+04 -3.453E-02
   1   16    8     1     8    1.0532E+05 -6.5016E+02   1.0597E+05  0.000E+00  0.000E+00  0.000E+00  4.50700E+01  1.495E-01  2.000E+01  2.000E+04 -3.251E-02
   1   16    9     1     9    1.0597E+05 -6.1725E+02   1.0659E+05  0.000E+00  0.000E+00  0.000E+00  4.45932E+01  1.500E-01  2.000E+01  2.000E+04 -3.086E-02
   1   16   10     1    10    1.0659E+05 -6.4386E+02   1.0724E+05  0.000E+00  0.000E+00  0.000E+00  4.41165E+01  1.506E-01  2.000E+01  2.000E+04 -3.219E-02
   1   16   11     1    11    1.0724E+05 -8.0740E+02   1.0804E+05  0.000E+00  0.000E+00  0.000E+00  4.36398E+01  1.512E-01  2.000E+01  2.000E+04 -4.037E-02
   1   16   12     1    12    1.0804E+05 -1.3634E+03   1.0941E+05  0.000E+00  0.000E+00  0.000E+00  4.31635E+01  1.521E-01  2.000E+01  2.000E+04 -6.817E-02
   1   15   13     1    13    1.0941E+05 -7.8603E+02   1.1019E+05  0.000E+00  0.000E+00  0.000E+00  4.26871E+01  1.530E-01  2.000E+01  2.000E+04 -3.930E-02
   1   14   14     1    14    1.1019E+05 -9.0015E+02   1.1109E+05  0.000E+00  0.000E+00  0.000E+00  4.22105E+01  1.537E-01  2.000E+01  2.000E+04 -4.501E-02
   1   13   15     1    15    1.1109E+05 -1.2288E+03   1.1232E+05  0.000E+00  0.000E+00  0.000E+00  4.17341E+01  1.546E-01  2.000E+01  2.000E+04 -6.144E-02
   1   12   16     1    16    1.1232E+05 -1.7694E+03   1.1409E+05  0.000E+00  0.000E+00  0.000E+00  4.12581E+01  1.558E-01  2.000E+01  2.000E+04 -8.847E-02
   1   12   17     1    17    1.1409E+05 -1.4105E+03   1.1550E+05  0.000E+00  0.000E+00  0.000E+00  4.07821E+01  1.571E-01  2.000E+01  2.000E+04 -7.053E-02
   1   12   18     1    18    1.1550E+05 -1.4098E+03   1.1691E+05  0.000E+00  0.000E+00  0.000E+00  4.03060E+01  1.583E-01  2.000E+01  2.000E+04 -7.049E-02
   1   12   19     1    19    1.1691E+05 -1.8153E+03   1.1873E+05  0.000E+00  0.000E+00  0.000E+00  3.98301E+01  1.596E-01  2.000E+01  2.000E+04 -9.076E-02
   1   13   20     1    20    1.1873E+05 -1.5608E+03   1.2029E+05  0.000E+00  0.000E+00  0.000E+00  3.93542E+01  1.610E-01  2.000E+01  2.000E+04 -7.804E-02
   1   14   21     1    21    1.2029E+05 -1.5697E+03   1.2186E+05  0.000E+00  0.000E+00  0.000E+00  3.88781E+01  1.622E-01  2.000E+01  2.000E+04 -7.849E-02
   1   14   22     1    22    1.2186E+05  4.8890E+03   1.1697E+05  0.000E+00  0.000E+00  0.000E+00  3.83995E+01  1.609E-01  2.000E+01  2.000E+04  2.444E-01
   1    9   30     2     1    5.0000E+04  1.1908E+02   4.9881E+04  0.000E+00  0.000E+00  0.000E+00  4.02408E+01  1.158E-01  2.000E+01  2.000E+04  5.954E-03
   1    9   29     2     2    4.9881E+04 -8.7575E+01   4.9968E+04  0.000E+00  0.000E+00  0.000E+00  3.99908E+01  1.158E-01  2.000E+01  2.000E+04 -4.379E-03
   1    9   28     2     3    4.9968E+04 -1.2946E+02   5.0098E+04  0.000E+00  0.000E+00  0.000E+00  3.97409E+01  1.159E-01  2.000E+01  2.000E+04 -6.473E-03
   1    9   27     2     4    5.0098E+04 -4.2886E+02   5.0527E+04  0.000E+00  0.000E+00  0.000E+00  3.94913E+01  1.163E-01  2.000E+01  2.000E+04 -2.144E-02
   1   10   26     2     5    5.0527E+04 -5.4028E+02   5.1067E+04  0.000E+00  0.000E+00  0.000E+00  3.92420E+01  1.170E-01  2.000E+01  2.000E+04 -2.701E-02
   1   11   25     2     6    5.1067E+04 -7.8390E+02   5.1851E+04  0.000E+00  0.000E+00  0.000E+00  3.89929E+01  1.179E-01  2.000E+01  2.000E+04 -3.919E-02
   1   12   24     2     7    5.1851E+04 -1.0555E+03   5.2907E+04  0.000E+00  0.000E+00  0.000E+00  3.87441E+01  1.191E-01  2.000E+01  2.000E+04 -5.278E-02
   1   13   23     2     8    5.2907E+04 -2.0364E+02   5.3110E+04  0.000E+00  0.000E+00  0.000E+00  3.84950E+01  1.200E-01  2.000E+01  2.000E+04 -1.018E-02
   1   14   22     2     9    5.3110E+04  1.7768E+03   5.1333E+04  0.000E+00  0.000E+00  0.000E+00  3.82439E+01  1.189E-01  2.000E+01  2.000E+04  8.884E-02
   1   14   22     3     1    1.6830E+05 -8.6594E+03   1.7696E+05  0.000E+00  0.000E+00  0.000E+00  3.77221E+01  1.666E-01  2.000E+01  2.000E+04 -4.330E-01
   1   15   23     3     2    1.7696E+05 -5.4501E+02   1.7751E+05  0.000E+00  0.000E+00  0.000E+00  3.68359E+01  1.692E-01  2.000E+01  2.000E+04 -2.725E-02
   1   15   24     3     3    1.7751E+05 -2.8216E+02   1.7779E+05  0.000E+00  0.000E+00  0.000E+00  3.59472E+01  1.694E-01  2.000E+01  2.000E+04 -1.411E-02
   1   15   25     3     4    1.7779E+05 -2.7416E+02   1.7806E+05  0.000E+00  0.000E+00  0.000E+00  3.50585E+01  1.696E-01  2.000E+01  2.000E+04 -1.371E-02
   1   15   26     3     5    1.7806E+05 -3.3167E+02   1.7839E+05  0.000E+00  0.000E+00  0.000E+00  3.41698E+01  1.698E-01  2.000E+01  2.000E+04 -1.658E-02
   1   16   27     3     6    1.7839E+05 -3.6250E+02   1.7876E+05  0.000E+00  0.000E+00  0.000E+00  3.32811E+01  1.700E-01  2.000E+01  2.000E+04 -1.812E-02
   1   17   28     3     7    1.7876E+05 -1.5452E+03   1.8030E+05  0.000E+00  0.000E+00  0.000E+00  3.23927E+01  1.705E-01  2.000E+01  2.000E+04 -7.726E-02
   1   18   29     3     8    1.8030E+05 -2.8821E+03   1.8318E+05  0.000E+00  0.000E+00  0.000E+00  3.15051E+01  1.718E-01  2.000E+01  2.000E+04 -1.441E-01
   1   18   30     3     9    1.8318E+05 -3.1661E+03   1.8635E+05  0.000E+00  0.000E+00  0.000E+00  3.06179E+01  1.735E-01  2.000E+01  2.000E+04 -1.583E-01



1
              HEAD IN LAYER   1 AT END OF TIME STEP   1 IN STRESS PERIOD   12
  ---------------------------------------------------------------------------

          1      2      3      4      5      6      7      8      9     10
         11     12     13     14     15     16     17     18     19     20
         21     22     23     24     25     26     27     28     29     30
 .........................................................................
   1  ****** ****** ****** ****** ****** ****** ****** ****** ****** ******
      ****** ****** ****** ****** ****** ****** ****** ****** ****** ******
      ****** ****** ****** ****** ****** ****** ****** ****** ****** ******
   2  ****** ****** ****** ****** ****** ****** ****** ****** ****** ******
      ****** ****** ****** ****** ****** ****** ****** ****** ****** ******
      ****** ****** ****** ****** ****** ****** ****** ****** ****** ******
   3  ****** ****** ****** ****** ****** ****** ****** ****** ****** ******
      ****** ****** ****** ****** ****** ****** ****** ****** ****** ******
      ****** ****** ****** ****** ****** ****** ****** ****** ****** ******
   4  ****** ****** ****** ****** ****** ****** ****** ****** ****** ******
      ****** ****** ****** ****** ****** ****** ****** ****** ****** ******
      ****** ****** ****** ****** ****** ****** ****** ****** ****** ******
   5  ****** ****** ****** ****** ****** ****** ****** ****** ****** ******
      ****** ****** ****** ****** ****** ****** ****** ****** ****** ******
      ****** ****** ****** ****** ****** ****** ****** ****** ****** ******
   6  ****** ****** ****** ****** ****** ****** ****** ****** ****** ******
      ****** ****** ****** ****** ****** ****** ****** ****** ****** ******
      ****** ****** ****** ****** ****** ****** ****** ****** ****** ******
   7  ****** ****** ****** ****** ****** ****** ****** ****** ****** ******
      ****** ****** ****** ****** ****** ****** ****** ****** ****** ******
      ****** ****** ****** ****** ****** ****** ****** ****** ****** ******
   8  ****** ****** ****** ****** ****** ****** ****** ****** ****** ******
      ****** ****** ****** ****** ****** ****** ****** ****** ****** ******
      ****** ****** ****** ****** ****** ****** ****** ****** ****** ******
   9  ****** ****** ****** ****** ****** ****** ****** ****** ****** ******
      ****** ****** ****** ****** ****** ****** ****** ****** ****** ******
      ****** ****** ****** ****** ****** ****** ****** ****** ****** ******
  10  ****** ****** ****** ****** ****** ****** ****** ****** ****** ******
      ****** ****** ****** ****** ****** ****** ****** ****** ****** ******
      ****** ****** ****** ****** ****** ****** ****** ****** ****** ******
  11  ****** ****** ****** ****** ****** ****** ****** ****** ****** ******
      ****** ****** ****** ****** ****** ****** ****** ****** ****** ******
      ****** ****** ****** ****** ****** ****** ****** ****** ****** ******
  12  ****** ****** ****** ****** ****** ****** ****** ****** ****** ******
      ****** ****** ****** ****** ****** ****** ****** ****** ****** ******
      ****** ****** ****** ****** ****** ****** ****** ****** ****** ******
  13  ****** ****** ****** ****** ****** ****** ****** ****** ****** ******
      ****** ****** ****** ****** ****** ****** ****** ****** ****** ******
      ****** ****** ****** ****** ****** ****** ****** ****** ****** ******
  14  ****** ****** ****** ****** ****** ****** ****** ****** ****** ******
      ****** ****** ****** ****** ****** ****** ****** ****** ****** ******
      ****** ****** ****** ****** ****** ****** ****** ****** ****** ******
  15  ****** ****** ****** ****** ****** ****** ****** ****** ****** ******
      ****** ****** ****** ****** ****** ****** ****** ****** ****** ******
      ****** ****** ****** ****** ****** ****** ****** ****** ****** ******
  16  ****** ****** ****** ****** ****** ****** ****** ****** ****** ******
      ****** ****** ****** ****** ****** ****** ****** ****** ****** ******
      ****** ****** ****** ****** ****** ****** ****** ****** ****** ******
  17  ****** ****** ****** ****** ****** ****** ****** ****** ****** ******
      ****** ****** ****** ****** ****** ****** ****** ****** ****** ******
      ****** ****** ****** ****** ****** ****** ****** ****** ****** ******
  18  ****** ****** ****** ****** ****** ****** ****** ****** ****** ******
      ****** ****** ****** ****** ****** ****** ****** ****** ****** ******
      ****** ****** ****** ****** ****** ****** ****** ****** ****** ******
  19  ****** ****** ****** ****** ****** ****** ****** ****** ****** ******
      ****** ****** ****** ****** ****** ****** ****** ****** ****** ******
      ****** ****** ****** ****** ****** ****** ****** ****** ****** ******
  20  ****** ****** ****** ****** ****** ****** ****** ****** ****** ******
      ****** ****** ****** ****** ****** ****** ****** ****** ****** ******
      ****** ****** ****** ****** ****** ****** ****** ****** ****** ******
  21  ****** ****** ****** ****** ****** ****** ****** ****** ****** ******
      ****** ****** ****** ****** ****** ****** ****** ****** ****** ******
      ****** ****** ****** ****** ****** ****** ****** ****** ****** ******
  22  ****** ****** ****** ****** ****** ****** ****** ****** ****** ******
      ****** ****** ****** ****** ****** ****** ****** ****** ****** ******
      ****** ****** ****** ****** ****** ****** ****** ****** ****** ******
  23  ****** ****** ****** ****** ****** ****** ****** ****** ****** ******
      ****** ****** ****** ****** ****** ****** ****** ****** ****** ******
      ****** ****** ****** ****** ****** ****** ****** ****** ****** ******
  24  ****** ****** ****** ****** ****** ****** ****** ****** ****** ******
      ****** ****** ****** ****** ****** ****** ****** ****** ****** ******
      ****** ****** ****** ****** ****** ****** ****** ****** ****** ******
  25  ****** ****** ****** ****** ****** ****** ****** ****** ****** ******
      ****** ****** ****** ****** ****** ****** ****** ****** ****** ******
      ****** ****** ****** ****** ****** ****** ****** ****** ****** ******

 HEAD WILL BE SAVED ON UNIT   51 AT END OF TIME STEP    1, STRESS PERIOD   12
1
  VOLUMETRIC BUDGET FOR ENTIRE MODEL AT END OF TIME STEP    1, STRESS PERIOD  12
  ------------------------------------------------------------------------------

     CUMULATIVE VOLUMES      L**3       RATES FOR THIS TIME STEP      L**3/T
     ------------------                 ------------------------

           IN:                                      IN:
           ---                                      ---
             STORAGE =    37331565.4853               STORAGE =         105.1633
       CONSTANT HEAD =    33449994.6177         CONSTANT HEAD =       36166.6212
               WELLS =           0.0000                 WELLS =           0.0000
            RECHARGE =    26413200.0000              RECHARGE =       27600.0000
      STREAM LEAKAGE =     6937908.2207        STREAM LEAKAGE =        6784.8405

            TOTAL IN =   104132668.3236              TOTAL IN =       70656.6249

          OUT:                                     OUT:
          ----                                     ----
             STORAGE =     2475376.2957               STORAGE =        2847.0526
       CONSTANT HEAD =           0.0000         CONSTANT HEAD =           0.0000
               WELLS =    27019329.7377                 WELLS =       24675.1870
            RECHARGE =           0.0000              RECHARGE =           0.0000
      STREAM LEAKAGE =    74637964.4053        STREAM LEAKAGE =       43134.3845

           TOTAL OUT =   104132670.4387             TOTAL OUT =       70656.6241

            IN - OUT =          -2.1151              IN - OUT =       8.7590E-04

 PERCENT DISCREPANCY =          -0.00     PERCENT DISCREPANCY =           0.00






         TIME SUMMARY AT END OF TIME STEP    1 IN STRESS PERIOD   12
                    SECONDS     MINUTES      HOURS       DAYS        YEARS
                    -----------------------------------------------------------
   TIME STEP LENGTH 7.86240E+06 1.31040E+05  2184.0      91.000     0.24914    
 STRESS PERIOD TIME 7.86240E+06 1.31040E+05  2184.0      91.000     0.24914    
         TOTAL TIME 9.46080E+07 1.57680E+06  26280.      1095.0      2.9979    
1

 Run end date and time (yyyy/mm/dd hh:mm:ss): 2018/10/15 13:09:04
 Elapsed run time:  0.147 Seconds

