                                  MODFLOW-2005     
      U.S. GEOLOGICAL SURVEY MODULAR FINITE-DIFFERENCE GROUND-WATER FLOW MODEL
                            VERSION 1.11.00 8/8/2013

 LIST FILE: supply2.lst
                         UNIT   10

 OPENING ..\data\supply.dis
 FILE TYPE:DIS   UNIT   11   STATUS:OLD    
 FORMAT:FORMATTED              ACCESS:SEQUENTIAL          

 OPENING ..\data\supply.ba6
 FILE TYPE:BAS6   UNIT   12   STATUS:OLD    
 FORMAT:FORMATTED              ACCESS:SEQUENTIAL          

 OPENING ..\data\supply.bc6
 FILE TYPE:BCF6   UNIT   13   STATUS:OLD    
 FORMAT:FORMATTED              ACCESS:SEQUENTIAL          

 OPENING ..\data\supply.rch
 FILE TYPE:RCH   UNIT   15   STATUS:OLD    
 FORMAT:FORMATTED              ACCESS:SEQUENTIAL          

 OPENING ..\data\supply2.sfr
 FILE TYPE:SFR   UNIT   16   STATUS:OLD    
 FORMAT:FORMATTED              ACCESS:SEQUENTIAL          

 OPENING ..\data\supply.oc
 FILE TYPE:OC   UNIT   17   STATUS:OLD    
 FORMAT:FORMATTED              ACCESS:SEQUENTIAL          

 OPENING ..\data\supply.pcg
 FILE TYPE:PCG   UNIT   18   STATUS:OLD    
 FORMAT:FORMATTED              ACCESS:SEQUENTIAL          

 OPENING supply2.wel
 FILE TYPE:WEL   UNIT   19   STATUS:OLD    
 FORMAT:FORMATTED              ACCESS:SEQUENTIAL          

 OPENING supply2sf.bin
 FILE TYPE:DATA(BINARY)   UNIT   50   STATUS:UNKNOWN
 FORMAT:BINARY                 ACCESS:SEQUENTIAL          

 OPENING supply2hd.bin
 FILE TYPE:DATA(BINARY)   UNIT   51   STATUS:UNKNOWN
 FORMAT:BINARY                 ACCESS:SEQUENTIAL          

 BAS -- BASIC PACKAGE, VERSION 7, 5/2/2005 INPUT READ FROM UNIT   12
 
 MODFLOW was compiled using uniform precision
 Precision of REAL and DOUBLE PRECISION variables:          15

 DISCRETIZATION INPUT DATA READ FROM UNIT   11
    1 LAYERS        25 ROWS        30 COLUMNS
   12 STRESS PERIOD(S) IN SIMULATION
 MODEL TIME UNIT IS DAYS
 MODEL LENGTH UNIT IS UNDEFINED
  Confining bed flag for each layer:
   0

                     DELR =   200.000    

                     DELC =   200.000    

 TOP ELEVATION OF LAYER 1 =  100.0000    

   MODEL LAYER BOTTOM EL. =   0.00000     FOR LAYER   1


 STRESS PERIOD     LENGTH       TIME STEPS     MULTIPLIER FOR DELT    SS FLAG
 ----------------------------------------------------------------------------
        1         92.00000          1                    1.500         TR
        2         91.00000          1                    1.500         TR
        3         91.00000          1                    1.500         TR
        4         91.00000          1                    1.500         TR
        5         92.00000          1                    1.500         TR
        6         91.00000          1                    1.500         TR
        7         91.00000          1                    1.500         TR
        8         91.00000          1                    1.500         TR
        9         92.00000          1                    1.500         TR
       10         91.00000          1                    1.500         TR
       11         91.00000          1                    1.500         TR
       12         91.00000          1                    1.500         TR

 TRANSIENT SIMULATION



 
 #MODOFC transient water supply sample problem                                   
 #                                                                               
 THE FREE FORMAT OPTION HAS BEEN SELECTED



                     BOUNDARY ARRAY FOR LAYER   1
 READING ON UNIT   12 WITH FORMAT: (20I4)              

 AQUIFER HEAD WILL BE SET TO   0.0000     AT ALL NO-FLOW NODES (IBOUND=0).



                       INITIAL HEAD FOR LAYER   1
 READING ON UNIT   12 WITH FORMAT: (10F13.0)           

 OUTPUT CONTROL IS SPECIFIED ONLY AT TIME STEPS FOR WHICH OUTPUT IS DESIRED
 COMPACT CELL-BY-CELL BUDGET FILES WILL BE WRITTEN
 HEAD PRINT FORMAT CODE IS  18    DRAWDOWN PRINT FORMAT CODE IS   0
 HEADS WILL BE SAVED ON UNIT   51    DRAWDOWNS WILL BE SAVED ON UNIT    0

 BCF -- BLOCK-CENTERED FLOW PACKAGE, VERSION 7, 5/2/2005
         INPUT READ FROM UNIT 13
 TRANSIENT SIMULATION
 HEAD AT CELLS THAT CONVERT TO DRY=   0.0000    
 WETTING CAPABILITY IS NOT ACTIVE
      LAYER  LAYER-TYPE CODE     INTERBLOCK T
      --------------------------------------------
         1            0          0 -- HARMONIC    

 COLUMN TO ROW ANISOTROPY =  1.000000    

     PRIMARY STORAGE COEF =  5.000000E-02 FOR LAYER   1

     TRANSMIS. ALONG ROWS =   5000.00     FOR LAYER   1

 WEL -- WELL PACKAGE, VERSION 7, 5/2/2005 INPUT READ FROM UNIT   19
 # Well package input file written by MMProc
 No named parameters
 MAXIMUM OF      7 ACTIVE WELLS AT ONE TIME


     0 Well parameters

 RCH -- RECHARGE PACKAGE, VERSION 7, 5/2/2005 INPUT READ FROM UNIT   15
 No named parameters
 OPTION 1 -- RECHARGE TO TOP LAYER


     0 Recharge parameters

 SFR7 -- STREAMFLOW ROUTING PACKAGE, VERSION 1.0.7, 2013-01-15
         INPUT READ FROM UNIT  16
 #  Supply2 test problem for GWM-VI
 #  The eighth entry in the first data line is ISTCB2 -
 #    Setting this to a negative number indicates that
 #    streamflows out of the reach will be saved to a
 #    binary file.  The absolute value of ISTCB2 is the
 #    unit to which unformatted flows will be written.
 #
 No named parameters
 Segment information will not be 
 read by reach
 No named parameters
 No specifed inflow files


 NUMBER OF STREAM REACHES IS   40

 NUMBER OF STREAM SEGMENTS IS    3

 NUMBER OF STREAM PARAMETERS IS    0

 NUMBER OF STREAM SEGMENTS DEFINED USING PARAMETERS IS              0

 MAXIMUM ERROR FOR STREAM LEAKAGE RATES IS  1.00E-04

 CONSTANT FOR MANNINGS EQUATION IS  1.2839E+05





   STREAM NETWORK DESCRIPTION: 

   LAYER    ROW    COL   SEGMENT   REACH     LENGTH
                          NUMBER   NUMBER    IN CELL        
   --------------------------------------------------
      1     13      1       1        1    2.0000E+02
      1     13      2       1        2    2.0000E+02
      1     14      3       1        3    2.0000E+02
      1     15      4       1        4    2.0000E+02
      1     16      5       1        5    2.0000E+02
      1     16      6       1        6    2.0000E+02
      1     16      7       1        7    2.0000E+02
      1     16      8       1        8    2.0000E+02
      1     16      9       1        9    2.0000E+02
      1     16     10       1       10    2.0000E+02
      1     16     11       1       11    2.0000E+02
      1     16     12       1       12    2.0000E+02
      1     15     13       1       13    2.0000E+02
      1     14     14       1       14    2.0000E+02
      1     13     15       1       15    2.0000E+02
      1     12     16       1       16    2.0000E+02
      1     12     17       1       17    2.0000E+02
      1     12     18       1       18    2.0000E+02
      1     12     19       1       19    2.0000E+02
      1     13     20       1       20    2.0000E+02
      1     14     21       1       21    2.0000E+02
      1     14     22       1       22    2.0000E+02
      1      9     30       2        1    2.0000E+02
      1      9     29       2        2    2.0000E+02
      1      9     28       2        3    2.0000E+02
      1      9     27       2        4    2.0000E+02
      1     10     26       2        5    2.0000E+02
      1     11     25       2        6    2.0000E+02
      1     12     24       2        7    2.0000E+02
      1     13     23       2        8    2.0000E+02
      1     14     22       2        9    2.0000E+02
      1     14     22       3        1    2.0000E+02
      1     15     23       3        2    2.0000E+02
      1     15     24       3        3    2.0000E+02
      1     15     25       3        4    2.0000E+02
      1     15     26       3        5    2.0000E+02
      1     16     27       3        6    2.0000E+02
      1     17     28       3        7    2.0000E+02
      1     18     29       3        8    2.0000E+02
      1     18     30       3        9    2.0000E+02




 PCG -- CONJUGATE-GRADIENT SOLUTION PACKAGE, VERSION 7, 5/2/2005
 MAXIMUM OF    500 CALLS OF SOLUTION ROUTINE
 MAXIMUM OF      5 INTERNAL ITERATIONS PER CALL TO SOLUTION ROUTINE
 MATRIX PRECONDITIONING TYPE :    1



                                    SOLUTION BY THE CONJUGATE-GRADIENT METHOD
                                   -------------------------------------------
                    MAXIMUM NUMBER OF CALLS TO PCG ROUTINE =      500
                        MAXIMUM ITERATIONS PER CALL TO PCG =        5
                               MATRIX PRECONDITIONING TYPE =        1
        RELAXATION FACTOR (ONLY USED WITH PRECOND. TYPE 1) =    0.10000E+01
 PARAMETER OF POLYNOMIAL PRECOND. = 2 (2) OR IS CALCULATED :        0
                         HEAD CHANGE CRITERION FOR CLOSURE =    0.10000E-05
                     RESIDUAL CHANGE CRITERION FOR CLOSURE =    0.10000E+01
            PCG HEAD AND RESIDUAL CHANGE PRINTOUT INTERVAL =        1
     PRINTING FROM SOLVER IS LIMITED(1) OR SUPPRESSED (>1) =        1
                            STEADY-STATE DAMPING PARAMETER =    0.10000E+01
                               TRANSIENT DAMPING PARAMETER =    0.10000E+01
1
                            STRESS PERIOD NO.    1, LENGTH =   92.00000    
                            -----------------------------------------------

                              NUMBER OF TIME STEPS =     1

                               MULTIPLIER FOR DELT =     1.500

                            INITIAL TIME STEP SIZE =   92.00000    

 WELL NO.  LAYER   ROW   COL   STRESS RATE         
 --------------------------------------------------
      1      1      6     12     -0.5000E+05
      2      1     20     28     -0.3000E+05

      2 WELLS

                 RECHARGE =  5.000000E-04



 CLASSIFICATION & COUNT OF STREAM SEGMENTS BASED ON SOURCE OF INFLOW:

                HEADWATER     DIVERSION     RECEIVES TRIBUTARY FLOW
                ---------     ---------     -----------------------
                     2              0               1



                    INPUT DATA FOR EACH STREAM SEGMENT
 ---------------------------------------------------------------------------------------------

 SEGMENT    SEG.     INFLOW   OVERLAND   STREAM    STREAM   ICALC  OUTFLOW  DIVERSION PRIORITY
    NO.    LENGTH     RATE     RUNOFF      ET       PPT.    METH.  TO SEG.  FROM SEG.    NO.

      1  4.400E+03 1.000E+05 0.000E+00 0.000E+00 0.000E+00    1        3        0        0
      2  1.800E+03 5.000E+04 0.000E+00 0.000E+00 0.000E+00    1        3        0        0
      3  1.800E+03 0.000E+00 0.000E+00 0.000E+00 0.000E+00    1        0        0        0


         STREAMBED PROPERTIES AND STREAM DIMENSIONS

 SEGMENT     BED HYD. COND.      BED THICKNESS     ELEV.-TOP OF BED     WIDTH OF STREAM     DEPTH OF STREAM    STREAM ROUGHNESS
    No.     UPPER     LOWER     UPPER     LOWER     UPPER     LOWER     UPPER     LOWER     UPPER     LOWER   CHANNEL      BANK

     1  5.000E+00 5.000E+00 1.000E+00 1.000E+00 4.850E+01 3.800E+01 2.000E+01 2.000E+01                     5.000E-02
     2  5.000E+00 5.000E+00 1.000E+00 1.000E+00 4.025E+01 3.800E+01 2.000E+01 2.000E+01                     5.000E-02
     3  5.000E+00 5.000E+00 1.000E+00 1.000E+00 3.800E+01 3.000E+01 2.000E+01 2.000E+01                     5.000E-02



 
 SOLVING FOR HEAD 


     8 CALLS TO PCG ROUTINE FOR TIME STEP   1 IN STRESS PERIOD    1
    32 TOTAL ITERATIONS

 OUTPUT CONTROL FOR STRESS PERIOD    1   TIME STEP    1
    SAVE BUDGET
    SAVE HEAD FOR ALL LAYERS
    PRINT HEAD FOR ALL LAYERS
 UBDSV2 SAVING "STREAMFLOW OUT  " ON UNIT  50 AT TIME STEP  1, STRESS PERIOD   1



 STREAM LISTING     PERIOD      1   STEP        1

 LAYER ROW COL. STREAM  RCH.  FLOW INTO     FLOW TO   FLOW OUT OF   OVRLND.     DIRECT     STREAM       STREAM     STREAM     STREAM   STREAMBED  STREAMBED
                SEG.NO.  NO.  STRM. RCH.    AQUIFER    STRM. RCH.    RUNOFF     PRECIP       ET          HEAD       DEPTH      WIDTH   CONDCTNC.   GRADIENT

   1   13    1     1     1    1.0000E+05 -3.1113E+04   1.3111E+05  0.000E+00  0.000E+00  0.000E+00  4.84191E+01  1.578E-01  2.000E+01  2.000E+04 -1.556E+00
   1   13    2     1     2    1.3111E+05 -4.1351E+04   1.7246E+05  0.000E+00  0.000E+00  0.000E+00  4.79699E+01  1.858E-01  2.000E+01  2.000E+04 -2.068E+00
   1   14    3     1     3    1.7246E+05 -3.7035E+04   2.0950E+05  0.000E+00  0.000E+00  0.000E+00  4.75201E+01  2.133E-01  2.000E+01  2.000E+04 -1.852E+00
   1   15    4     1     4    2.0950E+05 -3.6215E+04   2.4571E+05  0.000E+00  0.000E+00  0.000E+00  4.70665E+01  2.369E-01  2.000E+01  2.000E+04 -1.811E+00
   1   16    5     1     5    2.4571E+05 -3.7365E+04   2.8308E+05  0.000E+00  0.000E+00  0.000E+00  4.66115E+01  2.592E-01  2.000E+01  2.000E+04 -1.868E+00
   1   16    6     1     6    2.8308E+05 -3.2571E+04   3.1565E+05  0.000E+00  0.000E+00  0.000E+00  4.61543E+01  2.793E-01  2.000E+01  2.000E+04 -1.629E+00
   1   16    7     1     7    3.1565E+05 -3.2318E+04   3.4797E+05  0.000E+00  0.000E+00  0.000E+00  4.56948E+01  2.971E-01  2.000E+01  2.000E+04 -1.616E+00
   1   16    8     1     8    3.4797E+05 -3.2478E+04   3.8045E+05  0.000E+00  0.000E+00  0.000E+00  4.52346E+01  3.141E-01  2.000E+01  2.000E+04 -1.624E+00
   1   16    9     1     9    3.8045E+05 -3.2544E+04   4.1299E+05  0.000E+00  0.000E+00  0.000E+00  4.47739E+01  3.307E-01  2.000E+01  2.000E+04 -1.627E+00
   1   16   10     1    10    4.1299E+05 -3.2576E+04   4.4557E+05  0.000E+00  0.000E+00  0.000E+00  4.43126E+01  3.467E-01  2.000E+01  2.000E+04 -1.629E+00
   1   16   11     1    11    4.4557E+05 -3.3271E+04   4.7884E+05  0.000E+00  0.000E+00  0.000E+00  4.38511E+01  3.624E-01  2.000E+01  2.000E+04 -1.664E+00
   1   16   12     1    12    4.7884E+05 -3.9409E+04   5.1825E+05  0.000E+00  0.000E+00  0.000E+00  4.33906E+01  3.793E-01  2.000E+01  2.000E+04 -1.970E+00
   1   15   13     1    13    5.1825E+05 -3.8365E+04   5.5661E+05  0.000E+00  0.000E+00  0.000E+00  4.29308E+01  3.967E-01  2.000E+01  2.000E+04 -1.918E+00
   1   14   14     1    14    5.5661E+05 -3.8827E+04   5.9544E+05  0.000E+00  0.000E+00  0.000E+00  4.24704E+01  4.136E-01  2.000E+01  2.000E+04 -1.941E+00
   1   13   15     1    15    5.9544E+05 -4.0671E+04   6.3611E+05  0.000E+00  0.000E+00  0.000E+00  4.20100E+01  4.305E-01  2.000E+01  2.000E+04 -2.034E+00
   1   12   16     1    16    6.3611E+05 -4.6051E+04   6.8216E+05  0.000E+00  0.000E+00  0.000E+00  4.15507E+01  4.484E-01  2.000E+01  2.000E+04 -2.303E+00
   1   12   17     1    17    6.8216E+05 -3.6589E+04   7.1875E+05  0.000E+00  0.000E+00  0.000E+00  4.10901E+01  4.651E-01  2.000E+01  2.000E+04 -1.829E+00
   1   12   18     1    18    7.1875E+05 -3.5156E+04   7.5390E+05  0.000E+00  0.000E+00  0.000E+00  4.06270E+01  4.793E-01  2.000E+01  2.000E+04 -1.758E+00
   1   12   19     1    19    7.5390E+05 -3.9704E+04   7.9361E+05  0.000E+00  0.000E+00  0.000E+00  4.01642E+01  4.937E-01  2.000E+01  2.000E+04 -1.985E+00
   1   13   20     1    20    7.9361E+05 -3.0268E+04   8.2388E+05  0.000E+00  0.000E+00  0.000E+00  3.97002E+01  5.070E-01  2.000E+01  2.000E+04 -1.513E+00
   1   14   21     1    21    8.2388E+05 -2.2728E+04   8.4660E+05  0.000E+00  0.000E+00  0.000E+00  3.92328E+01  5.169E-01  2.000E+01  2.000E+04 -1.136E+00
   1   14   22     1    22    8.4660E+05 -2.8839E+03   8.4949E+05  0.000E+00  0.000E+00  0.000E+00  3.87603E+01  5.216E-01  2.000E+01  2.000E+04 -1.442E-01
   1    9   30     2     1    5.0000E+04 -2.9575E+04   7.9575E+04  0.000E+00  0.000E+00  0.000E+00  4.02604E+01  1.354E-01  2.000E+01  2.000E+04 -1.479E+00
   1    9   29     2     2    7.9575E+04 -3.2010E+04   1.1159E+05  0.000E+00  0.000E+00  0.000E+00  4.00459E+01  1.709E-01  2.000E+01  2.000E+04 -1.601E+00
   1    9   28     2     3    1.1159E+05 -3.6316E+04   1.4790E+05  0.000E+00  0.000E+00  0.000E+00  3.98303E+01  2.053E-01  2.000E+01  2.000E+04 -1.816E+00
   1    9   27     2     4    1.4790E+05 -5.0882E+04   1.9878E+05  0.000E+00  0.000E+00  0.000E+00  3.96193E+01  2.443E-01  2.000E+01  2.000E+04 -2.544E+00
   1   10   26     2     5    1.9878E+05 -3.7245E+04   2.3603E+05  0.000E+00  0.000E+00  0.000E+00  3.94049E+01  2.799E-01  2.000E+01  2.000E+04 -1.862E+00
   1   11   25     2     6    2.3603E+05 -2.8829E+04   2.6486E+05  0.000E+00  0.000E+00  0.000E+00  3.91796E+01  3.046E-01  2.000E+01  2.000E+04 -1.441E+00
   1   12   24     2     7    2.6486E+05 -2.1877E+04   2.8673E+05  0.000E+00  0.000E+00  0.000E+00  3.89478E+01  3.228E-01  2.000E+01  2.000E+04 -1.094E+00
   1   13   23     2     8    2.8673E+05 -1.5881E+04   3.0262E+05  0.000E+00  0.000E+00  0.000E+00  3.87109E+01  3.359E-01  2.000E+01  2.000E+04 -7.940E-01
   1   14   22     2     9    3.0262E+05 -8.7053E+03   3.1132E+05  0.000E+00  0.000E+00  0.000E+00  3.84692E+01  3.442E-01  2.000E+01  2.000E+04 -4.353E-01
   1   14   22     3     1    1.1608E+06 -1.6482E+04   1.1773E+06  0.000E+00  0.000E+00  0.000E+00  3.80804E+01  5.248E-01  2.000E+01  2.000E+04 -8.241E-01
   1   15   23     3     2    1.1773E+06 -2.6232E+04   1.2035E+06  0.000E+00  0.000E+00  0.000E+00  3.71972E+01  5.305E-01  2.000E+01  2.000E+04 -1.312E+00
   1   15   24     3     3    1.2035E+06 -2.1850E+04   1.2254E+06  0.000E+00  0.000E+00  0.000E+00  3.63147E+01  5.369E-01  2.000E+01  2.000E+04 -1.092E+00
   1   15   25     3     4    1.2254E+06 -2.1499E+04   1.2469E+06  0.000E+00  0.000E+00  0.000E+00  3.54316E+01  5.427E-01  2.000E+01  2.000E+04 -1.075E+00
   1   15   26     3     5    1.2469E+06 -2.4836E+04   1.2717E+06  0.000E+00  0.000E+00  0.000E+00  3.45488E+01  5.488E-01  2.000E+01  2.000E+04 -1.242E+00
   1   16   27     3     6    1.2717E+06 -3.1654E+04   1.3034E+06  0.000E+00  0.000E+00  0.000E+00  3.36672E+01  5.561E-01  2.000E+01  2.000E+04 -1.583E+00
   1   17   28     3     7    1.3034E+06 -3.7107E+04   1.3405E+06  0.000E+00  0.000E+00  0.000E+00  3.27872E+01  5.650E-01  2.000E+01  2.000E+04 -1.855E+00
   1   18   29     3     8    1.3405E+06 -4.5438E+04   1.3859E+06  0.000E+00  0.000E+00  0.000E+00  3.19088E+01  5.755E-01  2.000E+01  2.000E+04 -2.272E+00
   1   18   30     3     9    1.3859E+06 -4.3079E+04   1.4290E+06  0.000E+00  0.000E+00  0.000E+00  3.10311E+01  5.866E-01  2.000E+01  2.000E+04 -2.154E+00



1
              HEAD IN LAYER   1 AT END OF TIME STEP   1 IN STRESS PERIOD    1
  ---------------------------------------------------------------------------

          1      2      3      4      5      6      7      8      9     10
         11     12     13     14     15     16     17     18     19     20
         21     22     23     24     25     26     27     28     29     30
 .........................................................................
   1  ****** ****** ****** ****** ****** ****** ****** ****** ****** ******
      ****** ****** ****** ****** ****** ****** ****** ****** ****** ******
      ****** ****** ****** ****** ****** ****** ****** ****** ****** ******
   2  ****** ****** ****** ****** ****** ****** ****** ****** ****** ******
      ****** ****** ****** ****** ****** ****** ****** ****** ****** ******
      ****** ****** ****** ****** ****** ****** ****** ****** ****** ******
   3  ****** ****** ****** ****** ****** ****** ****** ****** ****** ******
      ****** ****** ****** ****** ****** ****** ****** ****** ****** ******
      ****** ****** ****** ****** ****** ****** ****** ****** ****** ******
   4  ****** ****** ****** ****** ****** ****** ****** ****** ****** ******
      ****** ****** ****** ****** ****** ****** ****** ****** ****** ******
      ****** ****** ****** ****** ****** ****** ****** ****** ****** ******
   5  ****** ****** ****** ****** ****** ****** ****** ****** ****** ******
      ****** ****** ****** ****** ****** ****** ****** ****** ****** ******
      ****** ****** ****** ****** ****** ****** ****** ****** ****** ******
   6  ****** ****** ****** ****** ****** ****** ****** ****** ****** ******
      ****** ****** ****** ****** ****** ****** ****** ****** ****** ******
      ****** ****** ****** ****** ****** ****** ****** ****** ****** ******
   7  ****** ****** ****** ****** ****** ****** ****** ****** ****** ******
      ****** ****** ****** ****** ****** ****** ****** ****** ****** ******
      ****** ****** ****** ****** ****** ****** ****** ****** ****** ******
   8  ****** ****** ****** ****** ****** ****** ****** ****** ****** ******
      ****** ****** ****** ****** ****** ****** ****** ****** ****** ******
      ****** ****** ****** ****** ****** ****** ****** ****** ****** ******
   9  ****** ****** ****** ****** ****** ****** ****** ****** ****** ******
      ****** ****** ****** ****** ****** ****** ****** ****** ****** ******
      ****** ****** ****** ****** ****** ****** ****** ****** ****** ******
  10  ****** ****** ****** ****** ****** ****** ****** ****** ****** ******
      ****** ****** ****** ****** ****** ****** ****** ****** ****** ******
      ****** ****** ****** ****** ****** ****** ****** ****** ****** ******
  11  ****** ****** ****** ****** ****** ****** ****** ****** ****** ******
      ****** ****** ****** ****** ****** ****** ****** ****** ****** ******
      ****** ****** ****** ****** ****** ****** ****** ****** ****** ******
  12  ****** ****** ****** ****** ****** ****** ****** ****** ****** ******
      ****** ****** ****** ****** ****** ****** ****** ****** ****** ******
      ****** ****** ****** ****** ****** ****** ****** ****** ****** ******
  13  ****** ****** ****** ****** ****** ****** ****** ****** ****** ******
      ****** ****** ****** ****** ****** ****** ****** ****** ****** ******
      ****** ****** ****** ****** ****** ****** ****** ****** ****** ******
  14  ****** ****** ****** ****** ****** ****** ****** ****** ****** ******
      ****** ****** ****** ****** ****** ****** ****** ****** ****** ******
      ****** ****** ****** ****** ****** ****** ****** ****** ****** ******
  15  ****** ****** ****** ****** ****** ****** ****** ****** ****** ******
      ****** ****** ****** ****** ****** ****** ****** ****** ****** ******
      ****** ****** ****** ****** ****** ****** ****** ****** ****** ******
  16  ****** ****** ****** ****** ****** ****** ****** ****** ****** ******
      ****** ****** ****** ****** ****** ****** ****** ****** ****** ******
      ****** ****** ****** ****** ****** ****** ****** ****** ****** ******
  17  ****** ****** ****** ****** ****** ****** ****** ****** ****** ******
      ****** ****** ****** ****** ****** ****** ****** ****** ****** ******
      ****** ****** ****** ****** ****** ****** ****** ****** ****** ******
  18  ****** ****** ****** ****** ****** ****** ****** ****** ****** ******
      ****** ****** ****** ****** ****** ****** ****** ****** ****** ******
      ****** ****** ****** ****** ****** ****** ****** ****** ****** ******
  19  ****** ****** ****** ****** ****** ****** ****** ****** ****** ******
      ****** ****** ****** ****** ****** ****** ****** ****** ****** ******
      ****** ****** ****** ****** ****** ****** ****** ****** ****** ******
  20  ****** ****** ****** ****** ****** ****** ****** ****** ****** ******
      ****** ****** ****** ****** ****** ****** ****** ****** ****** ******
      ****** ****** ****** ****** ****** ****** ****** ****** ****** ******
  21  ****** ****** ****** ****** ****** ****** ****** ****** ****** ******
      ****** ****** ****** ****** ****** ****** ****** ****** ****** ******
      ****** ****** ****** ****** ****** ****** ****** ****** ****** ******
  22  ****** ****** ****** ****** ****** ****** ****** ****** ****** ******
      ****** ****** ****** ****** ****** ****** ****** ****** ****** ******
      ****** ****** ****** ****** ****** ****** ****** ****** ****** ******
  23  ****** ****** ****** ****** ****** ****** ****** ****** ****** ******
      ****** ****** ****** ****** ****** ****** ****** ****** ****** ******
      ****** ****** ****** ****** ****** ****** ****** ****** ****** ******
  24  ****** ****** ****** ****** ****** ****** ****** ****** ****** ******
      ****** ****** ****** ****** ****** ****** ****** ****** ****** ******
      ****** ****** ****** ****** ****** ****** ****** ****** ****** ******
  25  ****** ****** ****** ****** ****** ****** ****** ****** ****** ******
      ****** ****** ****** ****** ****** ****** ****** ****** ****** ******
      ****** ****** ****** ****** ****** ****** ****** ****** ****** ******

 HEAD WILL BE SAVED ON UNIT   51 AT END OF TIME STEP    1, STRESS PERIOD    1
1
  VOLUMETRIC BUDGET FOR ENTIRE MODEL AT END OF TIME STEP    1, STRESS PERIOD   1
  ------------------------------------------------------------------------------

     CUMULATIVE VOLUMES      L**3       RATES FOR THIS TIME STEP      L**3/T
     ------------------                 ------------------------

           IN:                                      IN:
           ---                                      ---
             STORAGE =    19341315.3151               STORAGE =      210231.6882
       CONSTANT HEAD =   104415679.5323         CONSTANT HEAD =     1134953.0384
               WELLS =           0.0000                 WELLS =           0.0000
            RECHARGE =     1269600.0000              RECHARGE =       13800.0000
      STREAM LEAKAGE =           0.0000        STREAM LEAKAGE =           0.0000

            TOTAL IN =   125026594.8474              TOTAL IN =     1358984.7266

          OUT:                                     OUT:
          ----                                     ----
             STORAGE =           0.0000               STORAGE =           0.0000
       CONSTANT HEAD =           0.0000         CONSTANT HEAD =           0.0000
               WELLS =     7360000.0000                 WELLS =       80000.0000
            RECHARGE =           0.0000              RECHARGE =           0.0000
      STREAM LEAKAGE =   117666596.6604        STREAM LEAKAGE =     1278984.7463

           TOTAL OUT =   125026596.6604             TOTAL OUT =     1358984.7463

            IN - OUT =          -1.8131              IN - OUT =      -1.9707E-02

 PERCENT DISCREPANCY =          -0.00     PERCENT DISCREPANCY =          -0.00






         TIME SUMMARY AT END OF TIME STEP    1 IN STRESS PERIOD    1
                    SECONDS     MINUTES      HOURS       DAYS        YEARS
                    -----------------------------------------------------------
   TIME STEP LENGTH 7.94880E+06 1.32480E+05  2208.0      92.000     0.25188    
 STRESS PERIOD TIME 7.94880E+06 1.32480E+05  2208.0      92.000     0.25188    
         TOTAL TIME 7.94880E+06 1.32480E+05  2208.0      92.000     0.25188    
1
1
                            STRESS PERIOD NO.    2, LENGTH =   91.00000    
                            -----------------------------------------------

                              NUMBER OF TIME STEPS =     1

                               MULTIPLIER FOR DELT =     1.500

                            INITIAL TIME STEP SIZE =   91.00000    

 WELL NO.  LAYER   ROW   COL   STRESS RATE         
 --------------------------------------------------
      1      1      6     12     -0.5000E+05
      2      1     20     28       0.000    
      3      1      2      2     -0.3000E+05

      3 WELLS

                 RECHARGE =  2.000000E-03

 REUSING STREAM SEGMENT DATA FROM LAST STRESS PERIOD
 
 SOLVING FOR HEAD 


     6 CALLS TO PCG ROUTINE FOR TIME STEP   1 IN STRESS PERIOD    2
    25 TOTAL ITERATIONS

 OUTPUT CONTROL FOR STRESS PERIOD    2   TIME STEP    1
    SAVE BUDGET
    SAVE HEAD FOR ALL LAYERS
    PRINT HEAD FOR ALL LAYERS
 UBDSV2 SAVING "STREAMFLOW OUT  " ON UNIT  50 AT TIME STEP  1, STRESS PERIOD   2



 STREAM LISTING     PERIOD      2   STEP        1

 LAYER ROW COL. STREAM  RCH.  FLOW INTO     FLOW TO   FLOW OUT OF   OVRLND.     DIRECT     STREAM       STREAM     STREAM     STREAM   STREAMBED  STREAMBED
                SEG.NO.  NO.  STRM. RCH.    AQUIFER    STRM. RCH.    RUNOFF     PRECIP       ET          HEAD       DEPTH      WIDTH   CONDCTNC.   GRADIENT

   1   13    1     1     1    1.0000E+05 -2.7567E+04   1.2757E+05  0.000E+00  0.000E+00  0.000E+00  4.84177E+01  1.563E-01  2.000E+01  2.000E+04 -1.378E+00
   1   13    2     1     2    1.2757E+05 -3.7138E+04   1.6471E+05  0.000E+00  0.000E+00  0.000E+00  4.79657E+01  1.816E-01  2.000E+01  2.000E+04 -1.857E+00
   1   14    3     1     3    1.6471E+05 -3.2903E+04   1.9761E+05  0.000E+00  0.000E+00  0.000E+00  4.75134E+01  2.066E-01  2.000E+01  2.000E+04 -1.645E+00
   1   15    4     1     4    1.9761E+05 -3.2329E+04   2.2994E+05  0.000E+00  0.000E+00  0.000E+00  4.70577E+01  2.282E-01  2.000E+01  2.000E+04 -1.616E+00
   1   16    5     1     5    2.2994E+05 -3.4072E+04   2.6401E+05  0.000E+00  0.000E+00  0.000E+00  4.66011E+01  2.488E-01  2.000E+01  2.000E+04 -1.704E+00
   1   16    6     1     6    2.6401E+05 -2.9647E+04   2.9366E+05  0.000E+00  0.000E+00  0.000E+00  4.61426E+01  2.676E-01  2.000E+01  2.000E+04 -1.482E+00
   1   16    7     1     7    2.9366E+05 -2.9398E+04   3.2305E+05  0.000E+00  0.000E+00  0.000E+00  4.56820E+01  2.843E-01  2.000E+01  2.000E+04 -1.470E+00
   1   16    8     1     8    3.2305E+05 -2.9540E+04   3.5260E+05  0.000E+00  0.000E+00  0.000E+00  4.52207E+01  3.003E-01  2.000E+01  2.000E+04 -1.477E+00
   1   16    9     1     9    3.5260E+05 -2.9605E+04   3.8220E+05  0.000E+00  0.000E+00  0.000E+00  4.47590E+01  3.158E-01  2.000E+01  2.000E+04 -1.480E+00
   1   16   10     1    10    3.8220E+05 -2.9651E+04   4.1185E+05  0.000E+00  0.000E+00  0.000E+00  4.42967E+01  3.308E-01  2.000E+01  2.000E+04 -1.483E+00
   1   16   11     1    11    4.1185E+05 -3.0331E+04   4.4218E+05  0.000E+00  0.000E+00  0.000E+00  4.38343E+01  3.456E-01  2.000E+01  2.000E+04 -1.517E+00
   1   16   12     1    12    4.4218E+05 -3.6065E+04   4.7825E+05  0.000E+00  0.000E+00  0.000E+00  4.33729E+01  3.615E-01  2.000E+01  2.000E+04 -1.803E+00
   1   15   13     1    13    4.7825E+05 -3.4425E+04   5.1267E+05  0.000E+00  0.000E+00  0.000E+00  4.29119E+01  3.779E-01  2.000E+01  2.000E+04 -1.721E+00
   1   14   14     1    14    5.1267E+05 -3.4659E+04   5.4733E+05  0.000E+00  0.000E+00  0.000E+00  4.24503E+01  3.935E-01  2.000E+01  2.000E+04 -1.733E+00
   1   13   15     1    15    5.4733E+05 -3.6513E+04   5.8384E+05  0.000E+00  0.000E+00  0.000E+00  4.19886E+01  4.091E-01  2.000E+01  2.000E+04 -1.826E+00
   1   12   16     1    16    5.8384E+05 -4.2141E+04   6.2599E+05  0.000E+00  0.000E+00  0.000E+00  4.15282E+01  4.259E-01  2.000E+01  2.000E+04 -2.107E+00
   1   12   17     1    17    6.2599E+05 -3.3398E+04   6.5938E+05  0.000E+00  0.000E+00  0.000E+00  4.10667E+01  4.417E-01  2.000E+01  2.000E+04 -1.670E+00
   1   12   18     1    18    6.5938E+05 -3.2096E+04   6.9148E+05  0.000E+00  0.000E+00  0.000E+00  4.06028E+01  4.551E-01  2.000E+01  2.000E+04 -1.605E+00
   1   12   19     1    19    6.9148E+05 -3.6355E+04   7.2784E+05  0.000E+00  0.000E+00  0.000E+00  4.01392E+01  4.688E-01  2.000E+01  2.000E+04 -1.818E+00
   1   13   20     1    20    7.2784E+05 -2.7071E+04   7.5491E+05  0.000E+00  0.000E+00  0.000E+00  3.96744E+01  4.812E-01  2.000E+01  2.000E+04 -1.354E+00
   1   14   21     1    21    7.5491E+05 -2.0140E+04   7.7505E+05  0.000E+00  0.000E+00  0.000E+00  3.92063E+01  4.904E-01  2.000E+01  2.000E+04 -1.007E+00
   1   14   22     1    22    7.7505E+05 -1.9277E+03   7.7697E+05  0.000E+00  0.000E+00  0.000E+00  3.87332E+01  4.946E-01  2.000E+01  2.000E+04 -9.638E-02
   1    9   30     2     1    5.0000E+04 -2.6964E+04   7.6964E+04  0.000E+00  0.000E+00  0.000E+00  4.02587E+01  1.337E-01  2.000E+01  2.000E+04 -1.348E+00
   1    9   29     2     2    7.6964E+04 -2.9422E+04   1.0639E+05  0.000E+00  0.000E+00  0.000E+00  4.00417E+01  1.667E-01  2.000E+01  2.000E+04 -1.471E+00
   1    9   28     2     3    1.0639E+05 -3.3701E+04   1.4009E+05  0.000E+00  0.000E+00  0.000E+00  3.98241E+01  1.991E-01  2.000E+01  2.000E+04 -1.685E+00
   1    9   27     2     4    1.4009E+05 -4.7856E+04   1.8794E+05  0.000E+00  0.000E+00  0.000E+00  3.96113E+01  2.363E-01  2.000E+01  2.000E+04 -2.393E+00
   1   10   26     2     5    1.8794E+05 -3.3828E+04   2.2177E+05  0.000E+00  0.000E+00  0.000E+00  3.93950E+01  2.700E-01  2.000E+01  2.000E+04 -1.691E+00
   1   11   25     2     6    2.2177E+05 -2.5442E+04   2.4721E+05  0.000E+00  0.000E+00  0.000E+00  3.91679E+01  2.929E-01  2.000E+01  2.000E+04 -1.272E+00
   1   12   24     2     7    2.4721E+05 -1.8817E+04   2.6603E+05  0.000E+00  0.000E+00  0.000E+00  3.89341E+01  3.091E-01  2.000E+01  2.000E+04 -9.409E-01
   1   13   23     2     8    2.6603E+05 -1.3415E+04   2.7945E+05  0.000E+00  0.000E+00  0.000E+00  3.86956E+01  3.206E-01  2.000E+01  2.000E+04 -6.708E-01
   1   14   22     2     9    2.7945E+05 -7.5327E+03   2.8698E+05  0.000E+00  0.000E+00  0.000E+00  3.84530E+01  3.280E-01  2.000E+01  2.000E+04 -3.766E-01
   1   14   22     3     1    1.0640E+06 -1.5518E+04   1.0795E+06  0.000E+00  0.000E+00  0.000E+00  3.80537E+01  4.981E-01  2.000E+01  2.000E+04 -7.759E-01
   1   15   23     3     2    1.0795E+06 -2.4167E+04   1.1036E+06  0.000E+00  0.000E+00  0.000E+00  3.71703E+01  5.036E-01  2.000E+01  2.000E+04 -1.208E+00
   1   15   24     3     3    1.1036E+06 -2.0109E+04   1.1237E+06  0.000E+00  0.000E+00  0.000E+00  3.62875E+01  5.098E-01  2.000E+01  2.000E+04 -1.005E+00
   1   15   25     3     4    1.1237E+06 -1.9699E+04   1.1434E+06  0.000E+00  0.000E+00  0.000E+00  3.54041E+01  5.152E-01  2.000E+01  2.000E+04 -9.850E-01
   1   15   26     3     5    1.1434E+06 -2.2518E+04   1.1660E+06  0.000E+00  0.000E+00  0.000E+00  3.45209E+01  5.209E-01  2.000E+01  2.000E+04 -1.126E+00
   1   16   27     3     6    1.1660E+06 -2.9774E+04   1.1957E+06  0.000E+00  0.000E+00  0.000E+00  3.36391E+01  5.280E-01  2.000E+01  2.000E+04 -1.489E+00
   1   17   28     3     7    1.1957E+06 -3.6822E+04   1.2326E+06  0.000E+00  0.000E+00  0.000E+00  3.27591E+01  5.369E-01  2.000E+01  2.000E+04 -1.841E+00
   1   18   29     3     8    1.2326E+06 -4.7743E+04   1.2803E+06  0.000E+00  0.000E+00  0.000E+00  3.18813E+01  5.480E-01  2.000E+01  2.000E+04 -2.387E+00
   1   18   30     3     9    1.2803E+06 -4.4098E+04   1.3244E+06  0.000E+00  0.000E+00  0.000E+00  3.10044E+01  5.599E-01  2.000E+01  2.000E+04 -2.205E+00



1
              HEAD IN LAYER   1 AT END OF TIME STEP   1 IN STRESS PERIOD    2
  ---------------------------------------------------------------------------

          1      2      3      4      5      6      7      8      9     10
         11     12     13     14     15     16     17     18     19     20
         21     22     23     24     25     26     27     28     29     30
 .........................................................................
   1  ****** ****** ****** ****** ****** ****** ****** ****** ****** ******
      ****** ****** ****** ****** ****** ****** ****** ****** ****** ******
      ****** ****** ****** ****** ****** ****** ****** ****** ****** ******
   2  ****** ****** ****** ****** ****** ****** ****** ****** ****** ******
      ****** ****** ****** ****** ****** ****** ****** ****** ****** ******
      ****** ****** ****** ****** ****** ****** ****** ****** ****** ******
   3  ****** ****** ****** ****** ****** ****** ****** ****** ****** ******
      ****** ****** ****** ****** ****** ****** ****** ****** ****** ******
      ****** ****** ****** ****** ****** ****** ****** ****** ****** ******
   4  ****** ****** ****** ****** ****** ****** ****** ****** ****** ******
      ****** ****** ****** ****** ****** ****** ****** ****** ****** ******
      ****** ****** ****** ****** ****** ****** ****** ****** ****** ******
   5  ****** ****** ****** ****** ****** ****** ****** ****** ****** ******
      ****** ****** ****** ****** ****** ****** ****** ****** ****** ******
      ****** ****** ****** ****** ****** ****** ****** ****** ****** ******
   6  ****** ****** ****** ****** ****** ****** ****** ****** ****** ******
      ****** ****** ****** ****** ****** ****** ****** ****** ****** ******
      ****** ****** ****** ****** ****** ****** ****** ****** ****** ******
   7  ****** ****** ****** ****** ****** ****** ****** ****** ****** ******
      ****** ****** ****** ****** ****** ****** ****** ****** ****** ******
      ****** ****** ****** ****** ****** ****** ****** ****** ****** ******
   8  ****** ****** ****** ****** ****** ****** ****** ****** ****** ******
      ****** ****** ****** ****** ****** ****** ****** ****** ****** ******
      ****** ****** ****** ****** ****** ****** ****** ****** ****** ******
   9  ****** ****** ****** ****** ****** ****** ****** ****** ****** ******
      ****** ****** ****** ****** ****** ****** ****** ****** ****** ******
      ****** ****** ****** ****** ****** ****** ****** ****** ****** ******
  10  ****** ****** ****** ****** ****** ****** ****** ****** ****** ******
      ****** ****** ****** ****** ****** ****** ****** ****** ****** ******
      ****** ****** ****** ****** ****** ****** ****** ****** ****** ******
  11  ****** ****** ****** ****** ****** ****** ****** ****** ****** ******
      ****** ****** ****** ****** ****** ****** ****** ****** ****** ******
      ****** ****** ****** ****** ****** ****** ****** ****** ****** ******
  12  ****** ****** ****** ****** ****** ****** ****** ****** ****** ******
      ****** ****** ****** ****** ****** ****** ****** ****** ****** ******
      ****** ****** ****** ****** ****** ****** ****** ****** ****** ******
  13  ****** ****** ****** ****** ****** ****** ****** ****** ****** ******
      ****** ****** ****** ****** ****** ****** ****** ****** ****** ******
      ****** ****** ****** ****** ****** ****** ****** ****** ****** ******
  14  ****** ****** ****** ****** ****** ****** ****** ****** ****** ******
      ****** ****** ****** ****** ****** ****** ****** ****** ****** ******
      ****** ****** ****** ****** ****** ****** ****** ****** ****** ******
  15  ****** ****** ****** ****** ****** ****** ****** ****** ****** ******
      ****** ****** ****** ****** ****** ****** ****** ****** ****** ******
      ****** ****** ****** ****** ****** ****** ****** ****** ****** ******
  16  ****** ****** ****** ****** ****** ****** ****** ****** ****** ******
      ****** ****** ****** ****** ****** ****** ****** ****** ****** ******
      ****** ****** ****** ****** ****** ****** ****** ****** ****** ******
  17  ****** ****** ****** ****** ****** ****** ****** ****** ****** ******
      ****** ****** ****** ****** ****** ****** ****** ****** ****** ******
      ****** ****** ****** ****** ****** ****** ****** ****** ****** ******
  18  ****** ****** ****** ****** ****** ****** ****** ****** ****** ******
      ****** ****** ****** ****** ****** ****** ****** ****** ****** ******
      ****** ****** ****** ****** ****** ****** ****** ****** ****** ******
  19  ****** ****** ****** ****** ****** ****** ****** ****** ****** ******
      ****** ****** ****** ****** ****** ****** ****** ****** ****** ******
      ****** ****** ****** ****** ****** ****** ****** ****** ****** ******
  20  ****** ****** ****** ****** ****** ****** ****** ****** ****** ******
      ****** ****** ****** ****** ****** ****** ****** ****** ****** ******
      ****** ****** ****** ****** ****** ****** ****** ****** ****** ******
  21  ****** ****** ****** ****** ****** ****** ****** ****** ****** ******
      ****** ****** ****** ****** ****** ****** ****** ****** ****** ******
      ****** ****** ****** ****** ****** ****** ****** ****** ****** ******
  22  ****** ****** ****** ****** ****** ****** ****** ****** ****** ******
      ****** ****** ****** ****** ****** ****** ****** ****** ****** ******
      ****** ****** ****** ****** ****** ****** ****** ****** ****** ******
  23  ****** ****** ****** ****** ****** ****** ****** ****** ****** ******
      ****** ****** ****** ****** ****** ****** ****** ****** ****** ******
      ****** ****** ****** ****** ****** ****** ****** ****** ****** ******
  24  ****** ****** ****** ****** ****** ****** ****** ****** ****** ******
      ****** ****** ****** ****** ****** ****** ****** ****** ****** ******
      ****** ****** ****** ****** ****** ****** ****** ****** ****** ******
  25  ****** ****** ****** ****** ****** ****** ****** ****** ****** ******
      ****** ****** ****** ****** ****** ****** ****** ****** ****** ******
      ****** ****** ****** ****** ****** ****** ****** ****** ****** ******

 HEAD WILL BE SAVED ON UNIT   51 AT END OF TIME STEP    1, STRESS PERIOD    2
1
  VOLUMETRIC BUDGET FOR ENTIRE MODEL AT END OF TIME STEP    1, STRESS PERIOD   2
  ------------------------------------------------------------------------------

     CUMULATIVE VOLUMES      L**3       RATES FOR THIS TIME STEP      L**3/T
     ------------------                 ------------------------

           IN:                                      IN:
           ---                                      ---
             STORAGE =    20044098.9537               STORAGE =        7722.8971
       CONSTANT HEAD =   212883089.0845         CONSTANT HEAD =     1191949.5555
               WELLS =           0.0000                 WELLS =           0.0000
            RECHARGE =     6292800.0000              RECHARGE =       55200.0000
      STREAM LEAKAGE =           0.0000        STREAM LEAKAGE =           0.0000

            TOTAL IN =   239219988.0383              TOTAL IN =     1254872.4526

          OUT:                                     OUT:
          ----                                     ----
             STORAGE =       42800.9264               STORAGE =         470.3399
       CONSTANT HEAD =           0.0000         CONSTANT HEAD =           0.0000
               WELLS =    14640000.0000                 WELLS =       80000.0000
            RECHARGE =           0.0000              RECHARGE =           0.0000
      STREAM LEAKAGE =   224537190.6291        STREAM LEAKAGE =     1174402.1315

           TOTAL OUT =   239219991.5555             TOTAL OUT =     1254872.4714

            IN - OUT =          -3.5172              IN - OUT =      -1.8727E-02

 PERCENT DISCREPANCY =          -0.00     PERCENT DISCREPANCY =          -0.00






         TIME SUMMARY AT END OF TIME STEP    1 IN STRESS PERIOD    2
                    SECONDS     MINUTES      HOURS       DAYS        YEARS
                    -----------------------------------------------------------
   TIME STEP LENGTH 7.86240E+06 1.31040E+05  2184.0      91.000     0.24914    
 STRESS PERIOD TIME 7.86240E+06 1.31040E+05  2184.0      91.000     0.24914    
         TOTAL TIME 1.58112E+07 2.63520E+05  4392.0      183.00     0.50103    
1
1
                            STRESS PERIOD NO.    3, LENGTH =   91.00000    
                            -----------------------------------------------

                              NUMBER OF TIME STEPS =     1

                               MULTIPLIER FOR DELT =     1.500

                            INITIAL TIME STEP SIZE =   91.00000    

 WELL NO.  LAYER   ROW   COL   STRESS RATE         
 --------------------------------------------------
      1      1      6     12     -0.5000E+05
      2      1     20     28     -0.3000E+05

      2 WELLS

                 RECHARGE =   0.00000    

 REUSING STREAM SEGMENT DATA FROM LAST STRESS PERIOD
 
 SOLVING FOR HEAD 


     6 CALLS TO PCG ROUTINE FOR TIME STEP   1 IN STRESS PERIOD    3
    23 TOTAL ITERATIONS

 OUTPUT CONTROL FOR STRESS PERIOD    3   TIME STEP    1
    SAVE BUDGET
    SAVE HEAD FOR ALL LAYERS
    PRINT HEAD FOR ALL LAYERS
 UBDSV2 SAVING "STREAMFLOW OUT  " ON UNIT  50 AT TIME STEP  1, STRESS PERIOD   3



 STREAM LISTING     PERIOD      3   STEP        1

 LAYER ROW COL. STREAM  RCH.  FLOW INTO     FLOW TO   FLOW OUT OF   OVRLND.     DIRECT     STREAM       STREAM     STREAM     STREAM   STREAMBED  STREAMBED
                SEG.NO.  NO.  STRM. RCH.    AQUIFER    STRM. RCH.    RUNOFF     PRECIP       ET          HEAD       DEPTH      WIDTH   CONDCTNC.   GRADIENT

   1   13    1     1     1    1.0000E+05 -2.6822E+04   1.2682E+05  0.000E+00  0.000E+00  0.000E+00  4.84174E+01  1.560E-01  2.000E+01  2.000E+04 -1.341E+00
   1   13    2     1     2    1.2682E+05 -3.6239E+04   1.6306E+05  0.000E+00  0.000E+00  0.000E+00  4.79648E+01  1.807E-01  2.000E+01  2.000E+04 -1.812E+00
   1   14    3     1     3    1.6306E+05 -3.1905E+04   1.9497E+05  0.000E+00  0.000E+00  0.000E+00  4.75120E+01  2.051E-01  2.000E+01  2.000E+04 -1.595E+00
   1   15    4     1     4    1.9497E+05 -3.1309E+04   2.2627E+05  0.000E+00  0.000E+00  0.000E+00  4.70557E+01  2.262E-01  2.000E+01  2.000E+04 -1.565E+00
   1   16    5     1     5    2.2627E+05 -3.3112E+04   2.5939E+05  0.000E+00  0.000E+00  0.000E+00  4.65986E+01  2.463E-01  2.000E+01  2.000E+04 -1.656E+00
   1   16    6     1     6    2.5939E+05 -2.8816E+04   2.8820E+05  0.000E+00  0.000E+00  0.000E+00  4.61397E+01  2.647E-01  2.000E+01  2.000E+04 -1.441E+00
   1   16    7     1     7    2.8820E+05 -2.8571E+04   3.1677E+05  0.000E+00  0.000E+00  0.000E+00  4.56788E+01  2.810E-01  2.000E+01  2.000E+04 -1.429E+00
   1   16    8     1     8    3.1677E+05 -2.8703E+04   3.4548E+05  0.000E+00  0.000E+00  0.000E+00  4.52172E+01  2.967E-01  2.000E+01  2.000E+04 -1.435E+00
   1   16    9     1     9    3.4548E+05 -2.8758E+04   3.7423E+05  0.000E+00  0.000E+00  0.000E+00  4.47551E+01  3.119E-01  2.000E+01  2.000E+04 -1.438E+00
   1   16   10     1    10    3.7423E+05 -2.8794E+04   4.0303E+05  0.000E+00  0.000E+00  0.000E+00  4.42925E+01  3.266E-01  2.000E+01  2.000E+04 -1.440E+00
   1   16   11     1    11    4.0303E+05 -2.9448E+04   4.3248E+05  0.000E+00  0.000E+00  0.000E+00  4.38297E+01  3.411E-01  2.000E+01  2.000E+04 -1.472E+00
   1   16   12     1    12    4.3248E+05 -3.5006E+04   4.6748E+05  0.000E+00  0.000E+00  0.000E+00  4.33680E+01  3.566E-01  2.000E+01  2.000E+04 -1.750E+00
   1   15   13     1    13    4.6748E+05 -3.3253E+04   5.0073E+05  0.000E+00  0.000E+00  0.000E+00  4.29067E+01  3.726E-01  2.000E+01  2.000E+04 -1.663E+00
   1   14   14     1    14    5.0073E+05 -3.3446E+04   5.3418E+05  0.000E+00  0.000E+00  0.000E+00  4.24447E+01  3.878E-01  2.000E+01  2.000E+04 -1.672E+00
   1   13   15     1    15    5.3418E+05 -3.5310E+04   5.6949E+05  0.000E+00  0.000E+00  0.000E+00  4.19826E+01  4.031E-01  2.000E+01  2.000E+04 -1.766E+00
   1   12   16     1    16    5.6949E+05 -4.0989E+04   6.1048E+05  0.000E+00  0.000E+00  0.000E+00  4.15219E+01  4.196E-01  2.000E+01  2.000E+04 -2.049E+00
   1   12   17     1    17    6.1048E+05 -3.2456E+04   6.4294E+05  0.000E+00  0.000E+00  0.000E+00  4.10601E+01  4.351E-01  2.000E+01  2.000E+04 -1.623E+00
   1   12   18     1    18    6.4294E+05 -3.1189E+04   6.7412E+05  0.000E+00  0.000E+00  0.000E+00  4.05959E+01  4.482E-01  2.000E+01  2.000E+04 -1.559E+00
   1   12   19     1    19    6.7412E+05 -3.5363E+04   7.0949E+05  0.000E+00  0.000E+00  0.000E+00  4.01321E+01  4.617E-01  2.000E+01  2.000E+04 -1.768E+00
   1   13   20     1    20    7.0949E+05 -2.6093E+04   7.3558E+05  0.000E+00  0.000E+00  0.000E+00  3.96670E+01  4.738E-01  2.000E+01  2.000E+04 -1.305E+00
   1   14   21     1    21    7.3558E+05 -1.9198E+04   7.5478E+05  0.000E+00  0.000E+00  0.000E+00  3.91986E+01  4.827E-01  2.000E+01  2.000E+04 -9.599E-01
   1   14   22     1    22    7.5478E+05 -1.5770E+03   7.5636E+05  0.000E+00  0.000E+00  0.000E+00  3.87254E+01  4.867E-01  2.000E+01  2.000E+04 -7.885E-02
   1    9   30     2     1    5.0000E+04 -2.6246E+04   7.6246E+04  0.000E+00  0.000E+00  0.000E+00  4.02583E+01  1.333E-01  2.000E+01  2.000E+04 -1.312E+00
   1    9   29     2     2    7.6246E+04 -2.8708E+04   1.0495E+05  0.000E+00  0.000E+00  0.000E+00  4.00405E+01  1.655E-01  2.000E+01  2.000E+04 -1.435E+00
   1    9   28     2     3    1.0495E+05 -3.2969E+04   1.3792E+05  0.000E+00  0.000E+00  0.000E+00  3.98223E+01  1.973E-01  2.000E+01  2.000E+04 -1.648E+00
   1    9   27     2     4    1.3792E+05 -4.6971E+04   1.8489E+05  0.000E+00  0.000E+00  0.000E+00  3.96091E+01  2.341E-01  2.000E+01  2.000E+04 -2.349E+00
   1   10   26     2     5    1.8489E+05 -3.2885E+04   2.1778E+05  0.000E+00  0.000E+00  0.000E+00  3.93923E+01  2.673E-01  2.000E+01  2.000E+04 -1.644E+00
   1   11   25     2     6    2.1778E+05 -2.4520E+04   2.4230E+05  0.000E+00  0.000E+00  0.000E+00  3.91645E+01  2.895E-01  2.000E+01  2.000E+04 -1.226E+00
   1   12   24     2     7    2.4230E+05 -1.7984E+04   2.6028E+05  0.000E+00  0.000E+00  0.000E+00  3.89303E+01  3.053E-01  2.000E+01  2.000E+04 -8.992E-01
   1   13   23     2     8    2.6028E+05 -1.2722E+04   2.7300E+05  0.000E+00  0.000E+00  0.000E+00  3.86913E+01  3.163E-01  2.000E+01  2.000E+04 -6.361E-01
   1   14   22     2     9    2.7300E+05 -7.1176E+03   2.8012E+05  0.000E+00  0.000E+00  0.000E+00  3.84483E+01  3.233E-01  2.000E+01  2.000E+04 -3.559E-01
   1   14   22     3     1    1.0365E+06 -1.5166E+04   1.0516E+06  0.000E+00  0.000E+00  0.000E+00  3.80459E+01  4.904E-01  2.000E+01  2.000E+04 -7.583E-01
   1   15   23     3     2    1.0516E+06 -2.2996E+04   1.0746E+06  0.000E+00  0.000E+00  0.000E+00  3.71624E+01  4.957E-01  2.000E+01  2.000E+04 -1.150E+00
   1   15   24     3     3    1.0746E+06 -1.9035E+04   1.0937E+06  0.000E+00  0.000E+00  0.000E+00  3.62794E+01  5.016E-01  2.000E+01  2.000E+04 -9.517E-01
   1   15   25     3     4    1.0937E+06 -1.8554E+04   1.1122E+06  0.000E+00  0.000E+00  0.000E+00  3.53957E+01  5.068E-01  2.000E+01  2.000E+04 -9.277E-01
   1   15   26     3     5    1.1122E+06 -2.1188E+04   1.1334E+06  0.000E+00  0.000E+00  0.000E+00  3.45123E+01  5.123E-01  2.000E+01  2.000E+04 -1.059E+00
   1   16   27     3     6    1.1334E+06 -2.7419E+04   1.1608E+06  0.000E+00  0.000E+00  0.000E+00  3.36300E+01  5.189E-01  2.000E+01  2.000E+04 -1.371E+00
   1   17   28     3     7    1.1608E+06 -3.2920E+04   1.1938E+06  0.000E+00  0.000E+00  0.000E+00  3.27492E+01  5.270E-01  2.000E+01  2.000E+04 -1.646E+00
   1   18   29     3     8    1.1938E+06 -4.1811E+04   1.2356E+06  0.000E+00  0.000E+00  0.000E+00  3.18703E+01  5.370E-01  2.000E+01  2.000E+04 -2.091E+00
   1   18   30     3     9    1.2356E+06 -3.9914E+04   1.2755E+06  0.000E+00  0.000E+00  0.000E+00  3.09922E+01  5.478E-01  2.000E+01  2.000E+04 -1.996E+00



1
              HEAD IN LAYER   1 AT END OF TIME STEP   1 IN STRESS PERIOD    3
  ---------------------------------------------------------------------------

          1      2      3      4      5      6      7      8      9     10
         11     12     13     14     15     16     17     18     19     20
         21     22     23     24     25     26     27     28     29     30
 .........................................................................
   1  ****** ****** ****** ****** ****** ****** ****** ****** ****** ******
      ****** ****** ****** ****** ****** ****** ****** ****** ****** ******
      ****** ****** ****** ****** ****** ****** ****** ****** ****** ******
   2  ****** ****** ****** ****** ****** ****** ****** ****** ****** ******
      ****** ****** ****** ****** ****** ****** ****** ****** ****** ******
      ****** ****** ****** ****** ****** ****** ****** ****** ****** ******
   3  ****** ****** ****** ****** ****** ****** ****** ****** ****** ******
      ****** ****** ****** ****** ****** ****** ****** ****** ****** ******
      ****** ****** ****** ****** ****** ****** ****** ****** ****** ******
   4  ****** ****** ****** ****** ****** ****** ****** ****** ****** ******
      ****** ****** ****** ****** ****** ****** ****** ****** ****** ******
      ****** ****** ****** ****** ****** ****** ****** ****** ****** ******
   5  ****** ****** ****** ****** ****** ****** ****** ****** ****** ******
      ****** ****** ****** ****** ****** ****** ****** ****** ****** ******
      ****** ****** ****** ****** ****** ****** ****** ****** ****** ******
   6  ****** ****** ****** ****** ****** ****** ****** ****** ****** ******
      ****** ****** ****** ****** ****** ****** ****** ****** ****** ******
      ****** ****** ****** ****** ****** ****** ****** ****** ****** ******
   7  ****** ****** ****** ****** ****** ****** ****** ****** ****** ******
      ****** ****** ****** ****** ****** ****** ****** ****** ****** ******
      ****** ****** ****** ****** ****** ****** ****** ****** ****** ******
   8  ****** ****** ****** ****** ****** ****** ****** ****** ****** ******
      ****** ****** ****** ****** ****** ****** ****** ****** ****** ******
      ****** ****** ****** ****** ****** ****** ****** ****** ****** ******
   9  ****** ****** ****** ****** ****** ****** ****** ****** ****** ******
      ****** ****** ****** ****** ****** ****** ****** ****** ****** ******
      ****** ****** ****** ****** ****** ****** ****** ****** ****** ******
  10  ****** ****** ****** ****** ****** ****** ****** ****** ****** ******
      ****** ****** ****** ****** ****** ****** ****** ****** ****** ******
      ****** ****** ****** ****** ****** ****** ****** ****** ****** ******
  11  ****** ****** ****** ****** ****** ****** ****** ****** ****** ******
      ****** ****** ****** ****** ****** ****** ****** ****** ****** ******
      ****** ****** ****** ****** ****** ****** ****** ****** ****** ******
  12  ****** ****** ****** ****** ****** ****** ****** ****** ****** ******
      ****** ****** ****** ****** ****** ****** ****** ****** ****** ******
      ****** ****** ****** ****** ****** ****** ****** ****** ****** ******
  13  ****** ****** ****** ****** ****** ****** ****** ****** ****** ******
      ****** ****** ****** ****** ****** ****** ****** ****** ****** ******
      ****** ****** ****** ****** ****** ****** ****** ****** ****** ******
  14  ****** ****** ****** ****** ****** ****** ****** ****** ****** ******
      ****** ****** ****** ****** ****** ****** ****** ****** ****** ******
      ****** ****** ****** ****** ****** ****** ****** ****** ****** ******
  15  ****** ****** ****** ****** ****** ****** ****** ****** ****** ******
      ****** ****** ****** ****** ****** ****** ****** ****** ****** ******
      ****** ****** ****** ****** ****** ****** ****** ****** ****** ******
  16  ****** ****** ****** ****** ****** ****** ****** ****** ****** ******
      ****** ****** ****** ****** ****** ****** ****** ****** ****** ******
      ****** ****** ****** ****** ****** ****** ****** ****** ****** ******
  17  ****** ****** ****** ****** ****** ****** ****** ****** ****** ******
      ****** ****** ****** ****** ****** ****** ****** ****** ****** ******
      ****** ****** ****** ****** ****** ****** ****** ****** ****** ******
  18  ****** ****** ****** ****** ****** ****** ****** ****** ****** ******
      ****** ****** ****** ****** ****** ****** ****** ****** ****** ******
      ****** ****** ****** ****** ****** ****** ****** ****** ****** ******
  19  ****** ****** ****** ****** ****** ****** ****** ****** ****** ******
      ****** ****** ****** ****** ****** ****** ****** ****** ****** ******
      ****** ****** ****** ****** ****** ****** ****** ****** ****** ******
  20  ****** ****** ****** ****** ****** ****** ****** ****** ****** ******
      ****** ****** ****** ****** ****** ****** ****** ****** ****** ******
      ****** ****** ****** ****** ****** ****** ****** ****** ****** ******
  21  ****** ****** ****** ****** ****** ****** ****** ****** ****** ******
      ****** ****** ****** ****** ****** ****** ****** ****** ****** ******
      ****** ****** ****** ****** ****** ****** ****** ****** ****** ******
  22  ****** ****** ****** ****** ****** ****** ****** ****** ****** ******
      ****** ****** ****** ****** ****** ****** ****** ****** ****** ******
      ****** ****** ****** ****** ****** ****** ****** ****** ****** ******
  23  ****** ****** ****** ****** ****** ****** ****** ****** ****** ******
      ****** ****** ****** ****** ****** ****** ****** ****** ****** ******
      ****** ****** ****** ****** ****** ****** ****** ****** ****** ******
  24  ****** ****** ****** ****** ****** ****** ****** ****** ****** ******
      ****** ****** ****** ****** ****** ****** ****** ****** ****** ******
      ****** ****** ****** ****** ****** ****** ****** ****** ****** ******
  25  ****** ****** ****** ****** ****** ****** ****** ****** ****** ******
      ****** ****** ****** ****** ****** ****** ****** ****** ****** ******
      ****** ****** ****** ****** ****** ****** ****** ****** ****** ******

 HEAD WILL BE SAVED ON UNIT   51 AT END OF TIME STEP    1, STRESS PERIOD    3
1
  VOLUMETRIC BUDGET FOR ENTIRE MODEL AT END OF TIME STEP    1, STRESS PERIOD   3
  ------------------------------------------------------------------------------

     CUMULATIVE VOLUMES      L**3       RATES FOR THIS TIME STEP      L**3/T
     ------------------                 ------------------------

           IN:                                      IN:
           ---                                      ---
             STORAGE =    20380571.2687               STORAGE =        3697.4980
       CONSTANT HEAD =   322266953.9814         CONSTANT HEAD =     1202020.4934
               WELLS =           0.0000                 WELLS =           0.0000
            RECHARGE =     6292800.0000              RECHARGE =           0.0000
      STREAM LEAKAGE =           0.0000        STREAM LEAKAGE =           0.0000

            TOTAL IN =   348940325.2502              TOTAL IN =     1205717.9913

          OUT:                                     OUT:
          ----                                     ----
             STORAGE =       64459.8242               STORAGE =         238.0099
       CONSTANT HEAD =           0.0000         CONSTANT HEAD =           0.0000
               WELLS =    21920000.0000                 WELLS =       80000.0000
            RECHARGE =           0.0000              RECHARGE =           0.0000
      STREAM LEAKAGE =   326955872.4240        STREAM LEAKAGE =     1125480.0197

           TOTAL OUT =   348940332.2482             TOTAL OUT =     1205718.0296

            IN - OUT =          -6.9980              IN - OUT =      -3.8250E-02

 PERCENT DISCREPANCY =          -0.00     PERCENT DISCREPANCY =          -0.00






         TIME SUMMARY AT END OF TIME STEP    1 IN STRESS PERIOD    3
                    SECONDS     MINUTES      HOURS       DAYS        YEARS
                    -----------------------------------------------------------
   TIME STEP LENGTH 7.86240E+06 1.31040E+05  2184.0      91.000     0.24914    
 STRESS PERIOD TIME 7.86240E+06 1.31040E+05  2184.0      91.000     0.24914    
         TOTAL TIME 2.36736E+07 3.94560E+05  6576.0      274.00     0.75017    
1
1
                            STRESS PERIOD NO.    4, LENGTH =   91.00000    
                            -----------------------------------------------

                              NUMBER OF TIME STEPS =     1

                               MULTIPLIER FOR DELT =     1.500

                            INITIAL TIME STEP SIZE =   91.00000    

 WELL NO.  LAYER   ROW   COL   STRESS RATE         
 --------------------------------------------------
      1      1      6     12     -0.5000E+05
      2      1     20     28       0.000    
      3      1      2      2     -0.3500E+05

      3 WELLS

                 RECHARGE =  1.000000E-03

 REUSING STREAM SEGMENT DATA FROM LAST STRESS PERIOD
 
 SOLVING FOR HEAD 


     6 CALLS TO PCG ROUTINE FOR TIME STEP   1 IN STRESS PERIOD    4
    22 TOTAL ITERATIONS

 OUTPUT CONTROL FOR STRESS PERIOD    4   TIME STEP    1
    SAVE BUDGET
    SAVE HEAD FOR ALL LAYERS
    PRINT HEAD FOR ALL LAYERS
 UBDSV2 SAVING "STREAMFLOW OUT  " ON UNIT  50 AT TIME STEP  1, STRESS PERIOD   4



 STREAM LISTING     PERIOD      4   STEP        1

 LAYER ROW COL. STREAM  RCH.  FLOW INTO     FLOW TO   FLOW OUT OF   OVRLND.     DIRECT     STREAM       STREAM     STREAM     STREAM   STREAMBED  STREAMBED
                SEG.NO.  NO.  STRM. RCH.    AQUIFER    STRM. RCH.    RUNOFF     PRECIP       ET          HEAD       DEPTH      WIDTH   CONDCTNC.   GRADIENT

   1   13    1     1     1    1.0000E+05 -2.6851E+04   1.2685E+05  0.000E+00  0.000E+00  0.000E+00  4.84174E+01  1.560E-01  2.000E+01  2.000E+04 -1.343E+00
   1   13    2     1     2    1.2685E+05 -3.6269E+04   1.6312E+05  0.000E+00  0.000E+00  0.000E+00  4.79649E+01  1.808E-01  2.000E+01  2.000E+04 -1.813E+00
   1   14    3     1     3    1.6312E+05 -3.2102E+04   1.9522E+05  0.000E+00  0.000E+00  0.000E+00  4.75121E+01  2.053E-01  2.000E+01  2.000E+04 -1.605E+00
   1   15    4     1     4    1.9522E+05 -3.1589E+04   2.2681E+05  0.000E+00  0.000E+00  0.000E+00  4.70560E+01  2.264E-01  2.000E+01  2.000E+04 -1.579E+00
   1   16    5     1     5    2.2681E+05 -3.3433E+04   2.6024E+05  0.000E+00  0.000E+00  0.000E+00  4.65990E+01  2.467E-01  2.000E+01  2.000E+04 -1.672E+00
   1   16    6     1     6    2.6024E+05 -2.9084E+04   2.8933E+05  0.000E+00  0.000E+00  0.000E+00  4.61403E+01  2.653E-01  2.000E+01  2.000E+04 -1.454E+00
   1   16    7     1     7    2.8933E+05 -2.8837E+04   3.1817E+05  0.000E+00  0.000E+00  0.000E+00  4.56795E+01  2.817E-01  2.000E+01  2.000E+04 -1.442E+00
   1   16    8     1     8    3.1817E+05 -2.8976E+04   3.4714E+05  0.000E+00  0.000E+00  0.000E+00  4.52180E+01  2.975E-01  2.000E+01  2.000E+04 -1.449E+00
   1   16    9     1     9    3.4714E+05 -2.9042E+04   3.7618E+05  0.000E+00  0.000E+00  0.000E+00  4.47560E+01  3.128E-01  2.000E+01  2.000E+04 -1.452E+00
   1   16   10     1    10    3.7618E+05 -2.9093E+04   4.0528E+05  0.000E+00  0.000E+00  0.000E+00  4.42936E+01  3.277E-01  2.000E+01  2.000E+04 -1.455E+00
   1   16   11     1    11    4.0528E+05 -2.9770E+04   4.3505E+05  0.000E+00  0.000E+00  0.000E+00  4.38309E+01  3.423E-01  2.000E+01  2.000E+04 -1.488E+00
   1   16   12     1    12    4.3505E+05 -3.5417E+04   4.7046E+05  0.000E+00  0.000E+00  0.000E+00  4.33693E+01  3.580E-01  2.000E+01  2.000E+04 -1.771E+00
   1   15   13     1    13    4.7046E+05 -3.3688E+04   5.0415E+05  0.000E+00  0.000E+00  0.000E+00  4.29082E+01  3.741E-01  2.000E+01  2.000E+04 -1.684E+00
   1   14   14     1    14    5.0415E+05 -3.3888E+04   5.3804E+05  0.000E+00  0.000E+00  0.000E+00  4.24463E+01  3.895E-01  2.000E+01  2.000E+04 -1.694E+00
   1   13   15     1    15    5.3804E+05 -3.5742E+04   5.7378E+05  0.000E+00  0.000E+00  0.000E+00  4.19844E+01  4.049E-01  2.000E+01  2.000E+04 -1.787E+00
   1   12   16     1    16    5.7378E+05 -4.1389E+04   6.1517E+05  0.000E+00  0.000E+00  0.000E+00  4.15238E+01  4.215E-01  2.000E+01  2.000E+04 -2.069E+00
   1   12   17     1    17    6.1517E+05 -3.2811E+04   6.4798E+05  0.000E+00  0.000E+00  0.000E+00  4.10621E+01  4.371E-01  2.000E+01  2.000E+04 -1.641E+00
   1   12   18     1    18    6.4798E+05 -3.1546E+04   6.7953E+05  0.000E+00  0.000E+00  0.000E+00  4.05981E+01  4.503E-01  2.000E+01  2.000E+04 -1.577E+00
   1   12   19     1    19    6.7953E+05 -3.5761E+04   7.1529E+05  0.000E+00  0.000E+00  0.000E+00  4.01343E+01  4.639E-01  2.000E+01  2.000E+04 -1.788E+00
   1   13   20     1    20    7.1529E+05 -2.6532E+04   7.4182E+05  0.000E+00  0.000E+00  0.000E+00  3.96694E+01  4.762E-01  2.000E+01  2.000E+04 -1.327E+00
   1   14   21     1    21    7.4182E+05 -1.9681E+04   7.6150E+05  0.000E+00  0.000E+00  0.000E+00  3.92011E+01  4.852E-01  2.000E+01  2.000E+04 -9.841E-01
   1   14   22     1    22    7.6150E+05 -1.7753E+03   7.6328E+05  0.000E+00  0.000E+00  0.000E+00  3.87280E+01  4.894E-01  2.000E+01  2.000E+04 -8.876E-02
   1    9   30     2     1    5.0000E+04 -2.6573E+04   7.6573E+04  0.000E+00  0.000E+00  0.000E+00  4.02585E+01  1.335E-01  2.000E+01  2.000E+04 -1.329E+00
   1    9   29     2     2    7.6573E+04 -2.9031E+04   1.0560E+05  0.000E+00  0.000E+00  0.000E+00  4.00411E+01  1.661E-01  2.000E+01  2.000E+04 -1.452E+00
   1    9   28     2     3    1.0560E+05 -3.3294E+04   1.3890E+05  0.000E+00  0.000E+00  0.000E+00  3.98231E+01  1.981E-01  2.000E+01  2.000E+04 -1.665E+00
   1    9   27     2     4    1.3890E+05 -4.7348E+04   1.8625E+05  0.000E+00  0.000E+00  0.000E+00  3.96101E+01  2.351E-01  2.000E+01  2.000E+04 -2.367E+00
   1   10   26     2     5    1.8625E+05 -3.3297E+04   2.1954E+05  0.000E+00  0.000E+00  0.000E+00  3.93935E+01  2.685E-01  2.000E+01  2.000E+04 -1.665E+00
   1   11   25     2     6    2.1954E+05 -2.4929E+04   2.4447E+05  0.000E+00  0.000E+00  0.000E+00  3.91660E+01  2.910E-01  2.000E+01  2.000E+04 -1.246E+00
   1   12   24     2     7    2.4447E+05 -1.8361E+04   2.6283E+05  0.000E+00  0.000E+00  0.000E+00  3.89320E+01  3.070E-01  2.000E+01  2.000E+04 -9.180E-01
   1   13   23     2     8    2.6283E+05 -1.3047E+04   2.7588E+05  0.000E+00  0.000E+00  0.000E+00  3.86933E+01  3.183E-01  2.000E+01  2.000E+04 -6.523E-01
   1   14   22     2     9    2.7588E+05 -7.3269E+03   2.8321E+05  0.000E+00  0.000E+00  0.000E+00  3.84504E+01  3.254E-01  2.000E+01  2.000E+04 -3.663E-01
   1   14   22     3     1    1.0465E+06 -1.5360E+04   1.0618E+06  0.000E+00  0.000E+00  0.000E+00  3.80488E+01  4.932E-01  2.000E+01  2.000E+04 -7.680E-01
   1   15   23     3     2    1.0618E+06 -2.3749E+04   1.0856E+06  0.000E+00  0.000E+00  0.000E+00  3.71654E+01  4.987E-01  2.000E+01  2.000E+04 -1.187E+00
   1   15   24     3     3    1.0856E+06 -1.9772E+04   1.1054E+06  0.000E+00  0.000E+00  0.000E+00  3.62825E+01  5.047E-01  2.000E+01  2.000E+04 -9.886E-01
   1   15   25     3     4    1.1054E+06 -1.9367E+04   1.1247E+06  0.000E+00  0.000E+00  0.000E+00  3.53990E+01  5.101E-01  2.000E+01  2.000E+04 -9.684E-01
   1   15   26     3     5    1.1247E+06 -2.2130E+04   1.1469E+06  0.000E+00  0.000E+00  0.000E+00  3.45158E+01  5.158E-01  2.000E+01  2.000E+04 -1.106E+00
   1   16   27     3     6    1.1469E+06 -2.9301E+04   1.1762E+06  0.000E+00  0.000E+00  0.000E+00  3.36339E+01  5.228E-01  2.000E+01  2.000E+04 -1.465E+00
   1   17   28     3     7    1.1762E+06 -3.6339E+04   1.2125E+06  0.000E+00  0.000E+00  0.000E+00  3.27538E+01  5.316E-01  2.000E+01  2.000E+04 -1.817E+00
   1   18   29     3     8    1.2125E+06 -4.7295E+04   1.2598E+06  0.000E+00  0.000E+00  0.000E+00  3.18760E+01  5.427E-01  2.000E+01  2.000E+04 -2.365E+00
   1   18   30     3     9    1.2598E+06 -4.3728E+04   1.3035E+06  0.000E+00  0.000E+00  0.000E+00  3.09990E+01  5.546E-01  2.000E+01  2.000E+04 -2.186E+00



1
              HEAD IN LAYER   1 AT END OF TIME STEP   1 IN STRESS PERIOD    4
  ---------------------------------------------------------------------------

          1      2      3      4      5      6      7      8      9     10
         11     12     13     14     15     16     17     18     19     20
         21     22     23     24     25     26     27     28     29     30
 .........................................................................
   1  ****** ****** ****** ****** ****** ****** ****** ****** ****** ******
      ****** ****** ****** ****** ****** ****** ****** ****** ****** ******
      ****** ****** ****** ****** ****** ****** ****** ****** ****** ******
   2  ****** ****** ****** ****** ****** ****** ****** ****** ****** ******
      ****** ****** ****** ****** ****** ****** ****** ****** ****** ******
      ****** ****** ****** ****** ****** ****** ****** ****** ****** ******
   3  ****** ****** ****** ****** ****** ****** ****** ****** ****** ******
      ****** ****** ****** ****** ****** ****** ****** ****** ****** ******
      ****** ****** ****** ****** ****** ****** ****** ****** ****** ******
   4  ****** ****** ****** ****** ****** ****** ****** ****** ****** ******
      ****** ****** ****** ****** ****** ****** ****** ****** ****** ******
      ****** ****** ****** ****** ****** ****** ****** ****** ****** ******
   5  ****** ****** ****** ****** ****** ****** ****** ****** ****** ******
      ****** ****** ****** ****** ****** ****** ****** ****** ****** ******
      ****** ****** ****** ****** ****** ****** ****** ****** ****** ******
   6  ****** ****** ****** ****** ****** ****** ****** ****** ****** ******
      ****** ****** ****** ****** ****** ****** ****** ****** ****** ******
      ****** ****** ****** ****** ****** ****** ****** ****** ****** ******
   7  ****** ****** ****** ****** ****** ****** ****** ****** ****** ******
      ****** ****** ****** ****** ****** ****** ****** ****** ****** ******
      ****** ****** ****** ****** ****** ****** ****** ****** ****** ******
   8  ****** ****** ****** ****** ****** ****** ****** ****** ****** ******
      ****** ****** ****** ****** ****** ****** ****** ****** ****** ******
      ****** ****** ****** ****** ****** ****** ****** ****** ****** ******
   9  ****** ****** ****** ****** ****** ****** ****** ****** ****** ******
      ****** ****** ****** ****** ****** ****** ****** ****** ****** ******
      ****** ****** ****** ****** ****** ****** ****** ****** ****** ******
  10  ****** ****** ****** ****** ****** ****** ****** ****** ****** ******
      ****** ****** ****** ****** ****** ****** ****** ****** ****** ******
      ****** ****** ****** ****** ****** ****** ****** ****** ****** ******
  11  ****** ****** ****** ****** ****** ****** ****** ****** ****** ******
      ****** ****** ****** ****** ****** ****** ****** ****** ****** ******
      ****** ****** ****** ****** ****** ****** ****** ****** ****** ******
  12  ****** ****** ****** ****** ****** ****** ****** ****** ****** ******
      ****** ****** ****** ****** ****** ****** ****** ****** ****** ******
      ****** ****** ****** ****** ****** ****** ****** ****** ****** ******
  13  ****** ****** ****** ****** ****** ****** ****** ****** ****** ******
      ****** ****** ****** ****** ****** ****** ****** ****** ****** ******
      ****** ****** ****** ****** ****** ****** ****** ****** ****** ******
  14  ****** ****** ****** ****** ****** ****** ****** ****** ****** ******
      ****** ****** ****** ****** ****** ****** ****** ****** ****** ******
      ****** ****** ****** ****** ****** ****** ****** ****** ****** ******
  15  ****** ****** ****** ****** ****** ****** ****** ****** ****** ******
      ****** ****** ****** ****** ****** ****** ****** ****** ****** ******
      ****** ****** ****** ****** ****** ****** ****** ****** ****** ******
  16  ****** ****** ****** ****** ****** ****** ****** ****** ****** ******
      ****** ****** ****** ****** ****** ****** ****** ****** ****** ******
      ****** ****** ****** ****** ****** ****** ****** ****** ****** ******
  17  ****** ****** ****** ****** ****** ****** ****** ****** ****** ******
      ****** ****** ****** ****** ****** ****** ****** ****** ****** ******
      ****** ****** ****** ****** ****** ****** ****** ****** ****** ******
  18  ****** ****** ****** ****** ****** ****** ****** ****** ****** ******
      ****** ****** ****** ****** ****** ****** ****** ****** ****** ******
      ****** ****** ****** ****** ****** ****** ****** ****** ****** ******
  19  ****** ****** ****** ****** ****** ****** ****** ****** ****** ******
      ****** ****** ****** ****** ****** ****** ****** ****** ****** ******
      ****** ****** ****** ****** ****** ****** ****** ****** ****** ******
  20  ****** ****** ****** ****** ****** ****** ****** ****** ****** ******
      ****** ****** ****** ****** ****** ****** ****** ****** ****** ******
      ****** ****** ****** ****** ****** ****** ****** ****** ****** ******
  21  ****** ****** ****** ****** ****** ****** ****** ****** ****** ******
      ****** ****** ****** ****** ****** ****** ****** ****** ****** ******
      ****** ****** ****** ****** ****** ****** ****** ****** ****** ******
  22  ****** ****** ****** ****** ****** ****** ****** ****** ****** ******
      ****** ****** ****** ****** ****** ****** ****** ****** ****** ******
      ****** ****** ****** ****** ****** ****** ****** ****** ****** ******
  23  ****** ****** ****** ****** ****** ****** ****** ****** ****** ******
      ****** ****** ****** ****** ****** ****** ****** ****** ****** ******
      ****** ****** ****** ****** ****** ****** ****** ****** ****** ******
  24  ****** ****** ****** ****** ****** ****** ****** ****** ****** ******
      ****** ****** ****** ****** ****** ****** ****** ****** ****** ******
      ****** ****** ****** ****** ****** ****** ****** ****** ****** ******
  25  ****** ****** ****** ****** ****** ****** ****** ****** ****** ******
      ****** ****** ****** ****** ****** ****** ****** ****** ****** ******
      ****** ****** ****** ****** ****** ****** ****** ****** ****** ******

 HEAD WILL BE SAVED ON UNIT   51 AT END OF TIME STEP    1, STRESS PERIOD    4
1
  VOLUMETRIC BUDGET FOR ENTIRE MODEL AT END OF TIME STEP    1, STRESS PERIOD   4
  ------------------------------------------------------------------------------

     CUMULATIVE VOLUMES      L**3       RATES FOR THIS TIME STEP      L**3/T
     ------------------                 ------------------------

           IN:                                      IN:
           ---                                      ---
             STORAGE =    20427717.3609               STORAGE =         518.0889
       CONSTANT HEAD =   432588177.9398         CONSTANT HEAD =     1212321.1424
               WELLS =           0.0000                 WELLS =           0.0000
            RECHARGE =     8804400.0000              RECHARGE =       27600.0000
      STREAM LEAKAGE =           0.0000        STREAM LEAKAGE =           0.0000

            TOTAL IN =   461820295.3007              TOTAL IN =     1240439.2313

          OUT:                                     OUT:
          ----                                     ----
             STORAGE =      238681.4849               STORAGE =        1914.5237
       CONSTANT HEAD =           0.0000         CONSTANT HEAD =           0.0000
               WELLS =    29655045.5000                 WELLS =       85000.5000
            RECHARGE =           0.0000              RECHARGE =           0.0000
      STREAM LEAKAGE =   431926573.8489        STREAM LEAKAGE =     1153524.1915

           TOTAL OUT =   461820300.8338             TOTAL OUT =     1240439.2152

            IN - OUT =          -5.5331              IN - OUT =       1.6098E-02

 PERCENT DISCREPANCY =          -0.00     PERCENT DISCREPANCY =           0.00






         TIME SUMMARY AT END OF TIME STEP    1 IN STRESS PERIOD    4
                    SECONDS     MINUTES      HOURS       DAYS        YEARS
                    -----------------------------------------------------------
   TIME STEP LENGTH 7.86240E+06 1.31040E+05  2184.0      91.000     0.24914    
 STRESS PERIOD TIME 7.86240E+06 1.31040E+05  2184.0      91.000     0.24914    
         TOTAL TIME 3.15360E+07 5.25600E+05  8760.0      365.00     0.99932    
1
1
                            STRESS PERIOD NO.    5, LENGTH =   92.00000    
                            -----------------------------------------------

                              NUMBER OF TIME STEPS =     1

                               MULTIPLIER FOR DELT =     1.500

                            INITIAL TIME STEP SIZE =   92.00000    

 WELL NO.  LAYER   ROW   COL   STRESS RATE         
 --------------------------------------------------
      1      1      6     12     -0.5000E+05
      2      1     20     28     -0.3000E+05

      2 WELLS

                 RECHARGE =  5.000000E-04

 REUSING STREAM SEGMENT DATA FROM LAST STRESS PERIOD
 
 SOLVING FOR HEAD 


     5 CALLS TO PCG ROUTINE FOR TIME STEP   1 IN STRESS PERIOD    5
    19 TOTAL ITERATIONS

 OUTPUT CONTROL FOR STRESS PERIOD    5   TIME STEP    1
    SAVE BUDGET
    SAVE HEAD FOR ALL LAYERS
    PRINT HEAD FOR ALL LAYERS
 UBDSV2 SAVING "STREAMFLOW OUT  " ON UNIT  50 AT TIME STEP  1, STRESS PERIOD   5



 STREAM LISTING     PERIOD      5   STEP        1

 LAYER ROW COL. STREAM  RCH.  FLOW INTO     FLOW TO   FLOW OUT OF   OVRLND.     DIRECT     STREAM       STREAM     STREAM     STREAM   STREAMBED  STREAMBED
                SEG.NO.  NO.  STRM. RCH.    AQUIFER    STRM. RCH.    RUNOFF     PRECIP       ET          HEAD       DEPTH      WIDTH   CONDCTNC.   GRADIENT

   1   13    1     1     1    1.0000E+05 -2.6996E+04   1.2700E+05  0.000E+00  0.000E+00  0.000E+00  4.84174E+01  1.561E-01  2.000E+01  2.000E+04 -1.350E+00
   1   13    2     1     2    1.2700E+05 -3.6445E+04   1.6344E+05  0.000E+00  0.000E+00  0.000E+00  4.79650E+01  1.809E-01  2.000E+01  2.000E+04 -1.822E+00
   1   14    3     1     3    1.6344E+05 -3.2114E+04   1.9556E+05  0.000E+00  0.000E+00  0.000E+00  4.75123E+01  2.055E-01  2.000E+01  2.000E+04 -1.606E+00
   1   15    4     1     4    1.9556E+05 -3.1514E+04   2.2707E+05  0.000E+00  0.000E+00  0.000E+00  4.70562E+01  2.266E-01  2.000E+01  2.000E+04 -1.576E+00
   1   16    5     1     5    2.2707E+05 -3.3302E+04   2.6037E+05  0.000E+00  0.000E+00  0.000E+00  4.65991E+01  2.469E-01  2.000E+01  2.000E+04 -1.665E+00
   1   16    6     1     6    2.6037E+05 -2.8980E+04   2.8935E+05  0.000E+00  0.000E+00  0.000E+00  4.61403E+01  2.653E-01  2.000E+01  2.000E+04 -1.449E+00
   1   16    7     1     7    2.8935E+05 -2.8733E+04   3.1808E+05  0.000E+00  0.000E+00  0.000E+00  4.56794E+01  2.817E-01  2.000E+01  2.000E+04 -1.437E+00
   1   16    8     1     8    3.1808E+05 -2.8865E+04   3.4695E+05  0.000E+00  0.000E+00  0.000E+00  4.52179E+01  2.974E-01  2.000E+01  2.000E+04 -1.443E+00
   1   16    9     1     9    3.4695E+05 -2.8920E+04   3.7587E+05  0.000E+00  0.000E+00  0.000E+00  4.47559E+01  3.127E-01  2.000E+01  2.000E+04 -1.446E+00
   1   16   10     1    10    3.7587E+05 -2.8957E+04   4.0483E+05  0.000E+00  0.000E+00  0.000E+00  4.42934E+01  3.275E-01  2.000E+01  2.000E+04 -1.448E+00
   1   16   11     1    11    4.0483E+05 -2.9613E+04   4.3444E+05  0.000E+00  0.000E+00  0.000E+00  4.38307E+01  3.420E-01  2.000E+01  2.000E+04 -1.481E+00
   1   16   12     1    12    4.3444E+05 -3.5199E+04   4.6964E+05  0.000E+00  0.000E+00  0.000E+00  4.33690E+01  3.576E-01  2.000E+01  2.000E+04 -1.760E+00
   1   15   13     1    13    4.6964E+05 -3.3464E+04   5.0310E+05  0.000E+00  0.000E+00  0.000E+00  4.29078E+01  3.737E-01  2.000E+01  2.000E+04 -1.673E+00
   1   14   14     1    14    5.0310E+05 -3.3662E+04   5.3676E+05  0.000E+00  0.000E+00  0.000E+00  4.24458E+01  3.889E-01  2.000E+01  2.000E+04 -1.683E+00
   1   13   15     1    15    5.3676E+05 -3.5523E+04   5.7229E+05  0.000E+00  0.000E+00  0.000E+00  4.19838E+01  4.043E-01  2.000E+01  2.000E+04 -1.776E+00
   1   12   16     1    16    5.7229E+05 -4.1193E+04   6.1348E+05  0.000E+00  0.000E+00  0.000E+00  4.15231E+01  4.208E-01  2.000E+01  2.000E+04 -2.060E+00
   1   12   17     1    17    6.1348E+05 -3.2624E+04   6.4610E+05  0.000E+00  0.000E+00  0.000E+00  4.10614E+01  4.364E-01  2.000E+01  2.000E+04 -1.631E+00
   1   12   18     1    18    6.4610E+05 -3.1350E+04   6.7745E+05  0.000E+00  0.000E+00  0.000E+00  4.05973E+01  4.495E-01  2.000E+01  2.000E+04 -1.568E+00
   1   12   19     1    19    6.7745E+05 -3.5542E+04   7.1300E+05  0.000E+00  0.000E+00  0.000E+00  4.01335E+01  4.630E-01  2.000E+01  2.000E+04 -1.777E+00
   1   13   20     1    20    7.1300E+05 -2.6263E+04   7.3926E+05  0.000E+00  0.000E+00  0.000E+00  3.96684E+01  4.753E-01  2.000E+01  2.000E+04 -1.313E+00
   1   14   21     1    21    7.3926E+05 -1.9346E+04   7.5860E+05  0.000E+00  0.000E+00  0.000E+00  3.92001E+01  4.842E-01  2.000E+01  2.000E+04 -9.673E-01
   1   14   22     1    22    7.5860E+05 -1.6301E+03   7.6024E+05  0.000E+00  0.000E+00  0.000E+00  3.87269E+01  4.882E-01  2.000E+01  2.000E+04 -8.151E-02
   1    9   30     2     1    5.0000E+04 -2.6383E+04   7.6383E+04  0.000E+00  0.000E+00  0.000E+00  4.02583E+01  1.333E-01  2.000E+01  2.000E+04 -1.319E+00
   1    9   29     2     2    7.6383E+04 -2.8844E+04   1.0523E+05  0.000E+00  0.000E+00  0.000E+00  4.00407E+01  1.657E-01  2.000E+01  2.000E+04 -1.442E+00
   1    9   28     2     3    1.0523E+05 -3.3110E+04   1.3834E+05  0.000E+00  0.000E+00  0.000E+00  3.98227E+01  1.977E-01  2.000E+01  2.000E+04 -1.655E+00
   1    9   27     2     4    1.3834E+05 -4.7141E+04   1.8548E+05  0.000E+00  0.000E+00  0.000E+00  3.96095E+01  2.345E-01  2.000E+01  2.000E+04 -2.357E+00
   1   10   26     2     5    1.8548E+05 -3.3061E+04   2.1854E+05  0.000E+00  0.000E+00  0.000E+00  3.93928E+01  2.678E-01  2.000E+01  2.000E+04 -1.653E+00
   1   11   25     2     6    2.1854E+05 -2.4690E+04   2.4323E+05  0.000E+00  0.000E+00  0.000E+00  3.91651E+01  2.901E-01  2.000E+01  2.000E+04 -1.235E+00
   1   12   24     2     7    2.4323E+05 -1.8137E+04   2.6137E+05  0.000E+00  0.000E+00  0.000E+00  3.89310E+01  3.060E-01  2.000E+01  2.000E+04 -9.068E-01
   1   13   23     2     8    2.6137E+05 -1.2846E+04   2.7421E+05  0.000E+00  0.000E+00  0.000E+00  3.86921E+01  3.171E-01  2.000E+01  2.000E+04 -6.423E-01
   1   14   22     2     9    2.7421E+05 -7.1832E+03   2.8139E+05  0.000E+00  0.000E+00  0.000E+00  3.84492E+01  3.242E-01  2.000E+01  2.000E+04 -3.592E-01
   1   14   22     3     1    1.0416E+06 -1.5219E+04   1.0568E+06  0.000E+00  0.000E+00  0.000E+00  3.80474E+01  4.918E-01  2.000E+01  2.000E+04 -7.610E-01
   1   15   23     3     2    1.0568E+06 -2.3134E+04   1.0800E+06  0.000E+00  0.000E+00  0.000E+00  3.71639E+01  4.972E-01  2.000E+01  2.000E+04 -1.157E+00
   1   15   24     3     3    1.0800E+06 -1.9151E+04   1.0991E+06  0.000E+00  0.000E+00  0.000E+00  3.62809E+01  5.031E-01  2.000E+01  2.000E+04 -9.575E-01
   1   15   25     3     4    1.0991E+06 -1.8670E+04   1.1178E+06  0.000E+00  0.000E+00  0.000E+00  3.53972E+01  5.083E-01  2.000E+01  2.000E+04 -9.335E-01
   1   15   26     3     5    1.1178E+06 -2.1324E+04   1.1391E+06  0.000E+00  0.000E+00  0.000E+00  3.45138E+01  5.138E-01  2.000E+01  2.000E+04 -1.066E+00
   1   16   27     3     6    1.1391E+06 -2.7582E+04   1.1667E+06  0.000E+00  0.000E+00  0.000E+00  3.36316E+01  5.205E-01  2.000E+01  2.000E+04 -1.379E+00
   1   17   28     3     7    1.1667E+06 -3.3087E+04   1.1998E+06  0.000E+00  0.000E+00  0.000E+00  3.27508E+01  5.286E-01  2.000E+01  2.000E+04 -1.654E+00
   1   18   29     3     8    1.1998E+06 -4.1967E+04   1.2418E+06  0.000E+00  0.000E+00  0.000E+00  3.18720E+01  5.386E-01  2.000E+01  2.000E+04 -2.098E+00
   1   18   30     3     9    1.2418E+06 -4.0045E+04   1.2818E+06  0.000E+00  0.000E+00  0.000E+00  3.09938E+01  5.494E-01  2.000E+01  2.000E+04 -2.002E+00



1
              HEAD IN LAYER   1 AT END OF TIME STEP   1 IN STRESS PERIOD    5
  ---------------------------------------------------------------------------

          1      2      3      4      5      6      7      8      9     10
         11     12     13     14     15     16     17     18     19     20
         21     22     23     24     25     26     27     28     29     30
 .........................................................................
   1  ****** ****** ****** ****** ****** ****** ****** ****** ****** ******
      ****** ****** ****** ****** ****** ****** ****** ****** ****** ******
      ****** ****** ****** ****** ****** ****** ****** ****** ****** ******
   2  ****** ****** ****** ****** ****** ****** ****** ****** ****** ******
      ****** ****** ****** ****** ****** ****** ****** ****** ****** ******
      ****** ****** ****** ****** ****** ****** ****** ****** ****** ******
   3  ****** ****** ****** ****** ****** ****** ****** ****** ****** ******
      ****** ****** ****** ****** ****** ****** ****** ****** ****** ******
      ****** ****** ****** ****** ****** ****** ****** ****** ****** ******
   4  ****** ****** ****** ****** ****** ****** ****** ****** ****** ******
      ****** ****** ****** ****** ****** ****** ****** ****** ****** ******
      ****** ****** ****** ****** ****** ****** ****** ****** ****** ******
   5  ****** ****** ****** ****** ****** ****** ****** ****** ****** ******
      ****** ****** ****** ****** ****** ****** ****** ****** ****** ******
      ****** ****** ****** ****** ****** ****** ****** ****** ****** ******
   6  ****** ****** ****** ****** ****** ****** ****** ****** ****** ******
      ****** ****** ****** ****** ****** ****** ****** ****** ****** ******
      ****** ****** ****** ****** ****** ****** ****** ****** ****** ******
   7  ****** ****** ****** ****** ****** ****** ****** ****** ****** ******
      ****** ****** ****** ****** ****** ****** ****** ****** ****** ******
      ****** ****** ****** ****** ****** ****** ****** ****** ****** ******
   8  ****** ****** ****** ****** ****** ****** ****** ****** ****** ******
      ****** ****** ****** ****** ****** ****** ****** ****** ****** ******
      ****** ****** ****** ****** ****** ****** ****** ****** ****** ******
   9  ****** ****** ****** ****** ****** ****** ****** ****** ****** ******
      ****** ****** ****** ****** ****** ****** ****** ****** ****** ******
      ****** ****** ****** ****** ****** ****** ****** ****** ****** ******
  10  ****** ****** ****** ****** ****** ****** ****** ****** ****** ******
      ****** ****** ****** ****** ****** ****** ****** ****** ****** ******
      ****** ****** ****** ****** ****** ****** ****** ****** ****** ******
  11  ****** ****** ****** ****** ****** ****** ****** ****** ****** ******
      ****** ****** ****** ****** ****** ****** ****** ****** ****** ******
      ****** ****** ****** ****** ****** ****** ****** ****** ****** ******
  12  ****** ****** ****** ****** ****** ****** ****** ****** ****** ******
      ****** ****** ****** ****** ****** ****** ****** ****** ****** ******
      ****** ****** ****** ****** ****** ****** ****** ****** ****** ******
  13  ****** ****** ****** ****** ****** ****** ****** ****** ****** ******
      ****** ****** ****** ****** ****** ****** ****** ****** ****** ******
      ****** ****** ****** ****** ****** ****** ****** ****** ****** ******
  14  ****** ****** ****** ****** ****** ****** ****** ****** ****** ******
      ****** ****** ****** ****** ****** ****** ****** ****** ****** ******
      ****** ****** ****** ****** ****** ****** ****** ****** ****** ******
  15  ****** ****** ****** ****** ****** ****** ****** ****** ****** ******
      ****** ****** ****** ****** ****** ****** ****** ****** ****** ******
      ****** ****** ****** ****** ****** ****** ****** ****** ****** ******
  16  ****** ****** ****** ****** ****** ****** ****** ****** ****** ******
      ****** ****** ****** ****** ****** ****** ****** ****** ****** ******
      ****** ****** ****** ****** ****** ****** ****** ****** ****** ******
  17  ****** ****** ****** ****** ****** ****** ****** ****** ****** ******
      ****** ****** ****** ****** ****** ****** ****** ****** ****** ******
      ****** ****** ****** ****** ****** ****** ****** ****** ****** ******
  18  ****** ****** ****** ****** ****** ****** ****** ****** ****** ******
      ****** ****** ****** ****** ****** ****** ****** ****** ****** ******
      ****** ****** ****** ****** ****** ****** ****** ****** ****** ******
  19  ****** ****** ****** ****** ****** ****** ****** ****** ****** ******
      ****** ****** ****** ****** ****** ****** ****** ****** ****** ******
      ****** ****** ****** ****** ****** ****** ****** ****** ****** ******
  20  ****** ****** ****** ****** ****** ****** ****** ****** ****** ******
      ****** ****** ****** ****** ****** ****** ****** ****** ****** ******
      ****** ****** ****** ****** ****** ****** ****** ****** ****** ******
  21  ****** ****** ****** ****** ****** ****** ****** ****** ****** ******
      ****** ****** ****** ****** ****** ****** ****** ****** ****** ******
      ****** ****** ****** ****** ****** ****** ****** ****** ****** ******
  22  ****** ****** ****** ****** ****** ****** ****** ****** ****** ******
      ****** ****** ****** ****** ****** ****** ****** ****** ****** ******
      ****** ****** ****** ****** ****** ****** ****** ****** ****** ******
  23  ****** ****** ****** ****** ****** ****** ****** ****** ****** ******
      ****** ****** ****** ****** ****** ****** ****** ****** ****** ******
      ****** ****** ****** ****** ****** ****** ****** ****** ****** ******
  24  ****** ****** ****** ****** ****** ****** ****** ****** ****** ******
      ****** ****** ****** ****** ****** ****** ****** ****** ****** ******
      ****** ****** ****** ****** ****** ****** ****** ****** ****** ******
  25  ****** ****** ****** ****** ****** ****** ****** ****** ****** ******
      ****** ****** ****** ****** ****** ****** ****** ****** ****** ******
      ****** ****** ****** ****** ****** ****** ****** ****** ****** ******

 HEAD WILL BE SAVED ON UNIT   51 AT END OF TIME STEP    1, STRESS PERIOD    5
1
  VOLUMETRIC BUDGET FOR ENTIRE MODEL AT END OF TIME STEP    1, STRESS PERIOD   5
  ------------------------------------------------------------------------------

     CUMULATIVE VOLUMES      L**3       RATES FOR THIS TIME STEP      L**3/T
     ------------------                 ------------------------

           IN:                                      IN:
           ---                                      ---
             STORAGE =    20562729.3102               STORAGE =        1467.5212
       CONSTANT HEAD =   542726347.1671         CONSTANT HEAD =     1197154.0133
               WELLS =           0.0000                 WELLS =           0.0000
            RECHARGE =    10074000.0000              RECHARGE =       13800.0000
      STREAM LEAKAGE =           0.0000        STREAM LEAKAGE =           0.0000

            TOTAL IN =   573363076.4774              TOTAL IN =     1212421.5345

          OUT:                                     OUT:
          ----                                     ----
             STORAGE =      295153.6123               STORAGE =         613.8275
       CONSTANT HEAD =           0.0000         CONSTANT HEAD =           0.0000
               WELLS =    37015045.5000                 WELLS =       80000.0000
            RECHARGE =           0.0000              RECHARGE =           0.0000
      STREAM LEAKAGE =   536052889.1357        STREAM LEAKAGE =     1131807.7749

           TOTAL OUT =   573363088.2481             TOTAL OUT =     1212421.6023

            IN - OUT =         -11.7707              IN - OUT =      -6.7800E-02

 PERCENT DISCREPANCY =          -0.00     PERCENT DISCREPANCY =          -0.00






         TIME SUMMARY AT END OF TIME STEP    1 IN STRESS PERIOD    5
                    SECONDS     MINUTES      HOURS       DAYS        YEARS
                    -----------------------------------------------------------
   TIME STEP LENGTH 7.94880E+06 1.32480E+05  2208.0      92.000     0.25188    
 STRESS PERIOD TIME 7.94880E+06 1.32480E+05  2208.0      92.000     0.25188    
         TOTAL TIME 3.94848E+07 6.58080E+05  10968.      457.00      1.2512    
1
1
                            STRESS PERIOD NO.    6, LENGTH =   91.00000    
                            -----------------------------------------------

                              NUMBER OF TIME STEPS =     1

                               MULTIPLIER FOR DELT =     1.500

                            INITIAL TIME STEP SIZE =   91.00000    

 WELL NO.  LAYER   ROW   COL   STRESS RATE         
 --------------------------------------------------
      1      1      6     12     -0.5000E+05
      2      1     20     28       0.000    
      3      1      2      2     -0.3000E+05

      3 WELLS

                 RECHARGE =  2.000000E-03

 REUSING STREAM SEGMENT DATA FROM LAST STRESS PERIOD
 
 SOLVING FOR HEAD 


     6 CALLS TO PCG ROUTINE FOR TIME STEP   1 IN STRESS PERIOD    6
    22 TOTAL ITERATIONS

 OUTPUT CONTROL FOR STRESS PERIOD    6   TIME STEP    1
    SAVE BUDGET
    SAVE HEAD FOR ALL LAYERS
    PRINT HEAD FOR ALL LAYERS
 UBDSV2 SAVING "STREAMFLOW OUT  " ON UNIT  50 AT TIME STEP  1, STRESS PERIOD   6



 STREAM LISTING     PERIOD      6   STEP        1

 LAYER ROW COL. STREAM  RCH.  FLOW INTO     FLOW TO   FLOW OUT OF   OVRLND.     DIRECT     STREAM       STREAM     STREAM     STREAM   STREAMBED  STREAMBED
                SEG.NO.  NO.  STRM. RCH.    AQUIFER    STRM. RCH.    RUNOFF     PRECIP       ET          HEAD       DEPTH      WIDTH   CONDCTNC.   GRADIENT

   1   13    1     1     1    1.0000E+05 -2.7358E+04   1.2736E+05  0.000E+00  0.000E+00  0.000E+00  4.84176E+01  1.562E-01  2.000E+01  2.000E+04 -1.368E+00
   1   13    2     1     2    1.2736E+05 -3.6876E+04   1.6423E+05  0.000E+00  0.000E+00  0.000E+00  4.79655E+01  1.814E-01  2.000E+01  2.000E+04 -1.844E+00
   1   14    3     1     3    1.6423E+05 -3.2669E+04   1.9690E+05  0.000E+00  0.000E+00  0.000E+00  4.75130E+01  2.062E-01  2.000E+01  2.000E+04 -1.633E+00
   1   15    4     1     4    1.9690E+05 -3.2120E+04   2.2902E+05  0.000E+00  0.000E+00  0.000E+00  4.70572E+01  2.277E-01  2.000E+01  2.000E+04 -1.606E+00
   1   16    5     1     5    2.2902E+05 -3.3902E+04   2.6292E+05  0.000E+00  0.000E+00  0.000E+00  4.66005E+01  2.482E-01  2.000E+01  2.000E+04 -1.695E+00
   1   16    6     1     6    2.6292E+05 -2.9493E+04   2.9242E+05  0.000E+00  0.000E+00  0.000E+00  4.61420E+01  2.670E-01  2.000E+01  2.000E+04 -1.475E+00
   1   16    7     1     7    2.9242E+05 -2.9242E+04   3.2166E+05  0.000E+00  0.000E+00  0.000E+00  4.56813E+01  2.836E-01  2.000E+01  2.000E+04 -1.462E+00
   1   16    8     1     8    3.2166E+05 -2.9382E+04   3.5104E+05  0.000E+00  0.000E+00  0.000E+00  4.52200E+01  2.995E-01  2.000E+01  2.000E+04 -1.469E+00
   1   16    9     1     9    3.5104E+05 -2.9447E+04   3.8049E+05  0.000E+00  0.000E+00  0.000E+00  4.47581E+01  3.150E-01  2.000E+01  2.000E+04 -1.472E+00
   1   16   10     1    10    3.8049E+05 -2.9494E+04   4.0998E+05  0.000E+00  0.000E+00  0.000E+00  4.42959E+01  3.299E-01  2.000E+01  2.000E+04 -1.475E+00
   1   16   11     1    11    4.0998E+05 -3.0175E+04   4.4016E+05  0.000E+00  0.000E+00  0.000E+00  4.38333E+01  3.447E-01  2.000E+01  2.000E+04 -1.509E+00
   1   16   12     1    12    4.4016E+05 -3.5886E+04   4.7604E+05  0.000E+00  0.000E+00  0.000E+00  4.33719E+01  3.605E-01  2.000E+01  2.000E+04 -1.794E+00
   1   15   13     1    13    4.7604E+05 -3.4210E+04   5.1025E+05  0.000E+00  0.000E+00  0.000E+00  4.29109E+01  3.768E-01  2.000E+01  2.000E+04 -1.710E+00
   1   14   14     1    14    5.1025E+05 -3.4428E+04   5.4468E+05  0.000E+00  0.000E+00  0.000E+00  4.24491E+01  3.923E-01  2.000E+01  2.000E+04 -1.721E+00
   1   13   15     1    15    5.4468E+05 -3.6279E+04   5.8096E+05  0.000E+00  0.000E+00  0.000E+00  4.19874E+01  4.079E-01  2.000E+01  2.000E+04 -1.814E+00
   1   12   16     1    16    5.8096E+05 -4.1908E+04   6.2287E+05  0.000E+00  0.000E+00  0.000E+00  4.15269E+01  4.247E-01  2.000E+01  2.000E+04 -2.095E+00
   1   12   17     1    17    6.2287E+05 -3.3225E+04   6.5609E+05  0.000E+00  0.000E+00  0.000E+00  4.10654E+01  4.404E-01  2.000E+01  2.000E+04 -1.661E+00
   1   12   18     1    18    6.5609E+05 -3.1939E+04   6.8803E+05  0.000E+00  0.000E+00  0.000E+00  4.06014E+01  4.537E-01  2.000E+01  2.000E+04 -1.597E+00
   1   12   19     1    19    6.8803E+05 -3.6189E+04   7.2422E+05  0.000E+00  0.000E+00  0.000E+00  4.01378E+01  4.674E-01  2.000E+01  2.000E+04 -1.809E+00
   1   13   20     1    20    7.2422E+05 -2.6929E+04   7.5115E+05  0.000E+00  0.000E+00  0.000E+00  3.96730E+01  4.798E-01  2.000E+01  2.000E+04 -1.346E+00
   1   14   21     1    21    7.5115E+05 -2.0023E+04   7.7117E+05  0.000E+00  0.000E+00  0.000E+00  3.92048E+01  4.889E-01  2.000E+01  2.000E+04 -1.001E+00
   1   14   22     1    22    7.7117E+05 -1.8936E+03   7.7307E+05  0.000E+00  0.000E+00  0.000E+00  3.87317E+01  4.931E-01  2.000E+01  2.000E+04 -9.468E-02
   1    9   30     2     1    5.0000E+04 -2.6878E+04   7.6878E+04  0.000E+00  0.000E+00  0.000E+00  4.02587E+01  1.337E-01  2.000E+01  2.000E+04 -1.344E+00
   1    9   29     2     2    7.6878E+04 -2.9335E+04   1.0621E+05  0.000E+00  0.000E+00  0.000E+00  4.00416E+01  1.666E-01  2.000E+01  2.000E+04 -1.467E+00
   1    9   28     2     3    1.0621E+05 -3.3609E+04   1.3982E+05  0.000E+00  0.000E+00  0.000E+00  3.98239E+01  1.989E-01  2.000E+01  2.000E+04 -1.680E+00
   1    9   27     2     4    1.3982E+05 -4.7736E+04   1.8756E+05  0.000E+00  0.000E+00  0.000E+00  3.96110E+01  2.360E-01  2.000E+01  2.000E+04 -2.387E+00
   1   10   26     2     5    1.8756E+05 -3.3699E+04   2.2126E+05  0.000E+00  0.000E+00  0.000E+00  3.93947E+01  2.697E-01  2.000E+01  2.000E+04 -1.685E+00
   1   11   25     2     6    2.2126E+05 -2.5316E+04   2.4657E+05  0.000E+00  0.000E+00  0.000E+00  3.91674E+01  2.924E-01  2.000E+01  2.000E+04 -1.266E+00
   1   12   24     2     7    2.4657E+05 -1.8707E+04   2.6528E+05  0.000E+00  0.000E+00  0.000E+00  3.89336E+01  3.086E-01  2.000E+01  2.000E+04 -9.354E-01
   1   13   23     2     8    2.6528E+05 -1.3329E+04   2.7861E+05  0.000E+00  0.000E+00  0.000E+00  3.86951E+01  3.201E-01  2.000E+01  2.000E+04 -6.664E-01
   1   14   22     2     9    2.7861E+05 -7.4808E+03   2.8609E+05  0.000E+00  0.000E+00  0.000E+00  3.84524E+01  3.274E-01  2.000E+01  2.000E+04 -3.740E-01
   1   14   22     3     1    1.0592E+06 -1.5481E+04   1.0746E+06  0.000E+00  0.000E+00  0.000E+00  3.80523E+01  4.968E-01  2.000E+01  2.000E+04 -7.741E-01
   1   15   23     3     2    1.0746E+06 -2.4066E+04   1.0987E+06  0.000E+00  0.000E+00  0.000E+00  3.71690E+01  5.023E-01  2.000E+01  2.000E+04 -1.203E+00
   1   15   24     3     3    1.0987E+06 -2.0032E+04   1.1187E+06  0.000E+00  0.000E+00  0.000E+00  3.62862E+01  5.084E-01  2.000E+01  2.000E+04 -1.002E+00
   1   15   25     3     4    1.1187E+06 -1.9626E+04   1.1384E+06  0.000E+00  0.000E+00  0.000E+00  3.54027E+01  5.138E-01  2.000E+01  2.000E+04 -9.813E-01
   1   15   26     3     5    1.1384E+06 -2.2430E+04   1.1608E+06  0.000E+00  0.000E+00  0.000E+00  3.45195E+01  5.195E-01  2.000E+01  2.000E+04 -1.122E+00
   1   16   27     3     6    1.1608E+06 -2.9665E+04   1.1905E+06  0.000E+00  0.000E+00  0.000E+00  3.36377E+01  5.266E-01  2.000E+01  2.000E+04 -1.483E+00
   1   17   28     3     7    1.1905E+06 -3.6712E+04   1.2272E+06  0.000E+00  0.000E+00  0.000E+00  3.27577E+01  5.354E-01  2.000E+01  2.000E+04 -1.836E+00
   1   18   29     3     8    1.2272E+06 -4.7645E+04   1.2748E+06  0.000E+00  0.000E+00  0.000E+00  3.18799E+01  5.466E-01  2.000E+01  2.000E+04 -2.382E+00
   1   18   30     3     9    1.2748E+06 -4.4019E+04   1.3188E+06  0.000E+00  0.000E+00  0.000E+00  3.10030E+01  5.585E-01  2.000E+01  2.000E+04 -2.201E+00



1
              HEAD IN LAYER   1 AT END OF TIME STEP   1 IN STRESS PERIOD    6
  ---------------------------------------------------------------------------

          1      2      3      4      5      6      7      8      9     10
         11     12     13     14     15     16     17     18     19     20
         21     22     23     24     25     26     27     28     29     30
 .........................................................................
   1  ****** ****** ****** ****** ****** ****** ****** ****** ****** ******
      ****** ****** ****** ****** ****** ****** ****** ****** ****** ******
      ****** ****** ****** ****** ****** ****** ****** ****** ****** ******
   2  ****** ****** ****** ****** ****** ****** ****** ****** ****** ******
      ****** ****** ****** ****** ****** ****** ****** ****** ****** ******
      ****** ****** ****** ****** ****** ****** ****** ****** ****** ******
   3  ****** ****** ****** ****** ****** ****** ****** ****** ****** ******
      ****** ****** ****** ****** ****** ****** ****** ****** ****** ******
      ****** ****** ****** ****** ****** ****** ****** ****** ****** ******
   4  ****** ****** ****** ****** ****** ****** ****** ****** ****** ******
      ****** ****** ****** ****** ****** ****** ****** ****** ****** ******
      ****** ****** ****** ****** ****** ****** ****** ****** ****** ******
   5  ****** ****** ****** ****** ****** ****** ****** ****** ****** ******
      ****** ****** ****** ****** ****** ****** ****** ****** ****** ******
      ****** ****** ****** ****** ****** ****** ****** ****** ****** ******
   6  ****** ****** ****** ****** ****** ****** ****** ****** ****** ******
      ****** ****** ****** ****** ****** ****** ****** ****** ****** ******
      ****** ****** ****** ****** ****** ****** ****** ****** ****** ******
   7  ****** ****** ****** ****** ****** ****** ****** ****** ****** ******
      ****** ****** ****** ****** ****** ****** ****** ****** ****** ******
      ****** ****** ****** ****** ****** ****** ****** ****** ****** ******
   8  ****** ****** ****** ****** ****** ****** ****** ****** ****** ******
      ****** ****** ****** ****** ****** ****** ****** ****** ****** ******
      ****** ****** ****** ****** ****** ****** ****** ****** ****** ******
   9  ****** ****** ****** ****** ****** ****** ****** ****** ****** ******
      ****** ****** ****** ****** ****** ****** ****** ****** ****** ******
      ****** ****** ****** ****** ****** ****** ****** ****** ****** ******
  10  ****** ****** ****** ****** ****** ****** ****** ****** ****** ******
      ****** ****** ****** ****** ****** ****** ****** ****** ****** ******
      ****** ****** ****** ****** ****** ****** ****** ****** ****** ******
  11  ****** ****** ****** ****** ****** ****** ****** ****** ****** ******
      ****** ****** ****** ****** ****** ****** ****** ****** ****** ******
      ****** ****** ****** ****** ****** ****** ****** ****** ****** ******
  12  ****** ****** ****** ****** ****** ****** ****** ****** ****** ******
      ****** ****** ****** ****** ****** ****** ****** ****** ****** ******
      ****** ****** ****** ****** ****** ****** ****** ****** ****** ******
  13  ****** ****** ****** ****** ****** ****** ****** ****** ****** ******
      ****** ****** ****** ****** ****** ****** ****** ****** ****** ******
      ****** ****** ****** ****** ****** ****** ****** ****** ****** ******
  14  ****** ****** ****** ****** ****** ****** ****** ****** ****** ******
      ****** ****** ****** ****** ****** ****** ****** ****** ****** ******
      ****** ****** ****** ****** ****** ****** ****** ****** ****** ******
  15  ****** ****** ****** ****** ****** ****** ****** ****** ****** ******
      ****** ****** ****** ****** ****** ****** ****** ****** ****** ******
      ****** ****** ****** ****** ****** ****** ****** ****** ****** ******
  16  ****** ****** ****** ****** ****** ****** ****** ****** ****** ******
      ****** ****** ****** ****** ****** ****** ****** ****** ****** ******
      ****** ****** ****** ****** ****** ****** ****** ****** ****** ******
  17  ****** ****** ****** ****** ****** ****** ****** ****** ****** ******
      ****** ****** ****** ****** ****** ****** ****** ****** ****** ******
      ****** ****** ****** ****** ****** ****** ****** ****** ****** ******
  18  ****** ****** ****** ****** ****** ****** ****** ****** ****** ******
      ****** ****** ****** ****** ****** ****** ****** ****** ****** ******
      ****** ****** ****** ****** ****** ****** ****** ****** ****** ******
  19  ****** ****** ****** ****** ****** ****** ****** ****** ****** ******
      ****** ****** ****** ****** ****** ****** ****** ****** ****** ******
      ****** ****** ****** ****** ****** ****** ****** ****** ****** ******
  20  ****** ****** ****** ****** ****** ****** ****** ****** ****** ******
      ****** ****** ****** ****** ****** ****** ****** ****** ****** ******
      ****** ****** ****** ****** ****** ****** ****** ****** ****** ******
  21  ****** ****** ****** ****** ****** ****** ****** ****** ****** ******
      ****** ****** ****** ****** ****** ****** ****** ****** ****** ******
      ****** ****** ****** ****** ****** ****** ****** ****** ****** ******
  22  ****** ****** ****** ****** ****** ****** ****** ****** ****** ******
      ****** ****** ****** ****** ****** ****** ****** ****** ****** ******
      ****** ****** ****** ****** ****** ****** ****** ****** ****** ******
  23  ****** ****** ****** ****** ****** ****** ****** ****** ****** ******
      ****** ****** ****** ****** ****** ****** ****** ****** ****** ******
      ****** ****** ****** ****** ****** ****** ****** ****** ****** ******
  24  ****** ****** ****** ****** ****** ****** ****** ****** ****** ******
      ****** ****** ****** ****** ****** ****** ****** ****** ****** ******
      ****** ****** ****** ****** ****** ****** ****** ****** ****** ******
  25  ****** ****** ****** ****** ****** ****** ****** ****** ****** ******
      ****** ****** ****** ****** ****** ****** ****** ****** ****** ******
      ****** ****** ****** ****** ****** ****** ****** ****** ****** ******

 HEAD WILL BE SAVED ON UNIT   51 AT END OF TIME STEP    1, STRESS PERIOD    6
1
  VOLUMETRIC BUDGET FOR ENTIRE MODEL AT END OF TIME STEP    1, STRESS PERIOD   6
  ------------------------------------------------------------------------------

     CUMULATIVE VOLUMES      L**3       RATES FOR THIS TIME STEP      L**3/T
     ------------------                 ------------------------

           IN:                                      IN:
           ---                                      ---
             STORAGE =    20591050.4158               STORAGE =         311.2209
       CONSTANT HEAD =   651559546.6491         CONSTANT HEAD =     1195969.2251
               WELLS =           0.0000                 WELLS =           0.0000
            RECHARGE =    15097200.0000              RECHARGE =       55200.0000
      STREAM LEAKAGE =           0.0000        STREAM LEAKAGE =           0.0000

            TOTAL IN =   687247797.0649              TOTAL IN =     1251480.4460

          OUT:                                     OUT:
          ----                                     ----
             STORAGE =      536196.2735               STORAGE =        2648.8205
       CONSTANT HEAD =           0.0000         CONSTANT HEAD =           0.0000
               WELLS =    44295045.5000                 WELLS =       80000.0000
            RECHARGE =           0.0000              RECHARGE =           0.0000
      STREAM LEAKAGE =   642416564.2240        STREAM LEAKAGE =     1168831.5944

           TOTAL OUT =   687247805.9975             TOTAL OUT =     1251480.4148

            IN - OUT =          -8.9326              IN - OUT =       3.1188E-02

 PERCENT DISCREPANCY =          -0.00     PERCENT DISCREPANCY =           0.00






         TIME SUMMARY AT END OF TIME STEP    1 IN STRESS PERIOD    6
                    SECONDS     MINUTES      HOURS       DAYS        YEARS
                    -----------------------------------------------------------
   TIME STEP LENGTH 7.86240E+06 1.31040E+05  2184.0      91.000     0.24914    
 STRESS PERIOD TIME 7.86240E+06 1.31040E+05  2184.0      91.000     0.24914    
         TOTAL TIME 4.73472E+07 7.89120E+05  13152.      548.00      1.5003    
1
1
                            STRESS PERIOD NO.    7, LENGTH =   91.00000    
                            -----------------------------------------------

                              NUMBER OF TIME STEPS =     1

                               MULTIPLIER FOR DELT =     1.500

                            INITIAL TIME STEP SIZE =   91.00000    

 WELL NO.  LAYER   ROW   COL   STRESS RATE         
 --------------------------------------------------
      1      1      6     12     -0.5000E+05
      2      1     20     28     -0.3000E+05

      2 WELLS

                 RECHARGE =   0.00000    

 REUSING STREAM SEGMENT DATA FROM LAST STRESS PERIOD
 
 SOLVING FOR HEAD 


     6 CALLS TO PCG ROUTINE FOR TIME STEP   1 IN STRESS PERIOD    7
    22 TOTAL ITERATIONS

 OUTPUT CONTROL FOR STRESS PERIOD    7   TIME STEP    1
    SAVE BUDGET
    SAVE HEAD FOR ALL LAYERS
    PRINT HEAD FOR ALL LAYERS
 UBDSV2 SAVING "STREAMFLOW OUT  " ON UNIT  50 AT TIME STEP  1, STRESS PERIOD   7



 STREAM LISTING     PERIOD      7   STEP        1

 LAYER ROW COL. STREAM  RCH.  FLOW INTO     FLOW TO   FLOW OUT OF   OVRLND.     DIRECT     STREAM       STREAM     STREAM     STREAM   STREAMBED  STREAMBED
                SEG.NO.  NO.  STRM. RCH.    AQUIFER    STRM. RCH.    RUNOFF     PRECIP       ET          HEAD       DEPTH      WIDTH   CONDCTNC.   GRADIENT

   1   13    1     1     1    1.0000E+05 -2.6807E+04   1.2681E+05  0.000E+00  0.000E+00  0.000E+00  4.84174E+01  1.560E-01  2.000E+01  2.000E+04 -1.340E+00
   1   13    2     1     2    1.2681E+05 -3.6221E+04   1.6303E+05  0.000E+00  0.000E+00  0.000E+00  4.79648E+01  1.807E-01  2.000E+01  2.000E+04 -1.811E+00
   1   14    3     1     3    1.6303E+05 -3.1890E+04   1.9492E+05  0.000E+00  0.000E+00  0.000E+00  4.75119E+01  2.051E-01  2.000E+01  2.000E+04 -1.594E+00
   1   15    4     1     4    1.9492E+05 -3.1296E+04   2.2621E+05  0.000E+00  0.000E+00  0.000E+00  4.70557E+01  2.261E-01  2.000E+01  2.000E+04 -1.565E+00
   1   16    5     1     5    2.2621E+05 -3.3102E+04   2.5932E+05  0.000E+00  0.000E+00  0.000E+00  4.65986E+01  2.463E-01  2.000E+01  2.000E+04 -1.655E+00
   1   16    6     1     6    2.5932E+05 -2.8807E+04   2.8812E+05  0.000E+00  0.000E+00  0.000E+00  4.61397E+01  2.647E-01  2.000E+01  2.000E+04 -1.440E+00
   1   16    7     1     7    2.8812E+05 -2.8562E+04   3.1669E+05  0.000E+00  0.000E+00  0.000E+00  4.56787E+01  2.810E-01  2.000E+01  2.000E+04 -1.428E+00
   1   16    8     1     8    3.1669E+05 -2.8693E+04   3.4538E+05  0.000E+00  0.000E+00  0.000E+00  4.52171E+01  2.967E-01  2.000E+01  2.000E+04 -1.435E+00
   1   16    9     1     9    3.4538E+05 -2.8748E+04   3.7413E+05  0.000E+00  0.000E+00  0.000E+00  4.47550E+01  3.118E-01  2.000E+01  2.000E+04 -1.437E+00
   1   16   10     1    10    3.7413E+05 -2.8785E+04   4.0291E+05  0.000E+00  0.000E+00  0.000E+00  4.42925E+01  3.266E-01  2.000E+01  2.000E+04 -1.439E+00
   1   16   11     1    11    4.0291E+05 -2.9439E+04   4.3235E+05  0.000E+00  0.000E+00  0.000E+00  4.38297E+01  3.410E-01  2.000E+01  2.000E+04 -1.472E+00
   1   16   12     1    12    4.3235E+05 -3.4996E+04   4.6735E+05  0.000E+00  0.000E+00  0.000E+00  4.33679E+01  3.566E-01  2.000E+01  2.000E+04 -1.750E+00
   1   15   13     1    13    4.6735E+05 -3.3241E+04   5.0059E+05  0.000E+00  0.000E+00  0.000E+00  4.29067E+01  3.726E-01  2.000E+01  2.000E+04 -1.662E+00
   1   14   14     1    14    5.0059E+05 -3.3432E+04   5.3402E+05  0.000E+00  0.000E+00  0.000E+00  4.24446E+01  3.878E-01  2.000E+01  2.000E+04 -1.672E+00
   1   13   15     1    15    5.3402E+05 -3.5296E+04   5.6932E+05  0.000E+00  0.000E+00  0.000E+00  4.19826E+01  4.030E-01  2.000E+01  2.000E+04 -1.765E+00
   1   12   16     1    16    5.6932E+05 -4.0975E+04   6.1029E+05  0.000E+00  0.000E+00  0.000E+00  4.15218E+01  4.195E-01  2.000E+01  2.000E+04 -2.049E+00
   1   12   17     1    17    6.1029E+05 -3.2446E+04   6.4274E+05  0.000E+00  0.000E+00  0.000E+00  4.10600E+01  4.350E-01  2.000E+01  2.000E+04 -1.622E+00
   1   12   18     1    18    6.4274E+05 -3.1180E+04   6.7392E+05  0.000E+00  0.000E+00  0.000E+00  4.05958E+01  4.481E-01  2.000E+01  2.000E+04 -1.559E+00
   1   12   19     1    19    6.7392E+05 -3.5354E+04   7.0927E+05  0.000E+00  0.000E+00  0.000E+00  4.01320E+01  4.616E-01  2.000E+01  2.000E+04 -1.768E+00
   1   13   20     1    20    7.0927E+05 -2.6086E+04   7.3536E+05  0.000E+00  0.000E+00  0.000E+00  3.96669E+01  4.738E-01  2.000E+01  2.000E+04 -1.304E+00
   1   14   21     1    21    7.3536E+05 -1.9193E+04   7.5455E+05  0.000E+00  0.000E+00  0.000E+00  3.91985E+01  4.826E-01  2.000E+01  2.000E+04 -9.596E-01
   1   14   22     1    22    7.5455E+05 -1.5755E+03   7.5613E+05  0.000E+00  0.000E+00  0.000E+00  3.87253E+01  4.866E-01  2.000E+01  2.000E+04 -7.878E-02
   1    9   30     2     1    5.0000E+04 -2.6243E+04   7.6243E+04  0.000E+00  0.000E+00  0.000E+00  4.02583E+01  1.333E-01  2.000E+01  2.000E+04 -1.312E+00
   1    9   29     2     2    7.6243E+04 -2.8704E+04   1.0495E+05  0.000E+00  0.000E+00  0.000E+00  4.00405E+01  1.655E-01  2.000E+01  2.000E+04 -1.435E+00
   1    9   28     2     3    1.0495E+05 -3.2965E+04   1.3791E+05  0.000E+00  0.000E+00  0.000E+00  3.98223E+01  1.973E-01  2.000E+01  2.000E+04 -1.648E+00
   1    9   27     2     4    1.3791E+05 -4.6965E+04   1.8488E+05  0.000E+00  0.000E+00  0.000E+00  3.96090E+01  2.340E-01  2.000E+01  2.000E+04 -2.348E+00
   1   10   26     2     5    1.8488E+05 -3.2879E+04   2.1776E+05  0.000E+00  0.000E+00  0.000E+00  3.93922E+01  2.672E-01  2.000E+01  2.000E+04 -1.644E+00
   1   11   25     2     6    2.1776E+05 -2.4514E+04   2.4227E+05  0.000E+00  0.000E+00  0.000E+00  3.91645E+01  2.895E-01  2.000E+01  2.000E+04 -1.226E+00
   1   12   24     2     7    2.4227E+05 -1.7979E+04   2.6025E+05  0.000E+00  0.000E+00  0.000E+00  3.89302E+01  3.052E-01  2.000E+01  2.000E+04 -8.990E-01
   1   13   23     2     8    2.6025E+05 -1.2718E+04   2.7297E+05  0.000E+00  0.000E+00  0.000E+00  3.86913E+01  3.163E-01  2.000E+01  2.000E+04 -6.359E-01
   1   14   22     2     9    2.7297E+05 -7.1150E+03   2.8008E+05  0.000E+00  0.000E+00  0.000E+00  3.84483E+01  3.233E-01  2.000E+01  2.000E+04 -3.557E-01
   1   14   22     3     1    1.0362E+06 -1.5164E+04   1.0514E+06  0.000E+00  0.000E+00  0.000E+00  3.80459E+01  4.903E-01  2.000E+01  2.000E+04 -7.582E-01
   1   15   23     3     2    1.0514E+06 -2.2991E+04   1.0744E+06  0.000E+00  0.000E+00  0.000E+00  3.71623E+01  4.957E-01  2.000E+01  2.000E+04 -1.150E+00
   1   15   24     3     3    1.0744E+06 -1.9032E+04   1.0934E+06  0.000E+00  0.000E+00  0.000E+00  3.62793E+01  5.015E-01  2.000E+01  2.000E+04 -9.516E-01
   1   15   25     3     4    1.0934E+06 -1.8551E+04   1.1119E+06  0.000E+00  0.000E+00  0.000E+00  3.53956E+01  5.067E-01  2.000E+01  2.000E+04 -9.275E-01
   1   15   26     3     5    1.1119E+06 -2.1185E+04   1.1331E+06  0.000E+00  0.000E+00  0.000E+00  3.45122E+01  5.122E-01  2.000E+01  2.000E+04 -1.059E+00
   1   16   27     3     6    1.1331E+06 -2.7415E+04   1.1605E+06  0.000E+00  0.000E+00  0.000E+00  3.36299E+01  5.188E-01  2.000E+01  2.000E+04 -1.371E+00
   1   17   28     3     7    1.1605E+06 -3.2916E+04   1.1935E+06  0.000E+00  0.000E+00  0.000E+00  3.27492E+01  5.269E-01  2.000E+01  2.000E+04 -1.646E+00
   1   18   29     3     8    1.1935E+06 -4.1807E+04   1.2353E+06  0.000E+00  0.000E+00  0.000E+00  3.18703E+01  5.369E-01  2.000E+01  2.000E+04 -2.090E+00
   1   18   30     3     9    1.2353E+06 -3.9911E+04   1.2752E+06  0.000E+00  0.000E+00  0.000E+00  3.09921E+01  5.477E-01  2.000E+01  2.000E+04 -1.996E+00



1
              HEAD IN LAYER   1 AT END OF TIME STEP   1 IN STRESS PERIOD    7
  ---------------------------------------------------------------------------

          1      2      3      4      5      6      7      8      9     10
         11     12     13     14     15     16     17     18     19     20
         21     22     23     24     25     26     27     28     29     30
 .........................................................................
   1  ****** ****** ****** ****** ****** ****** ****** ****** ****** ******
      ****** ****** ****** ****** ****** ****** ****** ****** ****** ******
      ****** ****** ****** ****** ****** ****** ****** ****** ****** ******
   2  ****** ****** ****** ****** ****** ****** ****** ****** ****** ******
      ****** ****** ****** ****** ****** ****** ****** ****** ****** ******
      ****** ****** ****** ****** ****** ****** ****** ****** ****** ******
   3  ****** ****** ****** ****** ****** ****** ****** ****** ****** ******
      ****** ****** ****** ****** ****** ****** ****** ****** ****** ******
      ****** ****** ****** ****** ****** ****** ****** ****** ****** ******
   4  ****** ****** ****** ****** ****** ****** ****** ****** ****** ******
      ****** ****** ****** ****** ****** ****** ****** ****** ****** ******
      ****** ****** ****** ****** ****** ****** ****** ****** ****** ******
   5  ****** ****** ****** ****** ****** ****** ****** ****** ****** ******
      ****** ****** ****** ****** ****** ****** ****** ****** ****** ******
      ****** ****** ****** ****** ****** ****** ****** ****** ****** ******
   6  ****** ****** ****** ****** ****** ****** ****** ****** ****** ******
      ****** ****** ****** ****** ****** ****** ****** ****** ****** ******
      ****** ****** ****** ****** ****** ****** ****** ****** ****** ******
   7  ****** ****** ****** ****** ****** ****** ****** ****** ****** ******
      ****** ****** ****** ****** ****** ****** ****** ****** ****** ******
      ****** ****** ****** ****** ****** ****** ****** ****** ****** ******
   8  ****** ****** ****** ****** ****** ****** ****** ****** ****** ******
      ****** ****** ****** ****** ****** ****** ****** ****** ****** ******
      ****** ****** ****** ****** ****** ****** ****** ****** ****** ******
   9  ****** ****** ****** ****** ****** ****** ****** ****** ****** ******
      ****** ****** ****** ****** ****** ****** ****** ****** ****** ******
      ****** ****** ****** ****** ****** ****** ****** ****** ****** ******
  10  ****** ****** ****** ****** ****** ****** ****** ****** ****** ******
      ****** ****** ****** ****** ****** ****** ****** ****** ****** ******
      ****** ****** ****** ****** ****** ****** ****** ****** ****** ******
  11  ****** ****** ****** ****** ****** ****** ****** ****** ****** ******
      ****** ****** ****** ****** ****** ****** ****** ****** ****** ******
      ****** ****** ****** ****** ****** ****** ****** ****** ****** ******
  12  ****** ****** ****** ****** ****** ****** ****** ****** ****** ******
      ****** ****** ****** ****** ****** ****** ****** ****** ****** ******
      ****** ****** ****** ****** ****** ****** ****** ****** ****** ******
  13  ****** ****** ****** ****** ****** ****** ****** ****** ****** ******
      ****** ****** ****** ****** ****** ****** ****** ****** ****** ******
      ****** ****** ****** ****** ****** ****** ****** ****** ****** ******
  14  ****** ****** ****** ****** ****** ****** ****** ****** ****** ******
      ****** ****** ****** ****** ****** ****** ****** ****** ****** ******
      ****** ****** ****** ****** ****** ****** ****** ****** ****** ******
  15  ****** ****** ****** ****** ****** ****** ****** ****** ****** ******
      ****** ****** ****** ****** ****** ****** ****** ****** ****** ******
      ****** ****** ****** ****** ****** ****** ****** ****** ****** ******
  16  ****** ****** ****** ****** ****** ****** ****** ****** ****** ******
      ****** ****** ****** ****** ****** ****** ****** ****** ****** ******
      ****** ****** ****** ****** ****** ****** ****** ****** ****** ******
  17  ****** ****** ****** ****** ****** ****** ****** ****** ****** ******
      ****** ****** ****** ****** ****** ****** ****** ****** ****** ******
      ****** ****** ****** ****** ****** ****** ****** ****** ****** ******
  18  ****** ****** ****** ****** ****** ****** ****** ****** ****** ******
      ****** ****** ****** ****** ****** ****** ****** ****** ****** ******
      ****** ****** ****** ****** ****** ****** ****** ****** ****** ******
  19  ****** ****** ****** ****** ****** ****** ****** ****** ****** ******
      ****** ****** ****** ****** ****** ****** ****** ****** ****** ******
      ****** ****** ****** ****** ****** ****** ****** ****** ****** ******
  20  ****** ****** ****** ****** ****** ****** ****** ****** ****** ******
      ****** ****** ****** ****** ****** ****** ****** ****** ****** ******
      ****** ****** ****** ****** ****** ****** ****** ****** ****** ******
  21  ****** ****** ****** ****** ****** ****** ****** ****** ****** ******
      ****** ****** ****** ****** ****** ****** ****** ****** ****** ******
      ****** ****** ****** ****** ****** ****** ****** ****** ****** ******
  22  ****** ****** ****** ****** ****** ****** ****** ****** ****** ******
      ****** ****** ****** ****** ****** ****** ****** ****** ****** ******
      ****** ****** ****** ****** ****** ****** ****** ****** ****** ******
  23  ****** ****** ****** ****** ****** ****** ****** ****** ****** ******
      ****** ****** ****** ****** ****** ****** ****** ****** ****** ******
      ****** ****** ****** ****** ****** ****** ****** ****** ****** ******
  24  ****** ****** ****** ****** ****** ****** ****** ****** ****** ******
      ****** ****** ****** ****** ****** ****** ****** ****** ****** ******
      ****** ****** ****** ****** ****** ****** ****** ****** ****** ******
  25  ****** ****** ****** ****** ****** ****** ****** ****** ****** ******
      ****** ****** ****** ****** ****** ****** ****** ****** ****** ******
      ****** ****** ****** ****** ****** ****** ****** ****** ****** ******

 HEAD WILL BE SAVED ON UNIT   51 AT END OF TIME STEP    1, STRESS PERIOD    7
1
  VOLUMETRIC BUDGET FOR ENTIRE MODEL AT END OF TIME STEP    1, STRESS PERIOD   7
  ------------------------------------------------------------------------------

     CUMULATIVE VOLUMES      L**3       RATES FOR THIS TIME STEP      L**3/T
     ------------------                 ------------------------

           IN:                                      IN:
           ---                                      ---
             STORAGE =    20880517.5600               STORAGE =        3180.9576
       CONSTANT HEAD =   760966353.0890         CONSTANT HEAD =     1202272.5982
               WELLS =           0.0000                 WELLS =           0.0000
            RECHARGE =    15097200.0000              RECHARGE =           0.0000
      STREAM LEAKAGE =           0.0000        STREAM LEAKAGE =           0.0000

            TOTAL IN =   796944070.6489              TOTAL IN =     1205453.5559

          OUT:                                     OUT:
          ----                                     ----
             STORAGE =      561063.3895               STORAGE =         273.2650
       CONSTANT HEAD =           0.0000         CONSTANT HEAD =           0.0000
               WELLS =    51575045.5000                 WELLS =       80000.0000
            RECHARGE =           0.0000              RECHARGE =           0.0000
      STREAM LEAKAGE =   744807974.5002        STREAM LEAKAGE =     1125180.3327

           TOTAL OUT =   796944083.3897             TOTAL OUT =     1205453.5977

            IN - OUT =         -12.7408              IN - OUT =      -4.1848E-02

 PERCENT DISCREPANCY =          -0.00     PERCENT DISCREPANCY =          -0.00






         TIME SUMMARY AT END OF TIME STEP    1 IN STRESS PERIOD    7
                    SECONDS     MINUTES      HOURS       DAYS        YEARS
                    -----------------------------------------------------------
   TIME STEP LENGTH 7.86240E+06 1.31040E+05  2184.0      91.000     0.24914    
 STRESS PERIOD TIME 7.86240E+06 1.31040E+05  2184.0      91.000     0.24914    
         TOTAL TIME 5.52096E+07 9.20160E+05  15336.      639.00      1.7495    
1
1
                            STRESS PERIOD NO.    8, LENGTH =   91.00000    
                            -----------------------------------------------

                              NUMBER OF TIME STEPS =     1

                               MULTIPLIER FOR DELT =     1.500

                            INITIAL TIME STEP SIZE =   91.00000    

 WELL NO.  LAYER   ROW   COL   STRESS RATE         
 --------------------------------------------------
      1      1      6     12     -0.5000E+05
      2      1     20     28       0.000    
      3      1      2      2     -0.3500E+05

      3 WELLS

                 RECHARGE =  1.000000E-03

 REUSING STREAM SEGMENT DATA FROM LAST STRESS PERIOD
 
 SOLVING FOR HEAD 


     6 CALLS TO PCG ROUTINE FOR TIME STEP   1 IN STRESS PERIOD    8
    22 TOTAL ITERATIONS

 OUTPUT CONTROL FOR STRESS PERIOD    8   TIME STEP    1
    SAVE BUDGET
    SAVE HEAD FOR ALL LAYERS
    PRINT HEAD FOR ALL LAYERS
 UBDSV2 SAVING "STREAMFLOW OUT  " ON UNIT  50 AT TIME STEP  1, STRESS PERIOD   8



 STREAM LISTING     PERIOD      8   STEP        1

 LAYER ROW COL. STREAM  RCH.  FLOW INTO     FLOW TO   FLOW OUT OF   OVRLND.     DIRECT     STREAM       STREAM     STREAM     STREAM   STREAMBED  STREAMBED
                SEG.NO.  NO.  STRM. RCH.    AQUIFER    STRM. RCH.    RUNOFF     PRECIP       ET          HEAD       DEPTH      WIDTH   CONDCTNC.   GRADIENT

   1   13    1     1     1    1.0000E+05 -2.6850E+04   1.2685E+05  0.000E+00  0.000E+00  0.000E+00  4.84174E+01  1.560E-01  2.000E+01  2.000E+04 -1.342E+00
   1   13    2     1     2    1.2685E+05 -3.6268E+04   1.6312E+05  0.000E+00  0.000E+00  0.000E+00  4.79649E+01  1.808E-01  2.000E+01  2.000E+04 -1.813E+00
   1   14    3     1     3    1.6312E+05 -3.2101E+04   1.9522E+05  0.000E+00  0.000E+00  0.000E+00  4.75121E+01  2.052E-01  2.000E+01  2.000E+04 -1.605E+00
   1   15    4     1     4    1.9522E+05 -3.1588E+04   2.2681E+05  0.000E+00  0.000E+00  0.000E+00  4.70560E+01  2.264E-01  2.000E+01  2.000E+04 -1.579E+00
   1   16    5     1     5    2.2681E+05 -3.3433E+04   2.6024E+05  0.000E+00  0.000E+00  0.000E+00  4.65990E+01  2.467E-01  2.000E+01  2.000E+04 -1.672E+00
   1   16    6     1     6    2.6024E+05 -2.9083E+04   2.8932E+05  0.000E+00  0.000E+00  0.000E+00  4.61403E+01  2.653E-01  2.000E+01  2.000E+04 -1.454E+00
   1   16    7     1     7    2.8932E+05 -2.8836E+04   3.1816E+05  0.000E+00  0.000E+00  0.000E+00  4.56795E+01  2.817E-01  2.000E+01  2.000E+04 -1.442E+00
   1   16    8     1     8    3.1816E+05 -2.8976E+04   3.4714E+05  0.000E+00  0.000E+00  0.000E+00  4.52180E+01  2.975E-01  2.000E+01  2.000E+04 -1.449E+00
   1   16    9     1     9    3.4714E+05 -2.9042E+04   3.7618E+05  0.000E+00  0.000E+00  0.000E+00  4.47560E+01  3.128E-01  2.000E+01  2.000E+04 -1.452E+00
   1   16   10     1    10    3.7618E+05 -2.9092E+04   4.0527E+05  0.000E+00  0.000E+00  0.000E+00  4.42936E+01  3.277E-01  2.000E+01  2.000E+04 -1.455E+00
   1   16   11     1    11    4.0527E+05 -2.9769E+04   4.3504E+05  0.000E+00  0.000E+00  0.000E+00  4.38309E+01  3.423E-01  2.000E+01  2.000E+04 -1.488E+00
   1   16   12     1    12    4.3504E+05 -3.5417E+04   4.7045E+05  0.000E+00  0.000E+00  0.000E+00  4.33693E+01  3.580E-01  2.000E+01  2.000E+04 -1.771E+00
   1   15   13     1    13    4.7045E+05 -3.3688E+04   5.0414E+05  0.000E+00  0.000E+00  0.000E+00  4.29082E+01  3.741E-01  2.000E+01  2.000E+04 -1.684E+00
   1   14   14     1    14    5.0414E+05 -3.3887E+04   5.3803E+05  0.000E+00  0.000E+00  0.000E+00  4.24463E+01  3.895E-01  2.000E+01  2.000E+04 -1.694E+00
   1   13   15     1    15    5.3803E+05 -3.5741E+04   5.7377E+05  0.000E+00  0.000E+00  0.000E+00  4.19844E+01  4.049E-01  2.000E+01  2.000E+04 -1.787E+00
   1   12   16     1    16    5.7377E+05 -4.1388E+04   6.1516E+05  0.000E+00  0.000E+00  0.000E+00  4.15238E+01  4.215E-01  2.000E+01  2.000E+04 -2.069E+00
   1   12   17     1    17    6.1516E+05 -3.2810E+04   6.4797E+05  0.000E+00  0.000E+00  0.000E+00  4.10621E+01  4.371E-01  2.000E+01  2.000E+04 -1.641E+00
   1   12   18     1    18    6.4797E+05 -3.1545E+04   6.7951E+05  0.000E+00  0.000E+00  0.000E+00  4.05981E+01  4.503E-01  2.000E+01  2.000E+04 -1.577E+00
   1   12   19     1    19    6.7951E+05 -3.5760E+04   7.1527E+05  0.000E+00  0.000E+00  0.000E+00  4.01343E+01  4.639E-01  2.000E+01  2.000E+04 -1.788E+00
   1   13   20     1    20    7.1527E+05 -2.6532E+04   7.4181E+05  0.000E+00  0.000E+00  0.000E+00  3.96694E+01  4.762E-01  2.000E+01  2.000E+04 -1.327E+00
   1   14   21     1    21    7.4181E+05 -1.9681E+04   7.6149E+05  0.000E+00  0.000E+00  0.000E+00  3.92011E+01  4.852E-01  2.000E+01  2.000E+04 -9.841E-01
   1   14   22     1    22    7.6149E+05 -1.7752E+03   7.6326E+05  0.000E+00  0.000E+00  0.000E+00  3.87280E+01  4.894E-01  2.000E+01  2.000E+04 -8.876E-02
   1    9   30     2     1    5.0000E+04 -2.6573E+04   7.6573E+04  0.000E+00  0.000E+00  0.000E+00  4.02585E+01  1.335E-01  2.000E+01  2.000E+04 -1.329E+00
   1    9   29     2     2    7.6573E+04 -2.9031E+04   1.0560E+05  0.000E+00  0.000E+00  0.000E+00  4.00411E+01  1.661E-01  2.000E+01  2.000E+04 -1.452E+00
   1    9   28     2     3    1.0560E+05 -3.3294E+04   1.3890E+05  0.000E+00  0.000E+00  0.000E+00  3.98231E+01  1.981E-01  2.000E+01  2.000E+04 -1.665E+00
   1    9   27     2     4    1.3890E+05 -4.7348E+04   1.8625E+05  0.000E+00  0.000E+00  0.000E+00  3.96101E+01  2.351E-01  2.000E+01  2.000E+04 -2.367E+00
   1   10   26     2     5    1.8625E+05 -3.3297E+04   2.1954E+05  0.000E+00  0.000E+00  0.000E+00  3.93935E+01  2.685E-01  2.000E+01  2.000E+04 -1.665E+00
   1   11   25     2     6    2.1954E+05 -2.4929E+04   2.4447E+05  0.000E+00  0.000E+00  0.000E+00  3.91660E+01  2.910E-01  2.000E+01  2.000E+04 -1.246E+00
   1   12   24     2     7    2.4447E+05 -1.8360E+04   2.6283E+05  0.000E+00  0.000E+00  0.000E+00  3.89320E+01  3.070E-01  2.000E+01  2.000E+04 -9.180E-01
   1   13   23     2     8    2.6283E+05 -1.3047E+04   2.7588E+05  0.000E+00  0.000E+00  0.000E+00  3.86932E+01  3.182E-01  2.000E+01  2.000E+04 -6.523E-01
   1   14   22     2     9    2.7588E+05 -7.3268E+03   2.8320E+05  0.000E+00  0.000E+00  0.000E+00  3.84504E+01  3.254E-01  2.000E+01  2.000E+04 -3.663E-01
   1   14   22     3     1    1.0465E+06 -1.5360E+04   1.0618E+06  0.000E+00  0.000E+00  0.000E+00  3.80488E+01  4.932E-01  2.000E+01  2.000E+04 -7.680E-01
   1   15   23     3     2    1.0618E+06 -2.3749E+04   1.0856E+06  0.000E+00  0.000E+00  0.000E+00  3.71654E+01  4.987E-01  2.000E+01  2.000E+04 -1.187E+00
   1   15   24     3     3    1.0856E+06 -1.9771E+04   1.1053E+06  0.000E+00  0.000E+00  0.000E+00  3.62825E+01  5.047E-01  2.000E+01  2.000E+04 -9.886E-01
   1   15   25     3     4    1.1053E+06 -1.9367E+04   1.1247E+06  0.000E+00  0.000E+00  0.000E+00  3.53990E+01  5.101E-01  2.000E+01  2.000E+04 -9.683E-01
   1   15   26     3     5    1.1247E+06 -2.2130E+04   1.1468E+06  0.000E+00  0.000E+00  0.000E+00  3.45158E+01  5.158E-01  2.000E+01  2.000E+04 -1.106E+00
   1   16   27     3     6    1.1468E+06 -2.9301E+04   1.1761E+06  0.000E+00  0.000E+00  0.000E+00  3.36339E+01  5.228E-01  2.000E+01  2.000E+04 -1.465E+00
   1   17   28     3     7    1.1761E+06 -3.6339E+04   1.2125E+06  0.000E+00  0.000E+00  0.000E+00  3.27538E+01  5.316E-01  2.000E+01  2.000E+04 -1.817E+00
   1   18   29     3     8    1.2125E+06 -4.7295E+04   1.2598E+06  0.000E+00  0.000E+00  0.000E+00  3.18760E+01  5.427E-01  2.000E+01  2.000E+04 -2.365E+00
   1   18   30     3     9    1.2598E+06 -4.3727E+04   1.3035E+06  0.000E+00  0.000E+00  0.000E+00  3.09990E+01  5.546E-01  2.000E+01  2.000E+04 -2.186E+00



1
              HEAD IN LAYER   1 AT END OF TIME STEP   1 IN STRESS PERIOD    8
  ---------------------------------------------------------------------------

          1      2      3      4      5      6      7      8      9     10
         11     12     13     14     15     16     17     18     19     20
         21     22     23     24     25     26     27     28     29     30
 .........................................................................
   1  ****** ****** ****** ****** ****** ****** ****** ****** ****** ******
      ****** ****** ****** ****** ****** ****** ****** ****** ****** ******
      ****** ****** ****** ****** ****** ****** ****** ****** ****** ******
   2  ****** ****** ****** ****** ****** ****** ****** ****** ****** ******
      ****** ****** ****** ****** ****** ****** ****** ****** ****** ******
      ****** ****** ****** ****** ****** ****** ****** ****** ****** ******
   3  ****** ****** ****** ****** ****** ****** ****** ****** ****** ******
      ****** ****** ****** ****** ****** ****** ****** ****** ****** ******
      ****** ****** ****** ****** ****** ****** ****** ****** ****** ******
   4  ****** ****** ****** ****** ****** ****** ****** ****** ****** ******
      ****** ****** ****** ****** ****** ****** ****** ****** ****** ******
      ****** ****** ****** ****** ****** ****** ****** ****** ****** ******
   5  ****** ****** ****** ****** ****** ****** ****** ****** ****** ******
      ****** ****** ****** ****** ****** ****** ****** ****** ****** ******
      ****** ****** ****** ****** ****** ****** ****** ****** ****** ******
   6  ****** ****** ****** ****** ****** ****** ****** ****** ****** ******
      ****** ****** ****** ****** ****** ****** ****** ****** ****** ******
      ****** ****** ****** ****** ****** ****** ****** ****** ****** ******
   7  ****** ****** ****** ****** ****** ****** ****** ****** ****** ******
      ****** ****** ****** ****** ****** ****** ****** ****** ****** ******
      ****** ****** ****** ****** ****** ****** ****** ****** ****** ******
   8  ****** ****** ****** ****** ****** ****** ****** ****** ****** ******
      ****** ****** ****** ****** ****** ****** ****** ****** ****** ******
      ****** ****** ****** ****** ****** ****** ****** ****** ****** ******
   9  ****** ****** ****** ****** ****** ****** ****** ****** ****** ******
      ****** ****** ****** ****** ****** ****** ****** ****** ****** ******
      ****** ****** ****** ****** ****** ****** ****** ****** ****** ******
  10  ****** ****** ****** ****** ****** ****** ****** ****** ****** ******
      ****** ****** ****** ****** ****** ****** ****** ****** ****** ******
      ****** ****** ****** ****** ****** ****** ****** ****** ****** ******
  11  ****** ****** ****** ****** ****** ****** ****** ****** ****** ******
      ****** ****** ****** ****** ****** ****** ****** ****** ****** ******
      ****** ****** ****** ****** ****** ****** ****** ****** ****** ******
  12  ****** ****** ****** ****** ****** ****** ****** ****** ****** ******
      ****** ****** ****** ****** ****** ****** ****** ****** ****** ******
      ****** ****** ****** ****** ****** ****** ****** ****** ****** ******
  13  ****** ****** ****** ****** ****** ****** ****** ****** ****** ******
      ****** ****** ****** ****** ****** ****** ****** ****** ****** ******
      ****** ****** ****** ****** ****** ****** ****** ****** ****** ******
  14  ****** ****** ****** ****** ****** ****** ****** ****** ****** ******
      ****** ****** ****** ****** ****** ****** ****** ****** ****** ******
      ****** ****** ****** ****** ****** ****** ****** ****** ****** ******
  15  ****** ****** ****** ****** ****** ****** ****** ****** ****** ******
      ****** ****** ****** ****** ****** ****** ****** ****** ****** ******
      ****** ****** ****** ****** ****** ****** ****** ****** ****** ******
  16  ****** ****** ****** ****** ****** ****** ****** ****** ****** ******
      ****** ****** ****** ****** ****** ****** ****** ****** ****** ******
      ****** ****** ****** ****** ****** ****** ****** ****** ****** ******
  17  ****** ****** ****** ****** ****** ****** ****** ****** ****** ******
      ****** ****** ****** ****** ****** ****** ****** ****** ****** ******
      ****** ****** ****** ****** ****** ****** ****** ****** ****** ******
  18  ****** ****** ****** ****** ****** ****** ****** ****** ****** ******
      ****** ****** ****** ****** ****** ****** ****** ****** ****** ******
      ****** ****** ****** ****** ****** ****** ****** ****** ****** ******
  19  ****** ****** ****** ****** ****** ****** ****** ****** ****** ******
      ****** ****** ****** ****** ****** ****** ****** ****** ****** ******
      ****** ****** ****** ****** ****** ****** ****** ****** ****** ******
  20  ****** ****** ****** ****** ****** ****** ****** ****** ****** ******
      ****** ****** ****** ****** ****** ****** ****** ****** ****** ******
      ****** ****** ****** ****** ****** ****** ****** ****** ****** ******
  21  ****** ****** ****** ****** ****** ****** ****** ****** ****** ******
      ****** ****** ****** ****** ****** ****** ****** ****** ****** ******
      ****** ****** ****** ****** ****** ****** ****** ****** ****** ******
  22  ****** ****** ****** ****** ****** ****** ****** ****** ****** ******
      ****** ****** ****** ****** ****** ****** ****** ****** ****** ******
      ****** ****** ****** ****** ****** ****** ****** ****** ****** ******
  23  ****** ****** ****** ****** ****** ****** ****** ****** ****** ******
      ****** ****** ****** ****** ****** ****** ****** ****** ****** ******
      ****** ****** ****** ****** ****** ****** ****** ****** ****** ******
  24  ****** ****** ****** ****** ****** ****** ****** ****** ****** ******
      ****** ****** ****** ****** ****** ****** ****** ****** ****** ******
      ****** ****** ****** ****** ****** ****** ****** ****** ****** ******
  25  ****** ****** ****** ****** ****** ****** ****** ****** ****** ******
      ****** ****** ****** ****** ****** ****** ****** ****** ****** ******
      ****** ****** ****** ****** ****** ****** ****** ****** ****** ******

 HEAD WILL BE SAVED ON UNIT   51 AT END OF TIME STEP    1, STRESS PERIOD    8
1
  VOLUMETRIC BUDGET FOR ENTIRE MODEL AT END OF TIME STEP    1, STRESS PERIOD   8
  ------------------------------------------------------------------------------

     CUMULATIVE VOLUMES      L**3       RATES FOR THIS TIME STEP      L**3/T
     ------------------                 ------------------------

           IN:                                      IN:
           ---                                      ---
             STORAGE =    20926829.1245               STORAGE =         508.9183
       CONSTANT HEAD =   871289044.8308         CONSTANT HEAD =     1212337.2719
               WELLS =           0.0000                 WELLS =           0.0000
            RECHARGE =    17608800.0000              RECHARGE =       27600.0000
      STREAM LEAKAGE =           0.0000        STREAM LEAKAGE =           0.0000

            TOTAL IN =   909824673.9554              TOTAL IN =     1240446.1902

          OUT:                                     OUT:
          ----                                     ----
             STORAGE =      737575.1181               STORAGE =        1939.6893
       CONSTANT HEAD =           0.0000         CONSTANT HEAD =           0.0000
               WELLS =    59310091.0000                 WELLS =       85000.5000
            RECHARGE =           0.0000              RECHARGE =           0.0000
      STREAM LEAKAGE =   849777019.0560        STREAM LEAKAGE =     1153505.9841

           TOTAL OUT =   909824685.1741             TOTAL OUT =     1240446.1735

            IN - OUT =         -11.2188              IN - OUT =       1.6725E-02

 PERCENT DISCREPANCY =          -0.00     PERCENT DISCREPANCY =           0.00






         TIME SUMMARY AT END OF TIME STEP    1 IN STRESS PERIOD    8
                    SECONDS     MINUTES      HOURS       DAYS        YEARS
                    -----------------------------------------------------------
   TIME STEP LENGTH 7.86240E+06 1.31040E+05  2184.0      91.000     0.24914    
 STRESS PERIOD TIME 7.86240E+06 1.31040E+05  2184.0      91.000     0.24914    
         TOTAL TIME 6.30720E+07 1.05120E+06  17520.      730.00      1.9986    
1
1
                            STRESS PERIOD NO.    9, LENGTH =   92.00000    
                            -----------------------------------------------

                              NUMBER OF TIME STEPS =     1

                               MULTIPLIER FOR DELT =     1.500

                            INITIAL TIME STEP SIZE =   92.00000    

 WELL NO.  LAYER   ROW   COL   STRESS RATE         
 --------------------------------------------------
      1      1      6     12     -0.5000E+05
      2      1     20     28     -0.3000E+05

      2 WELLS

                 RECHARGE =  5.000000E-04

 REUSING STREAM SEGMENT DATA FROM LAST STRESS PERIOD
 
 SOLVING FOR HEAD 


     5 CALLS TO PCG ROUTINE FOR TIME STEP   1 IN STRESS PERIOD    9
    19 TOTAL ITERATIONS

 OUTPUT CONTROL FOR STRESS PERIOD    9   TIME STEP    1
    SAVE BUDGET
    SAVE HEAD FOR ALL LAYERS
    PRINT HEAD FOR ALL LAYERS
 UBDSV2 SAVING "STREAMFLOW OUT  " ON UNIT  50 AT TIME STEP  1, STRESS PERIOD   9



 STREAM LISTING     PERIOD      9   STEP        1

 LAYER ROW COL. STREAM  RCH.  FLOW INTO     FLOW TO   FLOW OUT OF   OVRLND.     DIRECT     STREAM       STREAM     STREAM     STREAM   STREAMBED  STREAMBED
                SEG.NO.  NO.  STRM. RCH.    AQUIFER    STRM. RCH.    RUNOFF     PRECIP       ET          HEAD       DEPTH      WIDTH   CONDCTNC.   GRADIENT

   1   13    1     1     1    1.0000E+05 -2.6996E+04   1.2700E+05  0.000E+00  0.000E+00  0.000E+00  4.84174E+01  1.561E-01  2.000E+01  2.000E+04 -1.350E+00
   1   13    2     1     2    1.2700E+05 -3.6445E+04   1.6344E+05  0.000E+00  0.000E+00  0.000E+00  4.79650E+01  1.809E-01  2.000E+01  2.000E+04 -1.822E+00
   1   14    3     1     3    1.6344E+05 -3.2114E+04   1.9556E+05  0.000E+00  0.000E+00  0.000E+00  4.75123E+01  2.055E-01  2.000E+01  2.000E+04 -1.606E+00
   1   15    4     1     4    1.9556E+05 -3.1514E+04   2.2707E+05  0.000E+00  0.000E+00  0.000E+00  4.70562E+01  2.266E-01  2.000E+01  2.000E+04 -1.576E+00
   1   16    5     1     5    2.2707E+05 -3.3302E+04   2.6037E+05  0.000E+00  0.000E+00  0.000E+00  4.65991E+01  2.469E-01  2.000E+01  2.000E+04 -1.665E+00
   1   16    6     1     6    2.6037E+05 -2.8980E+04   2.8935E+05  0.000E+00  0.000E+00  0.000E+00  4.61403E+01  2.653E-01  2.000E+01  2.000E+04 -1.449E+00
   1   16    7     1     7    2.8935E+05 -2.8733E+04   3.1808E+05  0.000E+00  0.000E+00  0.000E+00  4.56794E+01  2.817E-01  2.000E+01  2.000E+04 -1.437E+00
   1   16    8     1     8    3.1808E+05 -2.8864E+04   3.4695E+05  0.000E+00  0.000E+00  0.000E+00  4.52179E+01  2.974E-01  2.000E+01  2.000E+04 -1.443E+00
   1   16    9     1     9    3.4695E+05 -2.8920E+04   3.7587E+05  0.000E+00  0.000E+00  0.000E+00  4.47559E+01  3.127E-01  2.000E+01  2.000E+04 -1.446E+00
   1   16   10     1    10    3.7587E+05 -2.8956E+04   4.0483E+05  0.000E+00  0.000E+00  0.000E+00  4.42934E+01  3.275E-01  2.000E+01  2.000E+04 -1.448E+00
   1   16   11     1    11    4.0483E+05 -2.9613E+04   4.3444E+05  0.000E+00  0.000E+00  0.000E+00  4.38307E+01  3.420E-01  2.000E+01  2.000E+04 -1.481E+00
   1   16   12     1    12    4.3444E+05 -3.5199E+04   4.6964E+05  0.000E+00  0.000E+00  0.000E+00  4.33690E+01  3.576E-01  2.000E+01  2.000E+04 -1.760E+00
   1   15   13     1    13    4.6964E+05 -3.3464E+04   5.0310E+05  0.000E+00  0.000E+00  0.000E+00  4.29078E+01  3.737E-01  2.000E+01  2.000E+04 -1.673E+00
   1   14   14     1    14    5.0310E+05 -3.3662E+04   5.3676E+05  0.000E+00  0.000E+00  0.000E+00  4.24458E+01  3.889E-01  2.000E+01  2.000E+04 -1.683E+00
   1   13   15     1    15    5.3676E+05 -3.5523E+04   5.7229E+05  0.000E+00  0.000E+00  0.000E+00  4.19838E+01  4.043E-01  2.000E+01  2.000E+04 -1.776E+00
   1   12   16     1    16    5.7229E+05 -4.1193E+04   6.1348E+05  0.000E+00  0.000E+00  0.000E+00  4.15231E+01  4.208E-01  2.000E+01  2.000E+04 -2.060E+00
   1   12   17     1    17    6.1348E+05 -3.2624E+04   6.4610E+05  0.000E+00  0.000E+00  0.000E+00  4.10614E+01  4.364E-01  2.000E+01  2.000E+04 -1.631E+00
   1   12   18     1    18    6.4610E+05 -3.1350E+04   6.7745E+05  0.000E+00  0.000E+00  0.000E+00  4.05973E+01  4.495E-01  2.000E+01  2.000E+04 -1.568E+00
   1   12   19     1    19    6.7745E+05 -3.5542E+04   7.1300E+05  0.000E+00  0.000E+00  0.000E+00  4.01335E+01  4.630E-01  2.000E+01  2.000E+04 -1.777E+00
   1   13   20     1    20    7.1300E+05 -2.6263E+04   7.3926E+05  0.000E+00  0.000E+00  0.000E+00  3.96684E+01  4.753E-01  2.000E+01  2.000E+04 -1.313E+00
   1   14   21     1    21    7.3926E+05 -1.9346E+04   7.5860E+05  0.000E+00  0.000E+00  0.000E+00  3.92001E+01  4.842E-01  2.000E+01  2.000E+04 -9.673E-01
   1   14   22     1    22    7.5860E+05 -1.6301E+03   7.6023E+05  0.000E+00  0.000E+00  0.000E+00  3.87269E+01  4.882E-01  2.000E+01  2.000E+04 -8.151E-02
   1    9   30     2     1    5.0000E+04 -2.6383E+04   7.6383E+04  0.000E+00  0.000E+00  0.000E+00  4.02583E+01  1.333E-01  2.000E+01  2.000E+04 -1.319E+00
   1    9   29     2     2    7.6383E+04 -2.8844E+04   1.0523E+05  0.000E+00  0.000E+00  0.000E+00  4.00407E+01  1.657E-01  2.000E+01  2.000E+04 -1.442E+00
   1    9   28     2     3    1.0523E+05 -3.3110E+04   1.3834E+05  0.000E+00  0.000E+00  0.000E+00  3.98227E+01  1.977E-01  2.000E+01  2.000E+04 -1.655E+00
   1    9   27     2     4    1.3834E+05 -4.7141E+04   1.8548E+05  0.000E+00  0.000E+00  0.000E+00  3.96095E+01  2.345E-01  2.000E+01  2.000E+04 -2.357E+00
   1   10   26     2     5    1.8548E+05 -3.3061E+04   2.1854E+05  0.000E+00  0.000E+00  0.000E+00  3.93928E+01  2.678E-01  2.000E+01  2.000E+04 -1.653E+00
   1   11   25     2     6    2.1854E+05 -2.4690E+04   2.4323E+05  0.000E+00  0.000E+00  0.000E+00  3.91651E+01  2.901E-01  2.000E+01  2.000E+04 -1.235E+00
   1   12   24     2     7    2.4323E+05 -1.8137E+04   2.6137E+05  0.000E+00  0.000E+00  0.000E+00  3.89310E+01  3.060E-01  2.000E+01  2.000E+04 -9.068E-01
   1   13   23     2     8    2.6137E+05 -1.2846E+04   2.7421E+05  0.000E+00  0.000E+00  0.000E+00  3.86921E+01  3.171E-01  2.000E+01  2.000E+04 -6.423E-01
   1   14   22     2     9    2.7421E+05 -7.1832E+03   2.8139E+05  0.000E+00  0.000E+00  0.000E+00  3.84492E+01  3.242E-01  2.000E+01  2.000E+04 -3.592E-01
   1   14   22     3     1    1.0416E+06 -1.5219E+04   1.0568E+06  0.000E+00  0.000E+00  0.000E+00  3.80474E+01  4.918E-01  2.000E+01  2.000E+04 -7.610E-01
   1   15   23     3     2    1.0568E+06 -2.3134E+04   1.0800E+06  0.000E+00  0.000E+00  0.000E+00  3.71639E+01  4.972E-01  2.000E+01  2.000E+04 -1.157E+00
   1   15   24     3     3    1.0800E+06 -1.9151E+04   1.0991E+06  0.000E+00  0.000E+00  0.000E+00  3.62809E+01  5.031E-01  2.000E+01  2.000E+04 -9.575E-01
   1   15   25     3     4    1.0991E+06 -1.8670E+04   1.1178E+06  0.000E+00  0.000E+00  0.000E+00  3.53972E+01  5.083E-01  2.000E+01  2.000E+04 -9.335E-01
   1   15   26     3     5    1.1178E+06 -2.1324E+04   1.1391E+06  0.000E+00  0.000E+00  0.000E+00  3.45138E+01  5.138E-01  2.000E+01  2.000E+04 -1.066E+00
   1   16   27     3     6    1.1391E+06 -2.7582E+04   1.1667E+06  0.000E+00  0.000E+00  0.000E+00  3.36316E+01  5.204E-01  2.000E+01  2.000E+04 -1.379E+00
   1   17   28     3     7    1.1667E+06 -3.3087E+04   1.1998E+06  0.000E+00  0.000E+00  0.000E+00  3.27508E+01  5.286E-01  2.000E+01  2.000E+04 -1.654E+00
   1   18   29     3     8    1.1998E+06 -4.1967E+04   1.2418E+06  0.000E+00  0.000E+00  0.000E+00  3.18720E+01  5.386E-01  2.000E+01  2.000E+04 -2.098E+00
   1   18   30     3     9    1.2418E+06 -4.0045E+04   1.2818E+06  0.000E+00  0.000E+00  0.000E+00  3.09938E+01  5.494E-01  2.000E+01  2.000E+04 -2.002E+00



1
              HEAD IN LAYER   1 AT END OF TIME STEP   1 IN STRESS PERIOD    9
  ---------------------------------------------------------------------------

          1      2      3      4      5      6      7      8      9     10
         11     12     13     14     15     16     17     18     19     20
         21     22     23     24     25     26     27     28     29     30
 .........................................................................
   1  ****** ****** ****** ****** ****** ****** ****** ****** ****** ******
      ****** ****** ****** ****** ****** ****** ****** ****** ****** ******
      ****** ****** ****** ****** ****** ****** ****** ****** ****** ******
   2  ****** ****** ****** ****** ****** ****** ****** ****** ****** ******
      ****** ****** ****** ****** ****** ****** ****** ****** ****** ******
      ****** ****** ****** ****** ****** ****** ****** ****** ****** ******
   3  ****** ****** ****** ****** ****** ****** ****** ****** ****** ******
      ****** ****** ****** ****** ****** ****** ****** ****** ****** ******
      ****** ****** ****** ****** ****** ****** ****** ****** ****** ******
   4  ****** ****** ****** ****** ****** ****** ****** ****** ****** ******
      ****** ****** ****** ****** ****** ****** ****** ****** ****** ******
      ****** ****** ****** ****** ****** ****** ****** ****** ****** ******
   5  ****** ****** ****** ****** ****** ****** ****** ****** ****** ******
      ****** ****** ****** ****** ****** ****** ****** ****** ****** ******
      ****** ****** ****** ****** ****** ****** ****** ****** ****** ******
   6  ****** ****** ****** ****** ****** ****** ****** ****** ****** ******
      ****** ****** ****** ****** ****** ****** ****** ****** ****** ******
      ****** ****** ****** ****** ****** ****** ****** ****** ****** ******
   7  ****** ****** ****** ****** ****** ****** ****** ****** ****** ******
      ****** ****** ****** ****** ****** ****** ****** ****** ****** ******
      ****** ****** ****** ****** ****** ****** ****** ****** ****** ******
   8  ****** ****** ****** ****** ****** ****** ****** ****** ****** ******
      ****** ****** ****** ****** ****** ****** ****** ****** ****** ******
      ****** ****** ****** ****** ****** ****** ****** ****** ****** ******
   9  ****** ****** ****** ****** ****** ****** ****** ****** ****** ******
      ****** ****** ****** ****** ****** ****** ****** ****** ****** ******
      ****** ****** ****** ****** ****** ****** ****** ****** ****** ******
  10  ****** ****** ****** ****** ****** ****** ****** ****** ****** ******
      ****** ****** ****** ****** ****** ****** ****** ****** ****** ******
      ****** ****** ****** ****** ****** ****** ****** ****** ****** ******
  11  ****** ****** ****** ****** ****** ****** ****** ****** ****** ******
      ****** ****** ****** ****** ****** ****** ****** ****** ****** ******
      ****** ****** ****** ****** ****** ****** ****** ****** ****** ******
  12  ****** ****** ****** ****** ****** ****** ****** ****** ****** ******
      ****** ****** ****** ****** ****** ****** ****** ****** ****** ******
      ****** ****** ****** ****** ****** ****** ****** ****** ****** ******
  13  ****** ****** ****** ****** ****** ****** ****** ****** ****** ******
      ****** ****** ****** ****** ****** ****** ****** ****** ****** ******
      ****** ****** ****** ****** ****** ****** ****** ****** ****** ******
  14  ****** ****** ****** ****** ****** ****** ****** ****** ****** ******
      ****** ****** ****** ****** ****** ****** ****** ****** ****** ******
      ****** ****** ****** ****** ****** ****** ****** ****** ****** ******
  15  ****** ****** ****** ****** ****** ****** ****** ****** ****** ******
      ****** ****** ****** ****** ****** ****** ****** ****** ****** ******
      ****** ****** ****** ****** ****** ****** ****** ****** ****** ******
  16  ****** ****** ****** ****** ****** ****** ****** ****** ****** ******
      ****** ****** ****** ****** ****** ****** ****** ****** ****** ******
      ****** ****** ****** ****** ****** ****** ****** ****** ****** ******
  17  ****** ****** ****** ****** ****** ****** ****** ****** ****** ******
      ****** ****** ****** ****** ****** ****** ****** ****** ****** ******
      ****** ****** ****** ****** ****** ****** ****** ****** ****** ******
  18  ****** ****** ****** ****** ****** ****** ****** ****** ****** ******
      ****** ****** ****** ****** ****** ****** ****** ****** ****** ******
      ****** ****** ****** ****** ****** ****** ****** ****** ****** ******
  19  ****** ****** ****** ****** ****** ****** ****** ****** ****** ******
      ****** ****** ****** ****** ****** ****** ****** ****** ****** ******
      ****** ****** ****** ****** ****** ****** ****** ****** ****** ******
  20  ****** ****** ****** ****** ****** ****** ****** ****** ****** ******
      ****** ****** ****** ****** ****** ****** ****** ****** ****** ******
      ****** ****** ****** ****** ****** ****** ****** ****** ****** ******
  21  ****** ****** ****** ****** ****** ****** ****** ****** ****** ******
      ****** ****** ****** ****** ****** ****** ****** ****** ****** ******
      ****** ****** ****** ****** ****** ****** ****** ****** ****** ******
  22  ****** ****** ****** ****** ****** ****** ****** ****** ****** ******
      ****** ****** ****** ****** ****** ****** ****** ****** ****** ******
      ****** ****** ****** ****** ****** ****** ****** ****** ****** ******
  23  ****** ****** ****** ****** ****** ****** ****** ****** ****** ******
      ****** ****** ****** ****** ****** ****** ****** ****** ****** ******
      ****** ****** ****** ****** ****** ****** ****** ****** ****** ******
  24  ****** ****** ****** ****** ****** ****** ****** ****** ****** ******
      ****** ****** ****** ****** ****** ****** ****** ****** ****** ******
      ****** ****** ****** ****** ****** ****** ****** ****** ****** ******
  25  ****** ****** ****** ****** ****** ****** ****** ****** ****** ******
      ****** ****** ****** ****** ****** ****** ****** ****** ****** ******
      ****** ****** ****** ****** ****** ****** ****** ****** ****** ******

 HEAD WILL BE SAVED ON UNIT   51 AT END OF TIME STEP    1, STRESS PERIOD    9
1
  VOLUMETRIC BUDGET FOR ENTIRE MODEL AT END OF TIME STEP    1, STRESS PERIOD   9
  ------------------------------------------------------------------------------

     CUMULATIVE VOLUMES      L**3       RATES FOR THIS TIME STEP      L**3/T
     ------------------                 ------------------------

           IN:                                      IN:
           ---                                      ---
             STORAGE =    21061728.0523               STORAGE =        1466.2927
       CONSTANT HEAD =   981427310.7031         CONSTANT HEAD =     1197155.0638
               WELLS =           0.0000                 WELLS =           0.0000
            RECHARGE =    18878400.0000              RECHARGE =       13800.0000
      STREAM LEAKAGE =           0.0000        STREAM LEAKAGE =           0.0000

            TOTAL IN =  1021367438.7554              TOTAL IN =     1212421.3565

          OUT:                                     OUT:
          ----                                     ----
             STORAGE =      794137.8463               STORAGE =         614.8123
       CONSTANT HEAD =           0.0000         CONSTANT HEAD =           0.0000
               WELLS =    66670091.0000                 WELLS =       80000.0000
            RECHARGE =           0.0000              RECHARGE =           0.0000
      STREAM LEAKAGE =   953903227.3335        STREAM LEAKAGE =     1131806.6117

           TOTAL OUT =  1021367456.1798             TOTAL OUT =     1212421.4240

            IN - OUT =         -17.4244              IN - OUT =      -6.7453E-02

 PERCENT DISCREPANCY =          -0.00     PERCENT DISCREPANCY =          -0.00






         TIME SUMMARY AT END OF TIME STEP    1 IN STRESS PERIOD    9
                    SECONDS     MINUTES      HOURS       DAYS        YEARS
                    -----------------------------------------------------------
   TIME STEP LENGTH 7.94880E+06 1.32480E+05  2208.0      92.000     0.25188    
 STRESS PERIOD TIME 7.94880E+06 1.32480E+05  2208.0      92.000     0.25188    
         TOTAL TIME 7.10208E+07 1.18368E+06  19728.      822.00      2.2505    
1
1
                            STRESS PERIOD NO.   10, LENGTH =   91.00000    
                            -----------------------------------------------

                              NUMBER OF TIME STEPS =     1

                               MULTIPLIER FOR DELT =     1.500

                            INITIAL TIME STEP SIZE =   91.00000    

 WELL NO.  LAYER   ROW   COL   STRESS RATE         
 --------------------------------------------------
      1      1      6     12     -0.5000E+05
      2      1     20     28       0.000    
      3      1      2      2     -0.3000E+05

      3 WELLS

                 RECHARGE =  2.000000E-03

 REUSING STREAM SEGMENT DATA FROM LAST STRESS PERIOD
 
 SOLVING FOR HEAD 


     6 CALLS TO PCG ROUTINE FOR TIME STEP   1 IN STRESS PERIOD   10
    22 TOTAL ITERATIONS

 OUTPUT CONTROL FOR STRESS PERIOD   10   TIME STEP    1
    SAVE BUDGET
    SAVE HEAD FOR ALL LAYERS
    PRINT HEAD FOR ALL LAYERS
 UBDSV2 SAVING "STREAMFLOW OUT  " ON UNIT  50 AT TIME STEP  1, STRESS PERIOD  10



 STREAM LISTING     PERIOD     10   STEP        1

 LAYER ROW COL. STREAM  RCH.  FLOW INTO     FLOW TO   FLOW OUT OF   OVRLND.     DIRECT     STREAM       STREAM     STREAM     STREAM   STREAMBED  STREAMBED
                SEG.NO.  NO.  STRM. RCH.    AQUIFER    STRM. RCH.    RUNOFF     PRECIP       ET          HEAD       DEPTH      WIDTH   CONDCTNC.   GRADIENT

   1   13    1     1     1    1.0000E+05 -2.7357E+04   1.2736E+05  0.000E+00  0.000E+00  0.000E+00  4.84176E+01  1.562E-01  2.000E+01  2.000E+04 -1.368E+00
   1   13    2     1     2    1.2736E+05 -3.6876E+04   1.6423E+05  0.000E+00  0.000E+00  0.000E+00  4.79655E+01  1.814E-01  2.000E+01  2.000E+04 -1.844E+00
   1   14    3     1     3    1.6423E+05 -3.2669E+04   1.9690E+05  0.000E+00  0.000E+00  0.000E+00  4.75130E+01  2.062E-01  2.000E+01  2.000E+04 -1.633E+00
   1   15    4     1     4    1.9690E+05 -3.2120E+04   2.2902E+05  0.000E+00  0.000E+00  0.000E+00  4.70572E+01  2.277E-01  2.000E+01  2.000E+04 -1.606E+00
   1   16    5     1     5    2.2902E+05 -3.3902E+04   2.6292E+05  0.000E+00  0.000E+00  0.000E+00  4.66005E+01  2.482E-01  2.000E+01  2.000E+04 -1.695E+00
   1   16    6     1     6    2.6292E+05 -2.9493E+04   2.9242E+05  0.000E+00  0.000E+00  0.000E+00  4.61420E+01  2.670E-01  2.000E+01  2.000E+04 -1.475E+00
   1   16    7     1     7    2.9242E+05 -2.9242E+04   3.2166E+05  0.000E+00  0.000E+00  0.000E+00  4.56813E+01  2.836E-01  2.000E+01  2.000E+04 -1.462E+00
   1   16    8     1     8    3.2166E+05 -2.9382E+04   3.5104E+05  0.000E+00  0.000E+00  0.000E+00  4.52200E+01  2.995E-01  2.000E+01  2.000E+04 -1.469E+00
   1   16    9     1     9    3.5104E+05 -2.9447E+04   3.8049E+05  0.000E+00  0.000E+00  0.000E+00  4.47581E+01  3.150E-01  2.000E+01  2.000E+04 -1.472E+00
   1   16   10     1    10    3.8049E+05 -2.9494E+04   4.0998E+05  0.000E+00  0.000E+00  0.000E+00  4.42959E+01  3.299E-01  2.000E+01  2.000E+04 -1.475E+00
   1   16   11     1    11    4.0998E+05 -3.0175E+04   4.4016E+05  0.000E+00  0.000E+00  0.000E+00  4.38333E+01  3.447E-01  2.000E+01  2.000E+04 -1.509E+00
   1   16   12     1    12    4.4016E+05 -3.5886E+04   4.7604E+05  0.000E+00  0.000E+00  0.000E+00  4.33719E+01  3.605E-01  2.000E+01  2.000E+04 -1.794E+00
   1   15   13     1    13    4.7604E+05 -3.4210E+04   5.1025E+05  0.000E+00  0.000E+00  0.000E+00  4.29109E+01  3.768E-01  2.000E+01  2.000E+04 -1.710E+00
   1   14   14     1    14    5.1025E+05 -3.4428E+04   5.4468E+05  0.000E+00  0.000E+00  0.000E+00  4.24491E+01  3.923E-01  2.000E+01  2.000E+04 -1.721E+00
   1   13   15     1    15    5.4468E+05 -3.6279E+04   5.8096E+05  0.000E+00  0.000E+00  0.000E+00  4.19874E+01  4.079E-01  2.000E+01  2.000E+04 -1.814E+00
   1   12   16     1    16    5.8096E+05 -4.1908E+04   6.2287E+05  0.000E+00  0.000E+00  0.000E+00  4.15269E+01  4.247E-01  2.000E+01  2.000E+04 -2.095E+00
   1   12   17     1    17    6.2287E+05 -3.3225E+04   6.5609E+05  0.000E+00  0.000E+00  0.000E+00  4.10654E+01  4.404E-01  2.000E+01  2.000E+04 -1.661E+00
   1   12   18     1    18    6.5609E+05 -3.1939E+04   6.8803E+05  0.000E+00  0.000E+00  0.000E+00  4.06014E+01  4.537E-01  2.000E+01  2.000E+04 -1.597E+00
   1   12   19     1    19    6.8803E+05 -3.6189E+04   7.2422E+05  0.000E+00  0.000E+00  0.000E+00  4.01378E+01  4.674E-01  2.000E+01  2.000E+04 -1.809E+00
   1   13   20     1    20    7.2422E+05 -2.6929E+04   7.5115E+05  0.000E+00  0.000E+00  0.000E+00  3.96730E+01  4.798E-01  2.000E+01  2.000E+04 -1.346E+00
   1   14   21     1    21    7.5115E+05 -2.0023E+04   7.7117E+05  0.000E+00  0.000E+00  0.000E+00  3.92048E+01  4.889E-01  2.000E+01  2.000E+04 -1.001E+00
   1   14   22     1    22    7.7117E+05 -1.8936E+03   7.7307E+05  0.000E+00  0.000E+00  0.000E+00  3.87317E+01  4.931E-01  2.000E+01  2.000E+04 -9.468E-02
   1    9   30     2     1    5.0000E+04 -2.6878E+04   7.6878E+04  0.000E+00  0.000E+00  0.000E+00  4.02587E+01  1.337E-01  2.000E+01  2.000E+04 -1.344E+00
   1    9   29     2     2    7.6878E+04 -2.9335E+04   1.0621E+05  0.000E+00  0.000E+00  0.000E+00  4.00416E+01  1.666E-01  2.000E+01  2.000E+04 -1.467E+00
   1    9   28     2     3    1.0621E+05 -3.3609E+04   1.3982E+05  0.000E+00  0.000E+00  0.000E+00  3.98239E+01  1.989E-01  2.000E+01  2.000E+04 -1.680E+00
   1    9   27     2     4    1.3982E+05 -4.7736E+04   1.8756E+05  0.000E+00  0.000E+00  0.000E+00  3.96110E+01  2.360E-01  2.000E+01  2.000E+04 -2.387E+00
   1   10   26     2     5    1.8756E+05 -3.3699E+04   2.2126E+05  0.000E+00  0.000E+00  0.000E+00  3.93947E+01  2.697E-01  2.000E+01  2.000E+04 -1.685E+00
   1   11   25     2     6    2.2126E+05 -2.5316E+04   2.4657E+05  0.000E+00  0.000E+00  0.000E+00  3.91674E+01  2.924E-01  2.000E+01  2.000E+04 -1.266E+00
   1   12   24     2     7    2.4657E+05 -1.8707E+04   2.6528E+05  0.000E+00  0.000E+00  0.000E+00  3.89336E+01  3.086E-01  2.000E+01  2.000E+04 -9.354E-01
   1   13   23     2     8    2.6528E+05 -1.3329E+04   2.7861E+05  0.000E+00  0.000E+00  0.000E+00  3.86951E+01  3.201E-01  2.000E+01  2.000E+04 -6.664E-01
   1   14   22     2     9    2.7861E+05 -7.4808E+03   2.8609E+05  0.000E+00  0.000E+00  0.000E+00  3.84524E+01  3.274E-01  2.000E+01  2.000E+04 -3.740E-01
   1   14   22     3     1    1.0592E+06 -1.5481E+04   1.0746E+06  0.000E+00  0.000E+00  0.000E+00  3.80523E+01  4.968E-01  2.000E+01  2.000E+04 -7.741E-01
   1   15   23     3     2    1.0746E+06 -2.4066E+04   1.0987E+06  0.000E+00  0.000E+00  0.000E+00  3.71690E+01  5.023E-01  2.000E+01  2.000E+04 -1.203E+00
   1   15   24     3     3    1.0987E+06 -2.0032E+04   1.1187E+06  0.000E+00  0.000E+00  0.000E+00  3.62862E+01  5.084E-01  2.000E+01  2.000E+04 -1.002E+00
   1   15   25     3     4    1.1187E+06 -1.9626E+04   1.1384E+06  0.000E+00  0.000E+00  0.000E+00  3.54027E+01  5.138E-01  2.000E+01  2.000E+04 -9.813E-01
   1   15   26     3     5    1.1384E+06 -2.2430E+04   1.1608E+06  0.000E+00  0.000E+00  0.000E+00  3.45195E+01  5.195E-01  2.000E+01  2.000E+04 -1.122E+00
   1   16   27     3     6    1.1608E+06 -2.9665E+04   1.1905E+06  0.000E+00  0.000E+00  0.000E+00  3.36377E+01  5.266E-01  2.000E+01  2.000E+04 -1.483E+00
   1   17   28     3     7    1.1905E+06 -3.6712E+04   1.2272E+06  0.000E+00  0.000E+00  0.000E+00  3.27577E+01  5.354E-01  2.000E+01  2.000E+04 -1.836E+00
   1   18   29     3     8    1.2272E+06 -4.7645E+04   1.2748E+06  0.000E+00  0.000E+00  0.000E+00  3.18799E+01  5.466E-01  2.000E+01  2.000E+04 -2.382E+00
   1   18   30     3     9    1.2748E+06 -4.4019E+04   1.3188E+06  0.000E+00  0.000E+00  0.000E+00  3.10030E+01  5.585E-01  2.000E+01  2.000E+04 -2.201E+00



1
              HEAD IN LAYER   1 AT END OF TIME STEP   1 IN STRESS PERIOD   10
  ---------------------------------------------------------------------------

          1      2      3      4      5      6      7      8      9     10
         11     12     13     14     15     16     17     18     19     20
         21     22     23     24     25     26     27     28     29     30
 .........................................................................
   1  ****** ****** ****** ****** ****** ****** ****** ****** ****** ******
      ****** ****** ****** ****** ****** ****** ****** ****** ****** ******
      ****** ****** ****** ****** ****** ****** ****** ****** ****** ******
   2  ****** ****** ****** ****** ****** ****** ****** ****** ****** ******
      ****** ****** ****** ****** ****** ****** ****** ****** ****** ******
      ****** ****** ****** ****** ****** ****** ****** ****** ****** ******
   3  ****** ****** ****** ****** ****** ****** ****** ****** ****** ******
      ****** ****** ****** ****** ****** ****** ****** ****** ****** ******
      ****** ****** ****** ****** ****** ****** ****** ****** ****** ******
   4  ****** ****** ****** ****** ****** ****** ****** ****** ****** ******
      ****** ****** ****** ****** ****** ****** ****** ****** ****** ******
      ****** ****** ****** ****** ****** ****** ****** ****** ****** ******
   5  ****** ****** ****** ****** ****** ****** ****** ****** ****** ******
      ****** ****** ****** ****** ****** ****** ****** ****** ****** ******
      ****** ****** ****** ****** ****** ****** ****** ****** ****** ******
   6  ****** ****** ****** ****** ****** ****** ****** ****** ****** ******
      ****** ****** ****** ****** ****** ****** ****** ****** ****** ******
      ****** ****** ****** ****** ****** ****** ****** ****** ****** ******
   7  ****** ****** ****** ****** ****** ****** ****** ****** ****** ******
      ****** ****** ****** ****** ****** ****** ****** ****** ****** ******
      ****** ****** ****** ****** ****** ****** ****** ****** ****** ******
   8  ****** ****** ****** ****** ****** ****** ****** ****** ****** ******
      ****** ****** ****** ****** ****** ****** ****** ****** ****** ******
      ****** ****** ****** ****** ****** ****** ****** ****** ****** ******
   9  ****** ****** ****** ****** ****** ****** ****** ****** ****** ******
      ****** ****** ****** ****** ****** ****** ****** ****** ****** ******
      ****** ****** ****** ****** ****** ****** ****** ****** ****** ******
  10  ****** ****** ****** ****** ****** ****** ****** ****** ****** ******
      ****** ****** ****** ****** ****** ****** ****** ****** ****** ******
      ****** ****** ****** ****** ****** ****** ****** ****** ****** ******
  11  ****** ****** ****** ****** ****** ****** ****** ****** ****** ******
      ****** ****** ****** ****** ****** ****** ****** ****** ****** ******
      ****** ****** ****** ****** ****** ****** ****** ****** ****** ******
  12  ****** ****** ****** ****** ****** ****** ****** ****** ****** ******
      ****** ****** ****** ****** ****** ****** ****** ****** ****** ******
      ****** ****** ****** ****** ****** ****** ****** ****** ****** ******
  13  ****** ****** ****** ****** ****** ****** ****** ****** ****** ******
      ****** ****** ****** ****** ****** ****** ****** ****** ****** ******
      ****** ****** ****** ****** ****** ****** ****** ****** ****** ******
  14  ****** ****** ****** ****** ****** ****** ****** ****** ****** ******
      ****** ****** ****** ****** ****** ****** ****** ****** ****** ******
      ****** ****** ****** ****** ****** ****** ****** ****** ****** ******
  15  ****** ****** ****** ****** ****** ****** ****** ****** ****** ******
      ****** ****** ****** ****** ****** ****** ****** ****** ****** ******
      ****** ****** ****** ****** ****** ****** ****** ****** ****** ******
  16  ****** ****** ****** ****** ****** ****** ****** ****** ****** ******
      ****** ****** ****** ****** ****** ****** ****** ****** ****** ******
      ****** ****** ****** ****** ****** ****** ****** ****** ****** ******
  17  ****** ****** ****** ****** ****** ****** ****** ****** ****** ******
      ****** ****** ****** ****** ****** ****** ****** ****** ****** ******
      ****** ****** ****** ****** ****** ****** ****** ****** ****** ******
  18  ****** ****** ****** ****** ****** ****** ****** ****** ****** ******
      ****** ****** ****** ****** ****** ****** ****** ****** ****** ******
      ****** ****** ****** ****** ****** ****** ****** ****** ****** ******
  19  ****** ****** ****** ****** ****** ****** ****** ****** ****** ******
      ****** ****** ****** ****** ****** ****** ****** ****** ****** ******
      ****** ****** ****** ****** ****** ****** ****** ****** ****** ******
  20  ****** ****** ****** ****** ****** ****** ****** ****** ****** ******
      ****** ****** ****** ****** ****** ****** ****** ****** ****** ******
      ****** ****** ****** ****** ****** ****** ****** ****** ****** ******
  21  ****** ****** ****** ****** ****** ****** ****** ****** ****** ******
      ****** ****** ****** ****** ****** ****** ****** ****** ****** ******
      ****** ****** ****** ****** ****** ****** ****** ****** ****** ******
  22  ****** ****** ****** ****** ****** ****** ****** ****** ****** ******
      ****** ****** ****** ****** ****** ****** ****** ****** ****** ******
      ****** ****** ****** ****** ****** ****** ****** ****** ****** ******
  23  ****** ****** ****** ****** ****** ****** ****** ****** ****** ******
      ****** ****** ****** ****** ****** ****** ****** ****** ****** ******
      ****** ****** ****** ****** ****** ****** ****** ****** ****** ******
  24  ****** ****** ****** ****** ****** ****** ****** ****** ****** ******
      ****** ****** ****** ****** ****** ****** ****** ****** ****** ******
      ****** ****** ****** ****** ****** ****** ****** ****** ****** ******
  25  ****** ****** ****** ****** ****** ****** ****** ****** ****** ******
      ****** ****** ****** ****** ****** ****** ****** ****** ****** ******
      ****** ****** ****** ****** ****** ****** ****** ****** ****** ******

 HEAD WILL BE SAVED ON UNIT   51 AT END OF TIME STEP    1, STRESS PERIOD   10
1
  VOLUMETRIC BUDGET FOR ENTIRE MODEL AT END OF TIME STEP    1, STRESS PERIOD  10
  ------------------------------------------------------------------------------

     CUMULATIVE VOLUMES      L**3       RATES FOR THIS TIME STEP      L**3/T
     ------------------                 ------------------------

           IN:                                      IN:
           ---                                      ---
             STORAGE =    21090046.9924               STORAGE =         311.1971
       CONSTANT HEAD =  1090260516.6270         CONSTANT HEAD =     1195969.2959
               WELLS =           0.0000                 WELLS =           0.0000
            RECHARGE =    23901600.0000              RECHARGE =       55200.0000
      STREAM LEAKAGE =           0.0000        STREAM LEAKAGE =           0.0000

            TOTAL IN =  1135252163.6194              TOTAL IN =     1251480.4930

          OUT:                                     OUT:
          ----                                     ----
             STORAGE =     1035191.8562               STORAGE =        2648.9452
       CONSTANT HEAD =           0.0000         CONSTANT HEAD =           0.0000
               WELLS =    73950091.0000                 WELLS =       80000.0000
            RECHARGE =           0.0000              RECHARGE =           0.0000
      STREAM LEAKAGE =  1060266895.3493        STREAM LEAKAGE =     1168831.5167

           TOTAL OUT =  1135252178.2055             TOTAL OUT =     1251480.4618

            IN - OUT =         -14.5861              IN - OUT =       3.1191E-02

 PERCENT DISCREPANCY =          -0.00     PERCENT DISCREPANCY =           0.00






         TIME SUMMARY AT END OF TIME STEP    1 IN STRESS PERIOD   10
                    SECONDS     MINUTES      HOURS       DAYS        YEARS
                    -----------------------------------------------------------
   TIME STEP LENGTH 7.86240E+06 1.31040E+05  2184.0      91.000     0.24914    
 STRESS PERIOD TIME 7.86240E+06 1.31040E+05  2184.0      91.000     0.24914    
         TOTAL TIME 7.88832E+07 1.31472E+06  21912.      913.00      2.4997    
1
1
                            STRESS PERIOD NO.   11, LENGTH =   91.00000    
                            -----------------------------------------------

                              NUMBER OF TIME STEPS =     1

                               MULTIPLIER FOR DELT =     1.500

                            INITIAL TIME STEP SIZE =   91.00000    

 WELL NO.  LAYER   ROW   COL   STRESS RATE         
 --------------------------------------------------
      1      1      6     12     -0.5000E+05
      2      1     20     28     -0.3000E+05

      2 WELLS

                 RECHARGE =   0.00000    

 REUSING STREAM SEGMENT DATA FROM LAST STRESS PERIOD
 
 SOLVING FOR HEAD 


     6 CALLS TO PCG ROUTINE FOR TIME STEP   1 IN STRESS PERIOD   11
    22 TOTAL ITERATIONS

 OUTPUT CONTROL FOR STRESS PERIOD   11   TIME STEP    1
    SAVE BUDGET
    SAVE HEAD FOR ALL LAYERS
    PRINT HEAD FOR ALL LAYERS
 UBDSV2 SAVING "STREAMFLOW OUT  " ON UNIT  50 AT TIME STEP  1, STRESS PERIOD  11



 STREAM LISTING     PERIOD     11   STEP        1

 LAYER ROW COL. STREAM  RCH.  FLOW INTO     FLOW TO   FLOW OUT OF   OVRLND.     DIRECT     STREAM       STREAM     STREAM     STREAM   STREAMBED  STREAMBED
                SEG.NO.  NO.  STRM. RCH.    AQUIFER    STRM. RCH.    RUNOFF     PRECIP       ET          HEAD       DEPTH      WIDTH   CONDCTNC.   GRADIENT

   1   13    1     1     1    1.0000E+05 -2.6807E+04   1.2681E+05  0.000E+00  0.000E+00  0.000E+00  4.84174E+01  1.560E-01  2.000E+01  2.000E+04 -1.340E+00
   1   13    2     1     2    1.2681E+05 -3.6221E+04   1.6303E+05  0.000E+00  0.000E+00  0.000E+00  4.79648E+01  1.807E-01  2.000E+01  2.000E+04 -1.811E+00
   1   14    3     1     3    1.6303E+05 -3.1890E+04   1.9492E+05  0.000E+00  0.000E+00  0.000E+00  4.75119E+01  2.051E-01  2.000E+01  2.000E+04 -1.594E+00
   1   15    4     1     4    1.9492E+05 -3.1296E+04   2.2621E+05  0.000E+00  0.000E+00  0.000E+00  4.70557E+01  2.261E-01  2.000E+01  2.000E+04 -1.565E+00
   1   16    5     1     5    2.2621E+05 -3.3102E+04   2.5932E+05  0.000E+00  0.000E+00  0.000E+00  4.65986E+01  2.463E-01  2.000E+01  2.000E+04 -1.655E+00
   1   16    6     1     6    2.5932E+05 -2.8807E+04   2.8812E+05  0.000E+00  0.000E+00  0.000E+00  4.61397E+01  2.647E-01  2.000E+01  2.000E+04 -1.440E+00
   1   16    7     1     7    2.8812E+05 -2.8562E+04   3.1669E+05  0.000E+00  0.000E+00  0.000E+00  4.56787E+01  2.810E-01  2.000E+01  2.000E+04 -1.428E+00
   1   16    8     1     8    3.1669E+05 -2.8693E+04   3.4538E+05  0.000E+00  0.000E+00  0.000E+00  4.52171E+01  2.967E-01  2.000E+01  2.000E+04 -1.435E+00
   1   16    9     1     9    3.4538E+05 -2.8748E+04   3.7413E+05  0.000E+00  0.000E+00  0.000E+00  4.47550E+01  3.118E-01  2.000E+01  2.000E+04 -1.437E+00
   1   16   10     1    10    3.7413E+05 -2.8785E+04   4.0291E+05  0.000E+00  0.000E+00  0.000E+00  4.42925E+01  3.266E-01  2.000E+01  2.000E+04 -1.439E+00
   1   16   11     1    11    4.0291E+05 -2.9439E+04   4.3235E+05  0.000E+00  0.000E+00  0.000E+00  4.38297E+01  3.410E-01  2.000E+01  2.000E+04 -1.472E+00
   1   16   12     1    12    4.3235E+05 -3.4996E+04   4.6735E+05  0.000E+00  0.000E+00  0.000E+00  4.33679E+01  3.566E-01  2.000E+01  2.000E+04 -1.750E+00
   1   15   13     1    13    4.6735E+05 -3.3241E+04   5.0059E+05  0.000E+00  0.000E+00  0.000E+00  4.29067E+01  3.726E-01  2.000E+01  2.000E+04 -1.662E+00
   1   14   14     1    14    5.0059E+05 -3.3432E+04   5.3402E+05  0.000E+00  0.000E+00  0.000E+00  4.24446E+01  3.878E-01  2.000E+01  2.000E+04 -1.672E+00
   1   13   15     1    15    5.3402E+05 -3.5296E+04   5.6932E+05  0.000E+00  0.000E+00  0.000E+00  4.19826E+01  4.030E-01  2.000E+01  2.000E+04 -1.765E+00
   1   12   16     1    16    5.6932E+05 -4.0975E+04   6.1029E+05  0.000E+00  0.000E+00  0.000E+00  4.15218E+01  4.195E-01  2.000E+01  2.000E+04 -2.049E+00
   1   12   17     1    17    6.1029E+05 -3.2446E+04   6.4274E+05  0.000E+00  0.000E+00  0.000E+00  4.10600E+01  4.350E-01  2.000E+01  2.000E+04 -1.622E+00
   1   12   18     1    18    6.4274E+05 -3.1180E+04   6.7392E+05  0.000E+00  0.000E+00  0.000E+00  4.05958E+01  4.481E-01  2.000E+01  2.000E+04 -1.559E+00
   1   12   19     1    19    6.7392E+05 -3.5354E+04   7.0927E+05  0.000E+00  0.000E+00  0.000E+00  4.01320E+01  4.616E-01  2.000E+01  2.000E+04 -1.768E+00
   1   13   20     1    20    7.0927E+05 -2.6086E+04   7.3536E+05  0.000E+00  0.000E+00  0.000E+00  3.96669E+01  4.738E-01  2.000E+01  2.000E+04 -1.304E+00
   1   14   21     1    21    7.3536E+05 -1.9193E+04   7.5455E+05  0.000E+00  0.000E+00  0.000E+00  3.91985E+01  4.826E-01  2.000E+01  2.000E+04 -9.596E-01
   1   14   22     1    22    7.5455E+05 -1.5755E+03   7.5613E+05  0.000E+00  0.000E+00  0.000E+00  3.87253E+01  4.866E-01  2.000E+01  2.000E+04 -7.878E-02
   1    9   30     2     1    5.0000E+04 -2.6243E+04   7.6243E+04  0.000E+00  0.000E+00  0.000E+00  4.02583E+01  1.333E-01  2.000E+01  2.000E+04 -1.312E+00
   1    9   29     2     2    7.6243E+04 -2.8704E+04   1.0495E+05  0.000E+00  0.000E+00  0.000E+00  4.00405E+01  1.655E-01  2.000E+01  2.000E+04 -1.435E+00
   1    9   28     2     3    1.0495E+05 -3.2965E+04   1.3791E+05  0.000E+00  0.000E+00  0.000E+00  3.98223E+01  1.973E-01  2.000E+01  2.000E+04 -1.648E+00
   1    9   27     2     4    1.3791E+05 -4.6965E+04   1.8488E+05  0.000E+00  0.000E+00  0.000E+00  3.96090E+01  2.340E-01  2.000E+01  2.000E+04 -2.348E+00
   1   10   26     2     5    1.8488E+05 -3.2879E+04   2.1776E+05  0.000E+00  0.000E+00  0.000E+00  3.93922E+01  2.672E-01  2.000E+01  2.000E+04 -1.644E+00
   1   11   25     2     6    2.1776E+05 -2.4514E+04   2.4227E+05  0.000E+00  0.000E+00  0.000E+00  3.91645E+01  2.895E-01  2.000E+01  2.000E+04 -1.226E+00
   1   12   24     2     7    2.4227E+05 -1.7979E+04   2.6025E+05  0.000E+00  0.000E+00  0.000E+00  3.89302E+01  3.052E-01  2.000E+01  2.000E+04 -8.990E-01
   1   13   23     2     8    2.6025E+05 -1.2718E+04   2.7297E+05  0.000E+00  0.000E+00  0.000E+00  3.86913E+01  3.163E-01  2.000E+01  2.000E+04 -6.359E-01
   1   14   22     2     9    2.7297E+05 -7.1150E+03   2.8008E+05  0.000E+00  0.000E+00  0.000E+00  3.84483E+01  3.233E-01  2.000E+01  2.000E+04 -3.557E-01
   1   14   22     3     1    1.0362E+06 -1.5164E+04   1.0514E+06  0.000E+00  0.000E+00  0.000E+00  3.80459E+01  4.903E-01  2.000E+01  2.000E+04 -7.582E-01
   1   15   23     3     2    1.0514E+06 -2.2991E+04   1.0744E+06  0.000E+00  0.000E+00  0.000E+00  3.71623E+01  4.957E-01  2.000E+01  2.000E+04 -1.150E+00
   1   15   24     3     3    1.0744E+06 -1.9032E+04   1.0934E+06  0.000E+00  0.000E+00  0.000E+00  3.62793E+01  5.015E-01  2.000E+01  2.000E+04 -9.516E-01
   1   15   25     3     4    1.0934E+06 -1.8551E+04   1.1119E+06  0.000E+00  0.000E+00  0.000E+00  3.53956E+01  5.067E-01  2.000E+01  2.000E+04 -9.275E-01
   1   15   26     3     5    1.1119E+06 -2.1185E+04   1.1331E+06  0.000E+00  0.000E+00  0.000E+00  3.45122E+01  5.122E-01  2.000E+01  2.000E+04 -1.059E+00
   1   16   27     3     6    1.1331E+06 -2.7415E+04   1.1605E+06  0.000E+00  0.000E+00  0.000E+00  3.36299E+01  5.188E-01  2.000E+01  2.000E+04 -1.371E+00
   1   17   28     3     7    1.1605E+06 -3.2916E+04   1.1935E+06  0.000E+00  0.000E+00  0.000E+00  3.27492E+01  5.269E-01  2.000E+01  2.000E+04 -1.646E+00
   1   18   29     3     8    1.1935E+06 -4.1807E+04   1.2353E+06  0.000E+00  0.000E+00  0.000E+00  3.18703E+01  5.369E-01  2.000E+01  2.000E+04 -2.090E+00
   1   18   30     3     9    1.2353E+06 -3.9911E+04   1.2752E+06  0.000E+00  0.000E+00  0.000E+00  3.09921E+01  5.477E-01  2.000E+01  2.000E+04 -1.996E+00



1
              HEAD IN LAYER   1 AT END OF TIME STEP   1 IN STRESS PERIOD   11
  ---------------------------------------------------------------------------

          1      2      3      4      5      6      7      8      9     10
         11     12     13     14     15     16     17     18     19     20
         21     22     23     24     25     26     27     28     29     30
 .........................................................................
   1  ****** ****** ****** ****** ****** ****** ****** ****** ****** ******
      ****** ****** ****** ****** ****** ****** ****** ****** ****** ******
      ****** ****** ****** ****** ****** ****** ****** ****** ****** ******
   2  ****** ****** ****** ****** ****** ****** ****** ****** ****** ******
      ****** ****** ****** ****** ****** ****** ****** ****** ****** ******
      ****** ****** ****** ****** ****** ****** ****** ****** ****** ******
   3  ****** ****** ****** ****** ****** ****** ****** ****** ****** ******
      ****** ****** ****** ****** ****** ****** ****** ****** ****** ******
      ****** ****** ****** ****** ****** ****** ****** ****** ****** ******
   4  ****** ****** ****** ****** ****** ****** ****** ****** ****** ******
      ****** ****** ****** ****** ****** ****** ****** ****** ****** ******
      ****** ****** ****** ****** ****** ****** ****** ****** ****** ******
   5  ****** ****** ****** ****** ****** ****** ****** ****** ****** ******
      ****** ****** ****** ****** ****** ****** ****** ****** ****** ******
      ****** ****** ****** ****** ****** ****** ****** ****** ****** ******
   6  ****** ****** ****** ****** ****** ****** ****** ****** ****** ******
      ****** ****** ****** ****** ****** ****** ****** ****** ****** ******
      ****** ****** ****** ****** ****** ****** ****** ****** ****** ******
   7  ****** ****** ****** ****** ****** ****** ****** ****** ****** ******
      ****** ****** ****** ****** ****** ****** ****** ****** ****** ******
      ****** ****** ****** ****** ****** ****** ****** ****** ****** ******
   8  ****** ****** ****** ****** ****** ****** ****** ****** ****** ******
      ****** ****** ****** ****** ****** ****** ****** ****** ****** ******
      ****** ****** ****** ****** ****** ****** ****** ****** ****** ******
   9  ****** ****** ****** ****** ****** ****** ****** ****** ****** ******
      ****** ****** ****** ****** ****** ****** ****** ****** ****** ******
      ****** ****** ****** ****** ****** ****** ****** ****** ****** ******
  10  ****** ****** ****** ****** ****** ****** ****** ****** ****** ******
      ****** ****** ****** ****** ****** ****** ****** ****** ****** ******
      ****** ****** ****** ****** ****** ****** ****** ****** ****** ******
  11  ****** ****** ****** ****** ****** ****** ****** ****** ****** ******
      ****** ****** ****** ****** ****** ****** ****** ****** ****** ******
      ****** ****** ****** ****** ****** ****** ****** ****** ****** ******
  12  ****** ****** ****** ****** ****** ****** ****** ****** ****** ******
      ****** ****** ****** ****** ****** ****** ****** ****** ****** ******
      ****** ****** ****** ****** ****** ****** ****** ****** ****** ******
  13  ****** ****** ****** ****** ****** ****** ****** ****** ****** ******
      ****** ****** ****** ****** ****** ****** ****** ****** ****** ******
      ****** ****** ****** ****** ****** ****** ****** ****** ****** ******
  14  ****** ****** ****** ****** ****** ****** ****** ****** ****** ******
      ****** ****** ****** ****** ****** ****** ****** ****** ****** ******
      ****** ****** ****** ****** ****** ****** ****** ****** ****** ******
  15  ****** ****** ****** ****** ****** ****** ****** ****** ****** ******
      ****** ****** ****** ****** ****** ****** ****** ****** ****** ******
      ****** ****** ****** ****** ****** ****** ****** ****** ****** ******
  16  ****** ****** ****** ****** ****** ****** ****** ****** ****** ******
      ****** ****** ****** ****** ****** ****** ****** ****** ****** ******
      ****** ****** ****** ****** ****** ****** ****** ****** ****** ******
  17  ****** ****** ****** ****** ****** ****** ****** ****** ****** ******
      ****** ****** ****** ****** ****** ****** ****** ****** ****** ******
      ****** ****** ****** ****** ****** ****** ****** ****** ****** ******
  18  ****** ****** ****** ****** ****** ****** ****** ****** ****** ******
      ****** ****** ****** ****** ****** ****** ****** ****** ****** ******
      ****** ****** ****** ****** ****** ****** ****** ****** ****** ******
  19  ****** ****** ****** ****** ****** ****** ****** ****** ****** ******
      ****** ****** ****** ****** ****** ****** ****** ****** ****** ******
      ****** ****** ****** ****** ****** ****** ****** ****** ****** ******
  20  ****** ****** ****** ****** ****** ****** ****** ****** ****** ******
      ****** ****** ****** ****** ****** ****** ****** ****** ****** ******
      ****** ****** ****** ****** ****** ****** ****** ****** ****** ******
  21  ****** ****** ****** ****** ****** ****** ****** ****** ****** ******
      ****** ****** ****** ****** ****** ****** ****** ****** ****** ******
      ****** ****** ****** ****** ****** ****** ****** ****** ****** ******
  22  ****** ****** ****** ****** ****** ****** ****** ****** ****** ******
      ****** ****** ****** ****** ****** ****** ****** ****** ****** ******
      ****** ****** ****** ****** ****** ****** ****** ****** ****** ******
  23  ****** ****** ****** ****** ****** ****** ****** ****** ****** ******
      ****** ****** ****** ****** ****** ****** ****** ****** ****** ******
      ****** ****** ****** ****** ****** ****** ****** ****** ****** ******
  24  ****** ****** ****** ****** ****** ****** ****** ****** ****** ******
      ****** ****** ****** ****** ****** ****** ****** ****** ****** ******
      ****** ****** ****** ****** ****** ****** ****** ****** ****** ******
  25  ****** ****** ****** ****** ****** ****** ****** ****** ****** ******
      ****** ****** ****** ****** ****** ****** ****** ****** ****** ******
      ****** ****** ****** ****** ****** ****** ****** ****** ****** ******

 HEAD WILL BE SAVED ON UNIT   51 AT END OF TIME STEP    1, STRESS PERIOD   11
1
  VOLUMETRIC BUDGET FOR ENTIRE MODEL AT END OF TIME STEP    1, STRESS PERIOD  11
  ------------------------------------------------------------------------------

     CUMULATIVE VOLUMES      L**3       RATES FOR THIS TIME STEP      L**3/T
     ------------------                 ------------------------

           IN:                                      IN:
           ---                                      ---
             STORAGE =    21379513.3286               STORAGE =        3180.9487
       CONSTANT HEAD =  1199667323.5088         CONSTANT HEAD =     1202272.6031
               WELLS =           0.0000                 WELLS =           0.0000
            RECHARGE =    23901600.0000              RECHARGE =           0.0000
      STREAM LEAKAGE =           0.0000        STREAM LEAKAGE =           0.0000

            TOTAL IN =  1244948436.8374              TOTAL IN =     1205453.5518

          OUT:                                     OUT:
          ----                                     ----
             STORAGE =     1060059.0891               STORAGE =         273.2663
       CONSTANT HEAD =           0.0000         CONSTANT HEAD =           0.0000
               WELLS =    81230091.0000                 WELLS =       80000.0000
            RECHARGE =           0.0000              RECHARGE =           0.0000
      STREAM LEAKAGE =  1162658305.1424        STREAM LEAKAGE =     1125180.3274

           TOTAL OUT =  1244948455.2316             TOTAL OUT =     1205453.5937

            IN - OUT =         -18.3942              IN - OUT =      -4.1848E-02

 PERCENT DISCREPANCY =          -0.00     PERCENT DISCREPANCY =          -0.00






         TIME SUMMARY AT END OF TIME STEP    1 IN STRESS PERIOD   11
                    SECONDS     MINUTES      HOURS       DAYS        YEARS
                    -----------------------------------------------------------
   TIME STEP LENGTH 7.86240E+06 1.31040E+05  2184.0      91.000     0.24914    
 STRESS PERIOD TIME 7.86240E+06 1.31040E+05  2184.0      91.000     0.24914    
         TOTAL TIME 8.67456E+07 1.44576E+06  24096.      1004.0      2.7488    
1
1
                            STRESS PERIOD NO.   12, LENGTH =   91.00000    
                            -----------------------------------------------

                              NUMBER OF TIME STEPS =     1

                               MULTIPLIER FOR DELT =     1.500

                            INITIAL TIME STEP SIZE =   91.00000    

 WELL NO.  LAYER   ROW   COL   STRESS RATE         
 --------------------------------------------------
      1      1      6     12     -0.5000E+05
      2      1     20     28       0.000    
      3      1      2      2     -0.3500E+05

      3 WELLS

                 RECHARGE =  1.000000E-03

 REUSING STREAM SEGMENT DATA FROM LAST STRESS PERIOD
 
 SOLVING FOR HEAD 


     6 CALLS TO PCG ROUTINE FOR TIME STEP   1 IN STRESS PERIOD   12
    22 TOTAL ITERATIONS

 OUTPUT CONTROL FOR STRESS PERIOD   12   TIME STEP    1
    SAVE BUDGET
    SAVE HEAD FOR ALL LAYERS
    PRINT HEAD FOR ALL LAYERS
 UBDSV2 SAVING "STREAMFLOW OUT  " ON UNIT  50 AT TIME STEP  1, STRESS PERIOD  12



 STREAM LISTING     PERIOD     12   STEP        1

 LAYER ROW COL. STREAM  RCH.  FLOW INTO     FLOW TO   FLOW OUT OF   OVRLND.     DIRECT     STREAM       STREAM     STREAM     STREAM   STREAMBED  STREAMBED
                SEG.NO.  NO.  STRM. RCH.    AQUIFER    STRM. RCH.    RUNOFF     PRECIP       ET          HEAD       DEPTH      WIDTH   CONDCTNC.   GRADIENT

   1   13    1     1     1    1.0000E+05 -2.6850E+04   1.2685E+05  0.000E+00  0.000E+00  0.000E+00  4.84174E+01  1.560E-01  2.000E+01  2.000E+04 -1.342E+00
   1   13    2     1     2    1.2685E+05 -3.6268E+04   1.6312E+05  0.000E+00  0.000E+00  0.000E+00  4.79649E+01  1.808E-01  2.000E+01  2.000E+04 -1.813E+00
   1   14    3     1     3    1.6312E+05 -3.2101E+04   1.9522E+05  0.000E+00  0.000E+00  0.000E+00  4.75121E+01  2.052E-01  2.000E+01  2.000E+04 -1.605E+00
   1   15    4     1     4    1.9522E+05 -3.1588E+04   2.2681E+05  0.000E+00  0.000E+00  0.000E+00  4.70560E+01  2.264E-01  2.000E+01  2.000E+04 -1.579E+00
   1   16    5     1     5    2.2681E+05 -3.3433E+04   2.6024E+05  0.000E+00  0.000E+00  0.000E+00  4.65990E+01  2.467E-01  2.000E+01  2.000E+04 -1.672E+00
   1   16    6     1     6    2.6024E+05 -2.9083E+04   2.8932E+05  0.000E+00  0.000E+00  0.000E+00  4.61403E+01  2.653E-01  2.000E+01  2.000E+04 -1.454E+00
   1   16    7     1     7    2.8932E+05 -2.8836E+04   3.1816E+05  0.000E+00  0.000E+00  0.000E+00  4.56795E+01  2.817E-01  2.000E+01  2.000E+04 -1.442E+00
   1   16    8     1     8    3.1816E+05 -2.8976E+04   3.4714E+05  0.000E+00  0.000E+00  0.000E+00  4.52180E+01  2.975E-01  2.000E+01  2.000E+04 -1.449E+00
   1   16    9     1     9    3.4714E+05 -2.9042E+04   3.7618E+05  0.000E+00  0.000E+00  0.000E+00  4.47560E+01  3.128E-01  2.000E+01  2.000E+04 -1.452E+00
   1   16   10     1    10    3.7618E+05 -2.9092E+04   4.0527E+05  0.000E+00  0.000E+00  0.000E+00  4.42936E+01  3.277E-01  2.000E+01  2.000E+04 -1.455E+00
   1   16   11     1    11    4.0527E+05 -2.9769E+04   4.3504E+05  0.000E+00  0.000E+00  0.000E+00  4.38309E+01  3.423E-01  2.000E+01  2.000E+04 -1.488E+00
   1   16   12     1    12    4.3504E+05 -3.5417E+04   4.7045E+05  0.000E+00  0.000E+00  0.000E+00  4.33693E+01  3.580E-01  2.000E+01  2.000E+04 -1.771E+00
   1   15   13     1    13    4.7045E+05 -3.3688E+04   5.0414E+05  0.000E+00  0.000E+00  0.000E+00  4.29082E+01  3.741E-01  2.000E+01  2.000E+04 -1.684E+00
   1   14   14     1    14    5.0414E+05 -3.3887E+04   5.3803E+05  0.000E+00  0.000E+00  0.000E+00  4.24463E+01  3.895E-01  2.000E+01  2.000E+04 -1.694E+00
   1   13   15     1    15    5.3803E+05 -3.5741E+04   5.7377E+05  0.000E+00  0.000E+00  0.000E+00  4.19844E+01  4.049E-01  2.000E+01  2.000E+04 -1.787E+00
   1   12   16     1    16    5.7377E+05 -4.1388E+04   6.1516E+05  0.000E+00  0.000E+00  0.000E+00  4.15238E+01  4.215E-01  2.000E+01  2.000E+04 -2.069E+00
   1   12   17     1    17    6.1516E+05 -3.2810E+04   6.4797E+05  0.000E+00  0.000E+00  0.000E+00  4.10621E+01  4.371E-01  2.000E+01  2.000E+04 -1.641E+00
   1   12   18     1    18    6.4797E+05 -3.1545E+04   6.7951E+05  0.000E+00  0.000E+00  0.000E+00  4.05981E+01  4.503E-01  2.000E+01  2.000E+04 -1.577E+00
   1   12   19     1    19    6.7951E+05 -3.5760E+04   7.1527E+05  0.000E+00  0.000E+00  0.000E+00  4.01343E+01  4.639E-01  2.000E+01  2.000E+04 -1.788E+00
   1   13   20     1    20    7.1527E+05 -2.6532E+04   7.4181E+05  0.000E+00  0.000E+00  0.000E+00  3.96694E+01  4.762E-01  2.000E+01  2.000E+04 -1.327E+00
   1   14   21     1    21    7.4181E+05 -1.9681E+04   7.6149E+05  0.000E+00  0.000E+00  0.000E+00  3.92011E+01  4.852E-01  2.000E+01  2.000E+04 -9.841E-01
   1   14   22     1    22    7.6149E+05 -1.7752E+03   7.6326E+05  0.000E+00  0.000E+00  0.000E+00  3.87280E+01  4.894E-01  2.000E+01  2.000E+04 -8.876E-02
   1    9   30     2     1    5.0000E+04 -2.6573E+04   7.6573E+04  0.000E+00  0.000E+00  0.000E+00  4.02585E+01  1.335E-01  2.000E+01  2.000E+04 -1.329E+00
   1    9   29     2     2    7.6573E+04 -2.9031E+04   1.0560E+05  0.000E+00  0.000E+00  0.000E+00  4.00411E+01  1.661E-01  2.000E+01  2.000E+04 -1.452E+00
   1    9   28     2     3    1.0560E+05 -3.3294E+04   1.3890E+05  0.000E+00  0.000E+00  0.000E+00  3.98231E+01  1.981E-01  2.000E+01  2.000E+04 -1.665E+00
   1    9   27     2     4    1.3890E+05 -4.7348E+04   1.8625E+05  0.000E+00  0.000E+00  0.000E+00  3.96101E+01  2.351E-01  2.000E+01  2.000E+04 -2.367E+00
   1   10   26     2     5    1.8625E+05 -3.3297E+04   2.1954E+05  0.000E+00  0.000E+00  0.000E+00  3.93935E+01  2.685E-01  2.000E+01  2.000E+04 -1.665E+00
   1   11   25     2     6    2.1954E+05 -2.4929E+04   2.4447E+05  0.000E+00  0.000E+00  0.000E+00  3.91660E+01  2.910E-01  2.000E+01  2.000E+04 -1.246E+00
   1   12   24     2     7    2.4447E+05 -1.8360E+04   2.6283E+05  0.000E+00  0.000E+00  0.000E+00  3.89320E+01  3.070E-01  2.000E+01  2.000E+04 -9.180E-01
   1   13   23     2     8    2.6283E+05 -1.3047E+04   2.7588E+05  0.000E+00  0.000E+00  0.000E+00  3.86932E+01  3.182E-01  2.000E+01  2.000E+04 -6.523E-01
   1   14   22     2     9    2.7588E+05 -7.3268E+03   2.8320E+05  0.000E+00  0.000E+00  0.000E+00  3.84504E+01  3.254E-01  2.000E+01  2.000E+04 -3.663E-01
   1   14   22     3     1    1.0465E+06 -1.5360E+04   1.0618E+06  0.000E+00  0.000E+00  0.000E+00  3.80488E+01  4.932E-01  2.000E+01  2.000E+04 -7.680E-01
   1   15   23     3     2    1.0618E+06 -2.3749E+04   1.0856E+06  0.000E+00  0.000E+00  0.000E+00  3.71654E+01  4.987E-01  2.000E+01  2.000E+04 -1.187E+00
   1   15   24     3     3    1.0856E+06 -1.9771E+04   1.1053E+06  0.000E+00  0.000E+00  0.000E+00  3.62825E+01  5.047E-01  2.000E+01  2.000E+04 -9.886E-01
   1   15   25     3     4    1.1053E+06 -1.9367E+04   1.1247E+06  0.000E+00  0.000E+00  0.000E+00  3.53990E+01  5.101E-01  2.000E+01  2.000E+04 -9.683E-01
   1   15   26     3     5    1.1247E+06 -2.2130E+04   1.1468E+06  0.000E+00  0.000E+00  0.000E+00  3.45158E+01  5.158E-01  2.000E+01  2.000E+04 -1.106E+00
   1   16   27     3     6    1.1468E+06 -2.9301E+04   1.1761E+06  0.000E+00  0.000E+00  0.000E+00  3.36339E+01  5.228E-01  2.000E+01  2.000E+04 -1.465E+00
   1   17   28     3     7    1.1761E+06 -3.6339E+04   1.2125E+06  0.000E+00  0.000E+00  0.000E+00  3.27538E+01  5.316E-01  2.000E+01  2.000E+04 -1.817E+00
   1   18   29     3     8    1.2125E+06 -4.7295E+04   1.2598E+06  0.000E+00  0.000E+00  0.000E+00  3.18760E+01  5.427E-01  2.000E+01  2.000E+04 -2.365E+00
   1   18   30     3     9    1.2598E+06 -4.3727E+04   1.3035E+06  0.000E+00  0.000E+00  0.000E+00  3.09990E+01  5.546E-01  2.000E+01  2.000E+04 -2.186E+00



1
              HEAD IN LAYER   1 AT END OF TIME STEP   1 IN STRESS PERIOD   12
  ---------------------------------------------------------------------------

          1      2      3      4      5      6      7      8      9     10
         11     12     13     14     15     16     17     18     19     20
         21     22     23     24     25     26     27     28     29     30
 .........................................................................
   1  ****** ****** ****** ****** ****** ****** ****** ****** ****** ******
      ****** ****** ****** ****** ****** ****** ****** ****** ****** ******
      ****** ****** ****** ****** ****** ****** ****** ****** ****** ******
   2  ****** ****** ****** ****** ****** ****** ****** ****** ****** ******
      ****** ****** ****** ****** ****** ****** ****** ****** ****** ******
      ****** ****** ****** ****** ****** ****** ****** ****** ****** ******
   3  ****** ****** ****** ****** ****** ****** ****** ****** ****** ******
      ****** ****** ****** ****** ****** ****** ****** ****** ****** ******
      ****** ****** ****** ****** ****** ****** ****** ****** ****** ******
   4  ****** ****** ****** ****** ****** ****** ****** ****** ****** ******
      ****** ****** ****** ****** ****** ****** ****** ****** ****** ******
      ****** ****** ****** ****** ****** ****** ****** ****** ****** ******
   5  ****** ****** ****** ****** ****** ****** ****** ****** ****** ******
      ****** ****** ****** ****** ****** ****** ****** ****** ****** ******
      ****** ****** ****** ****** ****** ****** ****** ****** ****** ******
   6  ****** ****** ****** ****** ****** ****** ****** ****** ****** ******
      ****** ****** ****** ****** ****** ****** ****** ****** ****** ******
      ****** ****** ****** ****** ****** ****** ****** ****** ****** ******
   7  ****** ****** ****** ****** ****** ****** ****** ****** ****** ******
      ****** ****** ****** ****** ****** ****** ****** ****** ****** ******
      ****** ****** ****** ****** ****** ****** ****** ****** ****** ******
   8  ****** ****** ****** ****** ****** ****** ****** ****** ****** ******
      ****** ****** ****** ****** ****** ****** ****** ****** ****** ******
      ****** ****** ****** ****** ****** ****** ****** ****** ****** ******
   9  ****** ****** ****** ****** ****** ****** ****** ****** ****** ******
      ****** ****** ****** ****** ****** ****** ****** ****** ****** ******
      ****** ****** ****** ****** ****** ****** ****** ****** ****** ******
  10  ****** ****** ****** ****** ****** ****** ****** ****** ****** ******
      ****** ****** ****** ****** ****** ****** ****** ****** ****** ******
      ****** ****** ****** ****** ****** ****** ****** ****** ****** ******
  11  ****** ****** ****** ****** ****** ****** ****** ****** ****** ******
      ****** ****** ****** ****** ****** ****** ****** ****** ****** ******
      ****** ****** ****** ****** ****** ****** ****** ****** ****** ******
  12  ****** ****** ****** ****** ****** ****** ****** ****** ****** ******
      ****** ****** ****** ****** ****** ****** ****** ****** ****** ******
      ****** ****** ****** ****** ****** ****** ****** ****** ****** ******
  13  ****** ****** ****** ****** ****** ****** ****** ****** ****** ******
      ****** ****** ****** ****** ****** ****** ****** ****** ****** ******
      ****** ****** ****** ****** ****** ****** ****** ****** ****** ******
  14  ****** ****** ****** ****** ****** ****** ****** ****** ****** ******
      ****** ****** ****** ****** ****** ****** ****** ****** ****** ******
      ****** ****** ****** ****** ****** ****** ****** ****** ****** ******
  15  ****** ****** ****** ****** ****** ****** ****** ****** ****** ******
      ****** ****** ****** ****** ****** ****** ****** ****** ****** ******
      ****** ****** ****** ****** ****** ****** ****** ****** ****** ******
  16  ****** ****** ****** ****** ****** ****** ****** ****** ****** ******
      ****** ****** ****** ****** ****** ****** ****** ****** ****** ******
      ****** ****** ****** ****** ****** ****** ****** ****** ****** ******
  17  ****** ****** ****** ****** ****** ****** ****** ****** ****** ******
      ****** ****** ****** ****** ****** ****** ****** ****** ****** ******
      ****** ****** ****** ****** ****** ****** ****** ****** ****** ******
  18  ****** ****** ****** ****** ****** ****** ****** ****** ****** ******
      ****** ****** ****** ****** ****** ****** ****** ****** ****** ******
      ****** ****** ****** ****** ****** ****** ****** ****** ****** ******
  19  ****** ****** ****** ****** ****** ****** ****** ****** ****** ******
      ****** ****** ****** ****** ****** ****** ****** ****** ****** ******
      ****** ****** ****** ****** ****** ****** ****** ****** ****** ******
  20  ****** ****** ****** ****** ****** ****** ****** ****** ****** ******
      ****** ****** ****** ****** ****** ****** ****** ****** ****** ******
      ****** ****** ****** ****** ****** ****** ****** ****** ****** ******
  21  ****** ****** ****** ****** ****** ****** ****** ****** ****** ******
      ****** ****** ****** ****** ****** ****** ****** ****** ****** ******
      ****** ****** ****** ****** ****** ****** ****** ****** ****** ******
  22  ****** ****** ****** ****** ****** ****** ****** ****** ****** ******
      ****** ****** ****** ****** ****** ****** ****** ****** ****** ******
      ****** ****** ****** ****** ****** ****** ****** ****** ****** ******
  23  ****** ****** ****** ****** ****** ****** ****** ****** ****** ******
      ****** ****** ****** ****** ****** ****** ****** ****** ****** ******
      ****** ****** ****** ****** ****** ****** ****** ****** ****** ******
  24  ****** ****** ****** ****** ****** ****** ****** ****** ****** ******
      ****** ****** ****** ****** ****** ****** ****** ****** ****** ******
      ****** ****** ****** ****** ****** ****** ****** ****** ****** ******
  25  ****** ****** ****** ****** ****** ****** ****** ****** ****** ******
      ****** ****** ****** ****** ****** ****** ****** ****** ****** ******
      ****** ****** ****** ****** ****** ****** ****** ****** ****** ******

 HEAD WILL BE SAVED ON UNIT   51 AT END OF TIME STEP    1, STRESS PERIOD   12
1
  VOLUMETRIC BUDGET FOR ENTIRE MODEL AT END OF TIME STEP    1, STRESS PERIOD  12
  ------------------------------------------------------------------------------

     CUMULATIVE VOLUMES      L**3       RATES FOR THIS TIME STEP      L**3/T
     ------------------                 ------------------------

           IN:                                      IN:
           ---                                      ---
             STORAGE =    21425824.8707               STORAGE =         508.9180
       CONSTANT HEAD =  1309990015.2813         CONSTANT HEAD =     1212337.2722
               WELLS =           0.0000                 WELLS =           0.0000
            RECHARGE =    26413200.0000              RECHARGE =       27600.0000
      STREAM LEAKAGE =           0.0000        STREAM LEAKAGE =           0.0000

            TOTAL IN =  1357829040.1520              TOTAL IN =     1240446.1903

          OUT:                                     OUT:
          ----                                     ----
             STORAGE =     1236570.8595               STORAGE =        1939.6898
       CONSTANT HEAD =           0.0000         CONSTANT HEAD =           0.0000
               WELLS =    88965136.5000                 WELLS =       85000.5000
            RECHARGE =           0.0000              RECHARGE =           0.0000
      STREAM LEAKAGE =  1267627349.6648        STREAM LEAKAGE =     1153505.9838

           TOTAL OUT =  1357829057.0243             TOTAL OUT =     1240446.1735

            IN - OUT =         -16.8722              IN - OUT =       1.6725E-02

 PERCENT DISCREPANCY =          -0.00     PERCENT DISCREPANCY =           0.00






         TIME SUMMARY AT END OF TIME STEP    1 IN STRESS PERIOD   12
                    SECONDS     MINUTES      HOURS       DAYS        YEARS
                    -----------------------------------------------------------
   TIME STEP LENGTH 7.86240E+06 1.31040E+05  2184.0      91.000     0.24914    
 STRESS PERIOD TIME 7.86240E+06 1.31040E+05  2184.0      91.000     0.24914    
         TOTAL TIME 9.46080E+07 1.57680E+06  26280.      1095.0      2.9979    
1

 Run end date and time (yyyy/mm/dd hh:mm:ss): 2018/09/30 21:00:17
 Elapsed run time:  0.065 Seconds

