                                  MODFLOW-2005     
      U.S. GEOLOGICAL SURVEY MODULAR FINITE-DIFFERENCE GROUND-WATER FLOW MODEL
                            VERSION 1.11.00 8/8/2013

 LIST FILE: supply2.lst
                         UNIT   10

 OPENING ..\data\supply.dis
 FILE TYPE:DIS   UNIT   11   STATUS:OLD    
 FORMAT:FORMATTED              ACCESS:SEQUENTIAL          

 OPENING ..\data\supply.ba6
 FILE TYPE:BAS6   UNIT   12   STATUS:OLD    
 FORMAT:FORMATTED              ACCESS:SEQUENTIAL          

 OPENING ..\data\supply.bc6
 FILE TYPE:BCF6   UNIT   13   STATUS:OLD    
 FORMAT:FORMATTED              ACCESS:SEQUENTIAL          

 OPENING ..\data\supply.rch
 FILE TYPE:RCH   UNIT   15   STATUS:OLD    
 FORMAT:FORMATTED              ACCESS:SEQUENTIAL          

 OPENING ..\data\supply2.sfr
 FILE TYPE:SFR   UNIT   16   STATUS:OLD    
 FORMAT:FORMATTED              ACCESS:SEQUENTIAL          

 OPENING ..\data\supply.oc
 FILE TYPE:OC   UNIT   17   STATUS:OLD    
 FORMAT:FORMATTED              ACCESS:SEQUENTIAL          

 OPENING ..\data\supply.pcg
 FILE TYPE:PCG   UNIT   18   STATUS:OLD    
 FORMAT:FORMATTED              ACCESS:SEQUENTIAL          

 OPENING supply2.wel
 FILE TYPE:WEL   UNIT   19   STATUS:OLD    
 FORMAT:FORMATTED              ACCESS:SEQUENTIAL          

 OPENING supply2sf.cbc
 FILE TYPE:DATA(BINARY)   UNIT   50   STATUS:UNKNOWN
 FORMAT:BINARY                 ACCESS:SEQUENTIAL          

 OPENING supply2hd.bhd
 FILE TYPE:DATA(BINARY)   UNIT   51   STATUS:UNKNOWN
 FORMAT:BINARY                 ACCESS:SEQUENTIAL          

 BAS -- BASIC PACKAGE, VERSION 7, 5/2/2005 INPUT READ FROM UNIT   12
 
 MODFLOW was compiled using uniform precision
 Precision of REAL and DOUBLE PRECISION variables:          15

 DISCRETIZATION INPUT DATA READ FROM UNIT   11
    1 LAYERS        25 ROWS        30 COLUMNS
   12 STRESS PERIOD(S) IN SIMULATION
 MODEL TIME UNIT IS DAYS
 MODEL LENGTH UNIT IS UNDEFINED
  Confining bed flag for each layer:
   0

                     DELR =   200.000    

                     DELC =   200.000    

 TOP ELEVATION OF LAYER 1 =  100.0000    

   MODEL LAYER BOTTOM EL. =   0.00000     FOR LAYER   1


 STRESS PERIOD     LENGTH       TIME STEPS     MULTIPLIER FOR DELT    SS FLAG
 ----------------------------------------------------------------------------
        1         92.00000          1                    1.500         TR
        2         91.00000          1                    1.500         TR
        3         91.00000          1                    1.500         TR
        4         91.00000          1                    1.500         TR
        5         92.00000          1                    1.500         TR
        6         91.00000          1                    1.500         TR
        7         91.00000          1                    1.500         TR
        8         91.00000          1                    1.500         TR
        9         92.00000          1                    1.500         TR
       10         91.00000          1                    1.500         TR
       11         91.00000          1                    1.500         TR
       12         91.00000          1                    1.500         TR

 TRANSIENT SIMULATION



 
 #MODOFC transient water supply sample problem                                   
 #                                                                               
 THE FREE FORMAT OPTION HAS BEEN SELECTED



                     BOUNDARY ARRAY FOR LAYER   1
 READING ON UNIT   12 WITH FORMAT: (20I4)              

 AQUIFER HEAD WILL BE SET TO   0.0000     AT ALL NO-FLOW NODES (IBOUND=0).



                       INITIAL HEAD FOR LAYER   1
 READING ON UNIT   12 WITH FORMAT: (10F13.0)           

 OUTPUT CONTROL IS SPECIFIED ONLY AT TIME STEPS FOR WHICH OUTPUT IS DESIRED
 COMPACT CELL-BY-CELL BUDGET FILES WILL BE WRITTEN
 HEAD PRINT FORMAT CODE IS  18    DRAWDOWN PRINT FORMAT CODE IS   0
 HEADS WILL BE SAVED ON UNIT   51    DRAWDOWNS WILL BE SAVED ON UNIT    0

 BCF -- BLOCK-CENTERED FLOW PACKAGE, VERSION 7, 5/2/2005
         INPUT READ FROM UNIT 13
 TRANSIENT SIMULATION
 HEAD AT CELLS THAT CONVERT TO DRY=   0.0000    
 WETTING CAPABILITY IS NOT ACTIVE
      LAYER  LAYER-TYPE CODE     INTERBLOCK T
      --------------------------------------------
         1            0          0 -- HARMONIC    

 COLUMN TO ROW ANISOTROPY =  1.000000    

     PRIMARY STORAGE COEF =  5.000000E-02 FOR LAYER   1

     TRANSMIS. ALONG ROWS =   500.000     FOR LAYER   1

 WEL -- WELL PACKAGE, VERSION 7, 5/2/2005 INPUT READ FROM UNIT   19
 # Well package input file written by MMProc
 No named parameters
 MAXIMUM OF      6 ACTIVE WELLS AT ONE TIME


     0 Well parameters

 RCH -- RECHARGE PACKAGE, VERSION 7, 5/2/2005 INPUT READ FROM UNIT   15
 No named parameters
 OPTION 1 -- RECHARGE TO TOP LAYER


     0 Recharge parameters

 SFR7 -- STREAMFLOW ROUTING PACKAGE, VERSION 1.0.7, 2013-01-15
         INPUT READ FROM UNIT  16
 #  Supply2 test problem for GWM-VI
 #  The eighth entry in the first data line is ISTCB2 -
 #    Setting this to a negative number indicates that
 #    streamflows out of the reach will be saved to a
 #    binary file.  The absolute value of ISTCB2 is the
 #    unit to which unformatted flows will be written.
 #
 No named parameters
 Segment information will not be 
 read by reach
 No named parameters
 No specifed inflow files


 NUMBER OF STREAM REACHES IS   40

 NUMBER OF STREAM SEGMENTS IS    3

 NUMBER OF STREAM PARAMETERS IS    0

 NUMBER OF STREAM SEGMENTS DEFINED USING PARAMETERS IS              0

 MAXIMUM ERROR FOR STREAM LEAKAGE RATES IS  1.00E-04

 CONSTANT FOR MANNINGS EQUATION IS  1.2839E+05





   STREAM NETWORK DESCRIPTION: 

   LAYER    ROW    COL   SEGMENT   REACH     LENGTH
                          NUMBER   NUMBER    IN CELL        
   --------------------------------------------------
      1     13      1       1        1    2.0000E+02
      1     13      2       1        2    2.0000E+02
      1     14      3       1        3    2.0000E+02
      1     15      4       1        4    2.0000E+02
      1     16      5       1        5    2.0000E+02
      1     16      6       1        6    2.0000E+02
      1     16      7       1        7    2.0000E+02
      1     16      8       1        8    2.0000E+02
      1     16      9       1        9    2.0000E+02
      1     16     10       1       10    2.0000E+02
      1     16     11       1       11    2.0000E+02
      1     16     12       1       12    2.0000E+02
      1     15     13       1       13    2.0000E+02
      1     14     14       1       14    2.0000E+02
      1     13     15       1       15    2.0000E+02
      1     12     16       1       16    2.0000E+02
      1     12     17       1       17    2.0000E+02
      1     12     18       1       18    2.0000E+02
      1     12     19       1       19    2.0000E+02
      1     13     20       1       20    2.0000E+02
      1     14     21       1       21    2.0000E+02
      1     14     22       1       22    2.0000E+02
      1      9     30       2        1    2.0000E+02
      1      9     29       2        2    2.0000E+02
      1      9     28       2        3    2.0000E+02
      1      9     27       2        4    2.0000E+02
      1     10     26       2        5    2.0000E+02
      1     11     25       2        6    2.0000E+02
      1     12     24       2        7    2.0000E+02
      1     13     23       2        8    2.0000E+02
      1     14     22       2        9    2.0000E+02
      1     14     22       3        1    2.0000E+02
      1     15     23       3        2    2.0000E+02
      1     15     24       3        3    2.0000E+02
      1     15     25       3        4    2.0000E+02
      1     15     26       3        5    2.0000E+02
      1     16     27       3        6    2.0000E+02
      1     17     28       3        7    2.0000E+02
      1     18     29       3        8    2.0000E+02
      1     18     30       3        9    2.0000E+02




 PCG -- CONJUGATE-GRADIENT SOLUTION PACKAGE, VERSION 7, 5/2/2005
 MAXIMUM OF    500 CALLS OF SOLUTION ROUTINE
 MAXIMUM OF      5 INTERNAL ITERATIONS PER CALL TO SOLUTION ROUTINE
 MATRIX PRECONDITIONING TYPE :    1



                                    SOLUTION BY THE CONJUGATE-GRADIENT METHOD
                                   -------------------------------------------
                    MAXIMUM NUMBER OF CALLS TO PCG ROUTINE =      500
                        MAXIMUM ITERATIONS PER CALL TO PCG =        5
                               MATRIX PRECONDITIONING TYPE =        1
        RELAXATION FACTOR (ONLY USED WITH PRECOND. TYPE 1) =    0.10000E+01
 PARAMETER OF POLYNOMIAL PRECOND. = 2 (2) OR IS CALCULATED :        0
                         HEAD CHANGE CRITERION FOR CLOSURE =    0.10000E-05
                     RESIDUAL CHANGE CRITERION FOR CLOSURE =    0.10000E+01
            PCG HEAD AND RESIDUAL CHANGE PRINTOUT INTERVAL =        1
     PRINTING FROM SOLVER IS LIMITED(1) OR SUPPRESSED (>1) =        1
                            STEADY-STATE DAMPING PARAMETER =    0.10000E+01
                               TRANSIENT DAMPING PARAMETER =    0.10000E+01
1
                            STRESS PERIOD NO.    1, LENGTH =   92.00000    
                            -----------------------------------------------

                              NUMBER OF TIME STEPS =     1

                               MULTIPLIER FOR DELT =     1.500

                            INITIAL TIME STEP SIZE =   92.00000    

 WELL NO.  LAYER   ROW   COL   STRESS RATE         
 --------------------------------------------------
      1      1     17     25     -0.3467E+05
      2      1     16     17     -0.3097E+05
      3      1     14     25     -0.4684E+05

      3 WELLS

                 RECHARGE =  5.000000E-04



 CLASSIFICATION & COUNT OF STREAM SEGMENTS BASED ON SOURCE OF INFLOW:

                HEADWATER     DIVERSION     RECEIVES TRIBUTARY FLOW
                ---------     ---------     -----------------------
                     2              0               1



                    INPUT DATA FOR EACH STREAM SEGMENT
 ---------------------------------------------------------------------------------------------

 SEGMENT    SEG.     INFLOW   OVERLAND   STREAM    STREAM   ICALC  OUTFLOW  DIVERSION PRIORITY
    NO.    LENGTH     RATE     RUNOFF      ET       PPT.    METH.  TO SEG.  FROM SEG.    NO.

      1  4.400E+03 1.000E+05 0.000E+00 0.000E+00 0.000E+00    1        3        0        0
      2  1.800E+03 5.000E+04 0.000E+00 0.000E+00 0.000E+00    1        3        0        0
      3  1.800E+03 0.000E+00 0.000E+00 0.000E+00 0.000E+00    1        0        0        0


         STREAMBED PROPERTIES AND STREAM DIMENSIONS

 SEGMENT     BED HYD. COND.      BED THICKNESS     ELEV.-TOP OF BED     WIDTH OF STREAM     DEPTH OF STREAM    STREAM ROUGHNESS
    No.     UPPER     LOWER     UPPER     LOWER     UPPER     LOWER     UPPER     LOWER     UPPER     LOWER   CHANNEL      BANK

     1  5.000E+00 5.000E+00 1.000E+00 1.000E+00 4.850E+01 3.800E+01 2.000E+01 2.000E+01                     5.000E-02
     2  5.000E+00 5.000E+00 1.000E+00 1.000E+00 4.025E+01 3.800E+01 2.000E+01 2.000E+01                     5.000E-02
     3  5.000E+00 5.000E+00 1.000E+00 1.000E+00 3.800E+01 3.000E+01 2.000E+01 2.000E+01                     5.000E-02



 
 SOLVING FOR HEAD 


     9 CALLS TO PCG ROUTINE FOR TIME STEP   1 IN STRESS PERIOD    1
    36 TOTAL ITERATIONS

 OUTPUT CONTROL FOR STRESS PERIOD    1   TIME STEP    1
    SAVE BUDGET
    SAVE HEAD FOR ALL LAYERS
    PRINT HEAD FOR ALL LAYERS
 UBDSV2 SAVING "STREAMFLOW OUT  " ON UNIT  50 AT TIME STEP  1, STRESS PERIOD   1



 STREAM LISTING     PERIOD      1   STEP        1

 LAYER ROW COL. STREAM  RCH.  FLOW INTO     FLOW TO   FLOW OUT OF   OVRLND.     DIRECT     STREAM       STREAM     STREAM     STREAM   STREAMBED  STREAMBED
                SEG.NO.  NO.  STRM. RCH.    AQUIFER    STRM. RCH.    RUNOFF     PRECIP       ET          HEAD       DEPTH      WIDTH   CONDCTNC.   GRADIENT

   1   13    1     1     1    1.0000E+05 -5.7558E+03   1.0576E+05  0.000E+00  0.000E+00  0.000E+00  4.84085E+01  1.471E-01  2.000E+01  2.000E+04 -2.878E-01
   1   13    2     1     2    1.0576E+05 -8.6038E+03   1.1436E+05  0.000E+00  0.000E+00  0.000E+00  4.79373E+01  1.532E-01  2.000E+01  2.000E+04 -4.302E-01
   1   14    3     1     3    1.1436E+05 -7.8799E+03   1.2224E+05  0.000E+00  0.000E+00  0.000E+00  4.74668E+01  1.600E-01  2.000E+01  2.000E+04 -3.940E-01
   1   15    4     1     4    1.2224E+05 -7.7069E+03   1.2995E+05  0.000E+00  0.000E+00  0.000E+00  4.69958E+01  1.662E-01  2.000E+01  2.000E+04 -3.853E-01
   1   16    5     1     5    1.2995E+05 -7.4856E+03   1.3743E+05  0.000E+00  0.000E+00  0.000E+00  4.65245E+01  1.722E-01  2.000E+01  2.000E+04 -3.743E-01
   1   16    6     1     6    1.3743E+05 -5.9873E+03   1.4342E+05  0.000E+00  0.000E+00  0.000E+00  4.60523E+01  1.773E-01  2.000E+01  2.000E+04 -2.994E-01
   1   16    7     1     7    1.4342E+05 -6.1139E+03   1.4953E+05  0.000E+00  0.000E+00  0.000E+00  4.55796E+01  1.819E-01  2.000E+01  2.000E+04 -3.057E-01
   1   16    8     1     8    1.4953E+05 -6.1789E+03   1.5571E+05  0.000E+00  0.000E+00  0.000E+00  4.51069E+01  1.864E-01  2.000E+01  2.000E+04 -3.089E-01
   1   16    9     1     9    1.5571E+05 -6.1593E+03   1.6187E+05  0.000E+00  0.000E+00  0.000E+00  4.46341E+01  1.909E-01  2.000E+01  2.000E+04 -3.080E-01
   1   16   10     1    10    1.6187E+05 -6.0463E+03   1.6792E+05  0.000E+00  0.000E+00  0.000E+00  4.41612E+01  1.953E-01  2.000E+01  2.000E+04 -3.023E-01
   1   16   11     1    11    1.6792E+05 -5.8274E+03   1.7374E+05  0.000E+00  0.000E+00  0.000E+00  4.36881E+01  1.995E-01  2.000E+01  2.000E+04 -2.914E-01
   1   16   12     1    12    1.7374E+05 -6.6930E+03   1.8044E+05  0.000E+00  0.000E+00  0.000E+00  4.32152E+01  2.038E-01  2.000E+01  2.000E+04 -3.346E-01
   1   15   13     1    13    1.8044E+05 -6.3522E+03   1.8679E+05  0.000E+00  0.000E+00  0.000E+00  4.27424E+01  2.083E-01  2.000E+01  2.000E+04 -3.176E-01
   1   14   14     1    14    1.8679E+05 -6.0366E+03   1.9283E+05  0.000E+00  0.000E+00  0.000E+00  4.22693E+01  2.125E-01  2.000E+01  2.000E+04 -3.018E-01
   1   13   15     1    15    1.9283E+05 -6.4140E+03   1.9924E+05  0.000E+00  0.000E+00  0.000E+00  4.17962E+01  2.166E-01  2.000E+01  2.000E+04 -3.207E-01
   1   12   16     1    16    1.9924E+05 -8.4323E+03   2.0767E+05  0.000E+00  0.000E+00  0.000E+00  4.13238E+01  2.215E-01  2.000E+01  2.000E+04 -4.216E-01
   1   12   17     1    17    2.0767E+05 -5.2735E+03   2.1295E+05  0.000E+00  0.000E+00  0.000E+00  4.08510E+01  2.260E-01  2.000E+01  2.000E+04 -2.637E-01
   1   12   18     1    18    2.1295E+05 -5.2272E+03   2.1817E+05  0.000E+00  0.000E+00  0.000E+00  4.03771E+01  2.293E-01  2.000E+01  2.000E+04 -2.614E-01
   1   12   19     1    19    2.1817E+05 -7.3196E+03   2.2549E+05  0.000E+00  0.000E+00  0.000E+00  3.99038E+01  2.333E-01  2.000E+01  2.000E+04 -3.660E-01
   1   13   20     1    20    2.2549E+05 -4.9255E+03   2.3042E+05  0.000E+00  0.000E+00  0.000E+00  3.94303E+01  2.372E-01  2.000E+01  2.000E+04 -2.463E-01
   1   14   21     1    21    2.3042E+05 -3.3884E+03   2.3381E+05  0.000E+00  0.000E+00  0.000E+00  3.89557E+01  2.397E-01  2.000E+01  2.000E+04 -1.694E-01
   1   14   22     1    22    2.3381E+05  5.1392E+03   2.2867E+05  0.000E+00  0.000E+00  0.000E+00  3.84778E+01  2.392E-01  2.000E+01  2.000E+04  2.570E-01
   1    9   30     2     1    5.0000E+04 -5.2980E+03   5.5298E+04  0.000E+00  0.000E+00  0.000E+00  4.02445E+01  1.195E-01  2.000E+01  2.000E+04 -2.649E-01
   1    9   29     2     2    5.5298E+04 -5.5748E+03   6.0873E+04  0.000E+00  0.000E+00  0.000E+00  4.00018E+01  1.268E-01  2.000E+01  2.000E+04 -2.787E-01
   1    9   28     2     3    6.0873E+04 -5.8737E+03   6.6746E+04  0.000E+00  0.000E+00  0.000E+00  3.97591E+01  1.341E-01  2.000E+01  2.000E+04 -2.937E-01
   1    9   27     2     4    6.6746E+04 -9.2863E+03   7.6033E+04  0.000E+00  0.000E+00  0.000E+00  3.95185E+01  1.435E-01  2.000E+01  2.000E+04 -4.643E-01
   1   10   26     2     5    7.6033E+04 -6.7196E+03   8.2752E+04  0.000E+00  0.000E+00  0.000E+00  3.92779E+01  1.529E-01  2.000E+01  2.000E+04 -3.360E-01
   1   11   25     2     6    8.2752E+04 -3.9352E+03   8.6688E+04  0.000E+00  0.000E+00  0.000E+00  3.90340E+01  1.590E-01  2.000E+01  2.000E+04 -1.968E-01
   1   12   24     2     7    8.6688E+04 -7.8202E+02   8.7470E+04  0.000E+00  0.000E+00  0.000E+00  3.87866E+01  1.616E-01  2.000E+01  2.000E+04 -3.910E-02
   1   13   23     2     8    8.7470E+04  2.7194E+01   8.7442E+04  0.000E+00  0.000E+00  0.000E+00  3.85370E+01  1.620E-01  2.000E+01  2.000E+04  1.360E-03
   1   14   22     2     9    8.7442E+04  1.3086E+03   8.6134E+04  0.000E+00  0.000E+00  0.000E+00  3.82863E+01  1.613E-01  2.000E+01  2.000E+04  6.543E-02
   1   14   22     3     1    3.1480E+05 -8.4909E+03   3.2329E+05  0.000E+00  0.000E+00  0.000E+00  3.77963E+01  2.408E-01  2.000E+01  2.000E+04 -4.245E-01
   1   15   23     3     2    3.2329E+05 -1.6043E+03   3.2490E+05  0.000E+00  0.000E+00  0.000E+00  3.69097E+01  2.431E-01  2.000E+01  2.000E+04 -8.021E-02
   1   15   24     3     3    3.2490E+05  4.1084E+03   3.2079E+05  0.000E+00  0.000E+00  0.000E+00  3.60203E+01  2.425E-01  2.000E+01  2.000E+04  2.054E-01
   1   15   25     3     4    3.2079E+05  1.5403E+04   3.0539E+05  0.000E+00  0.000E+00  0.000E+00  3.51270E+01  2.381E-01  2.000E+01  2.000E+04  7.702E-01
   1   15   26     3     5    3.0539E+05  3.4099E+03   3.0198E+05  0.000E+00  0.000E+00  0.000E+00  3.42337E+01  2.337E-01  2.000E+01  2.000E+04  1.705E-01
   1   16   27     3     6    3.0198E+05 -1.3983E+03   3.0337E+05  0.000E+00  0.000E+00  0.000E+00  3.33444E+01  2.333E-01  2.000E+01  2.000E+04 -6.991E-02
   1   17   28     3     7    3.0337E+05 -4.7180E+03   3.0809E+05  0.000E+00  0.000E+00  0.000E+00  3.24569E+01  2.347E-01  2.000E+01  2.000E+04 -2.359E-01
   1   18   29     3     8    3.0809E+05 -7.5691E+03   3.1566E+05  0.000E+00  0.000E+00  0.000E+00  3.15708E+01  2.375E-01  2.000E+01  2.000E+04 -3.785E-01
   1   18   30     3     9    3.1566E+05 -6.9706E+03   3.2263E+05  0.000E+00  0.000E+00  0.000E+00  3.06853E+01  2.408E-01  2.000E+01  2.000E+04 -3.485E-01



1
              HEAD IN LAYER   1 AT END OF TIME STEP   1 IN STRESS PERIOD    1
  ---------------------------------------------------------------------------

          1      2      3      4      5      6      7      8      9     10
         11     12     13     14     15     16     17     18     19     20
         21     22     23     24     25     26     27     28     29     30
 .........................................................................
   1  ****** ****** ****** ****** ****** ****** ****** ****** ****** ******
      ****** ****** ****** ****** ****** ****** ****** ****** ****** ******
      ****** ****** ****** ****** ****** ****** ****** ****** ****** ******
   2  ****** ****** ****** ****** ****** ****** ****** ****** ****** ******
      ****** ****** ****** ****** ****** ****** ****** ****** ****** ******
      ****** ****** ****** ****** ****** ****** ****** ****** ****** ******
   3  ****** ****** ****** ****** ****** ****** ****** ****** ****** ******
      ****** ****** ****** ****** ****** ****** ****** ****** ****** ******
      ****** ****** ****** ****** ****** ****** ****** ****** ****** ******
   4  ****** ****** ****** ****** ****** ****** ****** ****** ****** ******
      ****** ****** ****** ****** ****** ****** ****** ****** ****** ******
      ****** ****** ****** ****** ****** ****** ****** ****** ****** ******
   5  ****** ****** ****** ****** ****** ****** ****** ****** ****** ******
      ****** ****** ****** ****** ****** ****** ****** ****** ****** ******
      ****** ****** ****** ****** ****** ****** ****** ****** ****** ******
   6  ****** ****** ****** ****** ****** ****** ****** ****** ****** ******
      ****** ****** ****** ****** ****** ****** ****** ****** ****** ******
      ****** ****** ****** ****** ****** ****** ****** ****** ****** ******
   7  ****** ****** ****** ****** ****** ****** ****** ****** ****** ******
      ****** ****** ****** ****** ****** ****** ****** ****** ****** ******
      ****** ****** ****** ****** ****** ****** ****** ****** ****** ******
   8  ****** ****** ****** ****** ****** ****** ****** ****** ****** ******
      ****** ****** ****** ****** ****** ****** ****** ****** ****** ******
      ****** ****** ****** ****** ****** ****** ****** ****** ****** ******
   9  ****** ****** ****** ****** ****** ****** ****** ****** ****** ******
      ****** ****** ****** ****** ****** ****** ****** ****** ****** ******
      ****** ****** ****** ****** ****** ****** ****** ****** ****** ******
  10  ****** ****** ****** ****** ****** ****** ****** ****** ****** ******
      ****** ****** ****** ****** ****** ****** ****** ****** ****** ******
      ****** ****** ****** ****** ****** ****** ****** ****** ****** ******
  11  ****** ****** ****** ****** ****** ****** ****** ****** ****** ******
      ****** ****** ****** ****** ****** ****** ****** ****** ****** ******
      ****** ****** ****** ****** ****** ****** ****** ****** ****** ******
  12  ****** ****** ****** ****** ****** ****** ****** ****** ****** ******
      ****** ****** ****** ****** ****** ****** ****** ****** ****** ******
      ****** ****** ****** ****** ****** ****** ****** ****** ****** ******
  13  ****** ****** ****** ****** ****** ****** ****** ****** ****** ******
      ****** ****** ****** ****** ****** ****** ****** ****** ****** ******
      ****** ****** ****** ****** ****** ****** ****** ****** ****** ******
  14  ****** ****** ****** ****** ****** ****** ****** ****** ****** ******
      ****** ****** ****** ****** ****** ****** ****** ****** ****** ******
      ****** ****** ****** ****** ****** ****** ****** ****** ****** ******
  15  ****** ****** ****** ****** ****** ****** ****** ****** ****** ******
      ****** ****** ****** ****** ****** ****** ****** ****** ****** ******
      ****** ****** ****** ****** ****** ****** ****** ****** ****** ******
  16  ****** ****** ****** ****** ****** ****** ****** ****** ****** ******
      ****** ****** ****** ****** ****** ****** ****** ****** ****** ******
      ****** ****** ****** ****** ****** ****** ****** ****** ****** ******
  17  ****** ****** ****** ****** ****** ****** ****** ****** ****** ******
      ****** ****** ****** ****** ****** ****** ****** ****** ****** ******
      ****** ****** ****** ****** ****** ****** ****** ****** ****** ******
  18  ****** ****** ****** ****** ****** ****** ****** ****** ****** ******
      ****** ****** ****** ****** ****** ****** ****** ****** ****** ******
      ****** ****** ****** ****** ****** ****** ****** ****** ****** ******
  19  ****** ****** ****** ****** ****** ****** ****** ****** ****** ******
      ****** ****** ****** ****** ****** ****** ****** ****** ****** ******
      ****** ****** ****** ****** ****** ****** ****** ****** ****** ******
  20  ****** ****** ****** ****** ****** ****** ****** ****** ****** ******
      ****** ****** ****** ****** ****** ****** ****** ****** ****** ******
      ****** ****** ****** ****** ****** ****** ****** ****** ****** ******
  21  ****** ****** ****** ****** ****** ****** ****** ****** ****** ******
      ****** ****** ****** ****** ****** ****** ****** ****** ****** ******
      ****** ****** ****** ****** ****** ****** ****** ****** ****** ******
  22  ****** ****** ****** ****** ****** ****** ****** ****** ****** ******
      ****** ****** ****** ****** ****** ****** ****** ****** ****** ******
      ****** ****** ****** ****** ****** ****** ****** ****** ****** ******
  23  ****** ****** ****** ****** ****** ****** ****** ****** ****** ******
      ****** ****** ****** ****** ****** ****** ****** ****** ****** ******
      ****** ****** ****** ****** ****** ****** ****** ****** ****** ******
  24  ****** ****** ****** ****** ****** ****** ****** ****** ****** ******
      ****** ****** ****** ****** ****** ****** ****** ****** ****** ******
      ****** ****** ****** ****** ****** ****** ****** ****** ****** ******
  25  ****** ****** ****** ****** ****** ****** ****** ****** ****** ******
      ****** ****** ****** ****** ****** ****** ****** ****** ****** ******
      ****** ****** ****** ****** ****** ****** ****** ****** ****** ******

 HEAD WILL BE SAVED ON UNIT   51 AT END OF TIME STEP    1, STRESS PERIOD    1
1
  VOLUMETRIC BUDGET FOR ENTIRE MODEL AT END OF TIME STEP    1, STRESS PERIOD   1
  ------------------------------------------------------------------------------

     CUMULATIVE VOLUMES      L**3       RATES FOR THIS TIME STEP      L**3/T
     ------------------                 ------------------------

           IN:                                      IN:
           ---                                      ---
             STORAGE =    17135200.9151               STORAGE =      186252.1839
       CONSTANT HEAD =     7825495.8556         CONSTANT HEAD =       85059.7376
               WELLS =           0.0000                 WELLS =           0.0000
            RECHARGE =     1269600.0000              RECHARGE =       13800.0000
      STREAM LEAKAGE =     2704480.5651        STREAM LEAKAGE =       29396.5279

            TOTAL IN =    28934777.3358              TOTAL IN =      314508.4493

          OUT:                                     OUT:
          ----                                     ----
             STORAGE =           0.0000               STORAGE =           0.0000
       CONSTANT HEAD =           0.0000         CONSTANT HEAD =           0.0000
               WELLS =    10348222.9937                 WELLS =      112480.6847
            RECHARGE =           0.0000              RECHARGE =           0.0000
      STREAM LEAKAGE =    18586554.5002        STREAM LEAKAGE =      202027.7663

           TOTAL OUT =    28934777.4938             TOTAL OUT =      314508.4510

            IN - OUT =          -0.1581              IN - OUT =      -1.7181E-03

 PERCENT DISCREPANCY =          -0.00     PERCENT DISCREPANCY =          -0.00






         TIME SUMMARY AT END OF TIME STEP    1 IN STRESS PERIOD    1
                    SECONDS     MINUTES      HOURS       DAYS        YEARS
                    -----------------------------------------------------------
   TIME STEP LENGTH 7.94880E+06 1.32480E+05  2208.0      92.000     0.25188    
 STRESS PERIOD TIME 7.94880E+06 1.32480E+05  2208.0      92.000     0.25188    
         TOTAL TIME 7.94880E+06 1.32480E+05  2208.0      92.000     0.25188    
1
1
                            STRESS PERIOD NO.    2, LENGTH =   91.00000    
                            -----------------------------------------------

                              NUMBER OF TIME STEPS =     1

                               MULTIPLIER FOR DELT =     1.500

                            INITIAL TIME STEP SIZE =   91.00000    

 WELL NO.  LAYER   ROW   COL   STRESS RATE         
 --------------------------------------------------
      1      1     17     25     -0.3467E+05
      2      1     16     17     -0.3097E+05
      3      1     14     25     -0.4684E+05

      3 WELLS

                 RECHARGE =  2.000000E-03

 REUSING STREAM SEGMENT DATA FROM LAST STRESS PERIOD
 
 SOLVING FOR HEAD 


     7 CALLS TO PCG ROUTINE FOR TIME STEP   1 IN STRESS PERIOD    2
    27 TOTAL ITERATIONS

 OUTPUT CONTROL FOR STRESS PERIOD    2   TIME STEP    1
    SAVE BUDGET
    SAVE HEAD FOR ALL LAYERS
    PRINT HEAD FOR ALL LAYERS
 UBDSV2 SAVING "STREAMFLOW OUT  " ON UNIT  50 AT TIME STEP  1, STRESS PERIOD   2



 STREAM LISTING     PERIOD      2   STEP        1

 LAYER ROW COL. STREAM  RCH.  FLOW INTO     FLOW TO   FLOW OUT OF   OVRLND.     DIRECT     STREAM       STREAM     STREAM     STREAM   STREAMBED  STREAMBED
                SEG.NO.  NO.  STRM. RCH.    AQUIFER    STRM. RCH.    RUNOFF     PRECIP       ET          HEAD       DEPTH      WIDTH   CONDCTNC.   GRADIENT

   1   13    1     1     1    1.0000E+05 -3.8467E+03   1.0385E+05  0.000E+00  0.000E+00  0.000E+00  4.84077E+01  1.463E-01  2.000E+01  2.000E+04 -1.923E-01
   1   13    2     1     2    1.0385E+05 -6.1979E+03   1.1004E+05  0.000E+00  0.000E+00  0.000E+00  4.79347E+01  1.506E-01  2.000E+01  2.000E+04 -3.099E-01
   1   14    3     1     3    1.1004E+05 -5.1607E+03   1.1521E+05  0.000E+00  0.000E+00  0.000E+00  4.74622E+01  1.553E-01  2.000E+01  2.000E+04 -2.580E-01
   1   15    4     1     4    1.1521E+05 -5.0026E+03   1.2021E+05  0.000E+00  0.000E+00  0.000E+00  4.69891E+01  1.595E-01  2.000E+01  2.000E+04 -2.501E-01
   1   16    5     1     5    1.2021E+05 -5.1605E+03   1.2537E+05  0.000E+00  0.000E+00  0.000E+00  4.65159E+01  1.636E-01  2.000E+01  2.000E+04 -2.580E-01
   1   16    6     1     6    1.2537E+05 -4.0842E+03   1.2945E+05  0.000E+00  0.000E+00  0.000E+00  4.60423E+01  1.673E-01  2.000E+01  2.000E+04 -2.042E-01
   1   16    7     1     7    1.2945E+05 -4.1652E+03   1.3362E+05  0.000E+00  0.000E+00  0.000E+00  4.55682E+01  1.705E-01  2.000E+01  2.000E+04 -2.083E-01
   1   16    8     1     8    1.3362E+05 -4.1937E+03   1.3781E+05  0.000E+00  0.000E+00  0.000E+00  4.50942E+01  1.737E-01  2.000E+01  2.000E+04 -2.097E-01
   1   16    9     1     9    1.3781E+05 -4.1464E+03   1.4196E+05  0.000E+00  0.000E+00  0.000E+00  4.46201E+01  1.769E-01  2.000E+01  2.000E+04 -2.073E-01
   1   16   10     1    10    1.4196E+05 -4.0103E+03   1.4597E+05  0.000E+00  0.000E+00  0.000E+00  4.41459E+01  1.800E-01  2.000E+01  2.000E+04 -2.005E-01
   1   16   11     1    11    1.4597E+05 -3.7589E+03   1.4973E+05  0.000E+00  0.000E+00  0.000E+00  4.36715E+01  1.829E-01  2.000E+01  2.000E+04 -1.879E-01
   1   16   12     1    12    1.4973E+05 -3.8671E+03   1.5359E+05  0.000E+00  0.000E+00  0.000E+00  4.31971E+01  1.857E-01  2.000E+01  2.000E+04 -1.934E-01
   1   15   13     1    13    1.5359E+05 -3.0019E+03   1.5660E+05  0.000E+00  0.000E+00  0.000E+00  4.27223E+01  1.882E-01  2.000E+01  2.000E+04 -1.501E-01
   1   14   14     1    14    1.5660E+05 -2.5139E+03   1.5911E+05  0.000E+00  0.000E+00  0.000E+00  4.22470E+01  1.902E-01  2.000E+01  2.000E+04 -1.257E-01
   1   13   15     1    15    1.5911E+05 -2.9944E+03   1.6210E+05  0.000E+00  0.000E+00  0.000E+00  4.17718E+01  1.922E-01  2.000E+01  2.000E+04 -1.497E-01
   1   12   16     1    16    1.6210E+05 -5.6281E+03   1.6773E+05  0.000E+00  0.000E+00  0.000E+00  4.12976E+01  1.953E-01  2.000E+01  2.000E+04 -2.814E-01
   1   12   17     1    17    1.6773E+05 -2.8989E+03   1.7063E+05  0.000E+00  0.000E+00  0.000E+00  4.08233E+01  1.983E-01  2.000E+01  2.000E+04 -1.449E-01
   1   12   18     1    18    1.7063E+05 -2.8643E+03   1.7350E+05  0.000E+00  0.000E+00  0.000E+00  4.03481E+01  2.003E-01  2.000E+01  2.000E+04 -1.432E-01
   1   12   19     1    19    1.7350E+05 -4.5990E+03   1.7809E+05  0.000E+00  0.000E+00  0.000E+00  3.98734E+01  2.029E-01  2.000E+01  2.000E+04 -2.299E-01
   1   13   20     1    20    1.7809E+05 -1.7880E+03   1.7988E+05  0.000E+00  0.000E+00  0.000E+00  3.93983E+01  2.051E-01  2.000E+01  2.000E+04 -8.940E-02
   1   14   21     1    21    1.7988E+05 -4.1445E+02   1.8030E+05  0.000E+00  0.000E+00  0.000E+00  3.89218E+01  2.059E-01  2.000E+01  2.000E+04 -2.072E-02
   1   14   22     1    22    1.8030E+05  5.7997E+03   1.7450E+05  0.000E+00  0.000E+00  0.000E+00  3.84427E+01  2.040E-01  2.000E+01  2.000E+04  2.900E-01
   1    9   30     2     1    5.0000E+04 -3.0990E+03   5.3099E+04  0.000E+00  0.000E+00  0.000E+00  4.02430E+01  1.180E-01  2.000E+01  2.000E+04 -1.549E-01
   1    9   29     2     2    5.3099E+04 -3.4011E+03   5.6500E+04  0.000E+00  0.000E+00  0.000E+00  3.99974E+01  1.224E-01  2.000E+01  2.000E+04 -1.701E-01
   1    9   28     2     3    5.6500E+04 -3.7558E+03   6.0256E+04  0.000E+00  0.000E+00  0.000E+00  3.97522E+01  1.272E-01  2.000E+01  2.000E+04 -1.878E-01
   1    9   27     2     4    6.0256E+04 -6.7965E+03   6.7052E+04  0.000E+00  0.000E+00  0.000E+00  3.95089E+01  1.339E-01  2.000E+01  2.000E+04 -3.398E-01
   1   10   26     2     5    6.7052E+04 -3.6706E+03   7.0723E+04  0.000E+00  0.000E+00  0.000E+00  3.92654E+01  1.404E-01  2.000E+01  2.000E+04 -1.835E-01
   1   11   25     2     6    7.0723E+04 -8.1778E+02   7.1541E+04  0.000E+00  0.000E+00  0.000E+00  3.90182E+01  1.432E-01  2.000E+01  2.000E+04 -4.089E-02
   1   12   24     2     7    7.1541E+04  2.1259E+03   6.9415E+04  0.000E+00  0.000E+00  0.000E+00  3.87674E+01  1.424E-01  2.000E+01  2.000E+04  1.063E-01
   1   13   23     2     8    6.9415E+04  2.3471E+03   6.7068E+04  0.000E+00  0.000E+00  0.000E+00  3.85146E+01  1.396E-01  2.000E+01  2.000E+04  1.174E-01
   1   14   22     2     9    6.7068E+04  2.1832E+03   6.4885E+04  0.000E+00  0.000E+00  0.000E+00  3.82618E+01  1.368E-01  2.000E+01  2.000E+04  1.092E-01
   1   14   22     3     1    2.3938E+05 -7.8496E+03   2.4723E+05  0.000E+00  0.000E+00  0.000E+00  3.77602E+01  2.046E-01  2.000E+01  2.000E+04 -3.925E-01
   1   15   23     3     2    2.4723E+05  1.2809E+03   2.4595E+05  0.000E+00  0.000E+00  0.000E+00  3.68730E+01  2.063E-01  2.000E+01  2.000E+04  6.405E-02
   1   15   24     3     3    2.4595E+05  6.5039E+03   2.3945E+05  0.000E+00  0.000E+00  0.000E+00  3.59821E+01  2.043E-01  2.000E+01  2.000E+04  3.252E-01
   1   15   25     3     4    2.3945E+05  1.8077E+04   2.2137E+05  0.000E+00  0.000E+00  0.000E+00  3.50870E+01  1.981E-01  2.000E+01  2.000E+04  9.038E-01
   1   15   26     3     5    2.2137E+05  6.7277E+03   2.1464E+05  0.000E+00  0.000E+00  0.000E+00  3.41916E+01  1.916E-01  2.000E+01  2.000E+04  3.364E-01
   1   16   27     3     6    2.1464E+05  2.3917E+03   2.1225E+05  0.000E+00  0.000E+00  0.000E+00  3.33003E+01  1.892E-01  2.000E+01  2.000E+04  1.196E-01
   1   17   28     3     7    2.1225E+05 -1.1380E+03   2.1339E+05  0.000E+00  0.000E+00  0.000E+00  3.24111E+01  1.888E-01  2.000E+01  2.000E+04 -5.690E-02
   1   18   29     3     8    2.1339E+05 -4.6886E+03   2.1808E+05  0.000E+00  0.000E+00  0.000E+00  3.15237E+01  1.904E-01  2.000E+01  2.000E+04 -2.344E-01
   1   18   30     3     9    2.1808E+05 -4.6869E+03   2.2276E+05  0.000E+00  0.000E+00  0.000E+00  3.06373E+01  1.929E-01  2.000E+01  2.000E+04 -2.343E-01



1
              HEAD IN LAYER   1 AT END OF TIME STEP   1 IN STRESS PERIOD    2
  ---------------------------------------------------------------------------

          1      2      3      4      5      6      7      8      9     10
         11     12     13     14     15     16     17     18     19     20
         21     22     23     24     25     26     27     28     29     30
 .........................................................................
   1  ****** ****** ****** ****** ****** ****** ****** ****** ****** ******
      ****** ****** ****** ****** ****** ****** ****** ****** ****** ******
      ****** ****** ****** ****** ****** ****** ****** ****** ****** ******
   2  ****** ****** ****** ****** ****** ****** ****** ****** ****** ******
      ****** ****** ****** ****** ****** ****** ****** ****** ****** ******
      ****** ****** ****** ****** ****** ****** ****** ****** ****** ******
   3  ****** ****** ****** ****** ****** ****** ****** ****** ****** ******
      ****** ****** ****** ****** ****** ****** ****** ****** ****** ******
      ****** ****** ****** ****** ****** ****** ****** ****** ****** ******
   4  ****** ****** ****** ****** ****** ****** ****** ****** ****** ******
      ****** ****** ****** ****** ****** ****** ****** ****** ****** ******
      ****** ****** ****** ****** ****** ****** ****** ****** ****** ******
   5  ****** ****** ****** ****** ****** ****** ****** ****** ****** ******
      ****** ****** ****** ****** ****** ****** ****** ****** ****** ******
      ****** ****** ****** ****** ****** ****** ****** ****** ****** ******
   6  ****** ****** ****** ****** ****** ****** ****** ****** ****** ******
      ****** ****** ****** ****** ****** ****** ****** ****** ****** ******
      ****** ****** ****** ****** ****** ****** ****** ****** ****** ******
   7  ****** ****** ****** ****** ****** ****** ****** ****** ****** ******
      ****** ****** ****** ****** ****** ****** ****** ****** ****** ******
      ****** ****** ****** ****** ****** ****** ****** ****** ****** ******
   8  ****** ****** ****** ****** ****** ****** ****** ****** ****** ******
      ****** ****** ****** ****** ****** ****** ****** ****** ****** ******
      ****** ****** ****** ****** ****** ****** ****** ****** ****** ******
   9  ****** ****** ****** ****** ****** ****** ****** ****** ****** ******
      ****** ****** ****** ****** ****** ****** ****** ****** ****** ******
      ****** ****** ****** ****** ****** ****** ****** ****** ****** ******
  10  ****** ****** ****** ****** ****** ****** ****** ****** ****** ******
      ****** ****** ****** ****** ****** ****** ****** ****** ****** ******
      ****** ****** ****** ****** ****** ****** ****** ****** ****** ******
  11  ****** ****** ****** ****** ****** ****** ****** ****** ****** ******
      ****** ****** ****** ****** ****** ****** ****** ****** ****** ******
      ****** ****** ****** ****** ****** ****** ****** ****** ****** ******
  12  ****** ****** ****** ****** ****** ****** ****** ****** ****** ******
      ****** ****** ****** ****** ****** ****** ****** ****** ****** ******
      ****** ****** ****** ****** ****** ****** ****** ****** ****** ******
  13  ****** ****** ****** ****** ****** ****** ****** ****** ****** ******
      ****** ****** ****** ****** ****** ****** ****** ****** ****** ******
      ****** ****** ****** ****** ****** ****** ****** ****** ****** ******
  14  ****** ****** ****** ****** ****** ****** ****** ****** ****** ******
      ****** ****** ****** ****** ****** ****** ****** ****** ****** ******
      ****** ****** ****** ****** ****** ****** ****** ****** ****** ******
  15  ****** ****** ****** ****** ****** ****** ****** ****** ****** ******
      ****** ****** ****** ****** ****** ****** ****** ****** ****** ******
      ****** ****** ****** ****** ****** ****** ****** ****** ****** ******
  16  ****** ****** ****** ****** ****** ****** ****** ****** ****** ******
      ****** ****** ****** ****** ****** ****** ****** ****** ****** ******
      ****** ****** ****** ****** ****** ****** ****** ****** ****** ******
  17  ****** ****** ****** ****** ****** ****** ****** ****** ****** ******
      ****** ****** ****** ****** ****** ****** ****** ****** ****** ******
      ****** ****** ****** ****** ****** ****** ****** ****** ****** ******
  18  ****** ****** ****** ****** ****** ****** ****** ****** ****** ******
      ****** ****** ****** ****** ****** ****** ****** ****** ****** ******
      ****** ****** ****** ****** ****** ****** ****** ****** ****** ******
  19  ****** ****** ****** ****** ****** ****** ****** ****** ****** ******
      ****** ****** ****** ****** ****** ****** ****** ****** ****** ******
      ****** ****** ****** ****** ****** ****** ****** ****** ****** ******
  20  ****** ****** ****** ****** ****** ****** ****** ****** ****** ******
      ****** ****** ****** ****** ****** ****** ****** ****** ****** ******
      ****** ****** ****** ****** ****** ****** ****** ****** ****** ******
  21  ****** ****** ****** ****** ****** ****** ****** ****** ****** ******
      ****** ****** ****** ****** ****** ****** ****** ****** ****** ******
      ****** ****** ****** ****** ****** ****** ****** ****** ****** ******
  22  ****** ****** ****** ****** ****** ****** ****** ****** ****** ******
      ****** ****** ****** ****** ****** ****** ****** ****** ****** ******
      ****** ****** ****** ****** ****** ****** ****** ****** ****** ******
  23  ****** ****** ****** ****** ****** ****** ****** ****** ****** ******
      ****** ****** ****** ****** ****** ****** ****** ****** ****** ******
      ****** ****** ****** ****** ****** ****** ****** ****** ****** ******
  24  ****** ****** ****** ****** ****** ****** ****** ****** ****** ******
      ****** ****** ****** ****** ****** ****** ****** ****** ****** ******
      ****** ****** ****** ****** ****** ****** ****** ****** ****** ******
  25  ****** ****** ****** ****** ****** ****** ****** ****** ****** ******
      ****** ****** ****** ****** ****** ****** ****** ****** ****** ******
      ****** ****** ****** ****** ****** ****** ****** ****** ****** ******

 HEAD WILL BE SAVED ON UNIT   51 AT END OF TIME STEP    1, STRESS PERIOD    2
1
  VOLUMETRIC BUDGET FOR ENTIRE MODEL AT END OF TIME STEP    1, STRESS PERIOD   2
  ------------------------------------------------------------------------------

     CUMULATIVE VOLUMES      L**3       RATES FOR THIS TIME STEP      L**3/T
     ------------------                 ------------------------

           IN:                                      IN:
           ---                                      ---
             STORAGE =    20032096.3743               STORAGE =       31834.0160
       CONSTANT HEAD =    16762695.0177         CONSTANT HEAD =       98210.9798
               WELLS =           0.0000                 WELLS =           0.0000
            RECHARGE =     6292800.0000              RECHARGE =       55200.0000
      STREAM LEAKAGE =     7021251.8802        STREAM LEAKAGE =       47437.0474

            TOTAL IN =    50108843.2721              TOTAL IN =      232682.0433

          OUT:                                     OUT:
          ----                                     ----
             STORAGE =           0.0000               STORAGE =           0.0000
       CONSTANT HEAD =           0.0000         CONSTANT HEAD =           0.0000
               WELLS =    20583965.3026                 WELLS =      112480.6847
            RECHARGE =           0.0000              RECHARGE =           0.0000
      STREAM LEAKAGE =    29524878.6218        STREAM LEAKAGE =      120201.3640

           TOTAL OUT =    50108843.9245             TOTAL OUT =      232682.0487

            IN - OUT =          -0.6523              IN - OUT =      -5.4315E-03

 PERCENT DISCREPANCY =          -0.00     PERCENT DISCREPANCY =          -0.00






         TIME SUMMARY AT END OF TIME STEP    1 IN STRESS PERIOD    2
                    SECONDS     MINUTES      HOURS       DAYS        YEARS
                    -----------------------------------------------------------
   TIME STEP LENGTH 7.86240E+06 1.31040E+05  2184.0      91.000     0.24914    
 STRESS PERIOD TIME 7.86240E+06 1.31040E+05  2184.0      91.000     0.24914    
         TOTAL TIME 1.58112E+07 2.63520E+05  4392.0      183.00     0.50103    
1
1
                            STRESS PERIOD NO.    3, LENGTH =   91.00000    
                            -----------------------------------------------

                              NUMBER OF TIME STEPS =     1

                               MULTIPLIER FOR DELT =     1.500

                            INITIAL TIME STEP SIZE =   91.00000    

 WELL NO.  LAYER   ROW   COL   STRESS RATE         
 --------------------------------------------------
      1      1     17     25     -0.3467E+05
      2      1     16     17     -0.3097E+05
      3      1     14     25     -0.4684E+05

      3 WELLS

                 RECHARGE =   0.00000    

 REUSING STREAM SEGMENT DATA FROM LAST STRESS PERIOD
 
 SOLVING FOR HEAD 


     7 CALLS TO PCG ROUTINE FOR TIME STEP   1 IN STRESS PERIOD    3
    27 TOTAL ITERATIONS

 OUTPUT CONTROL FOR STRESS PERIOD    3   TIME STEP    1
    SAVE BUDGET
    SAVE HEAD FOR ALL LAYERS
    PRINT HEAD FOR ALL LAYERS
 UBDSV2 SAVING "STREAMFLOW OUT  " ON UNIT  50 AT TIME STEP  1, STRESS PERIOD   3



 STREAM LISTING     PERIOD      3   STEP        1

 LAYER ROW COL. STREAM  RCH.  FLOW INTO     FLOW TO   FLOW OUT OF   OVRLND.     DIRECT     STREAM       STREAM     STREAM     STREAM   STREAMBED  STREAMBED
                SEG.NO.  NO.  STRM. RCH.    AQUIFER    STRM. RCH.    RUNOFF     PRECIP       ET          HEAD       DEPTH      WIDTH   CONDCTNC.   GRADIENT

   1   13    1     1     1    1.0000E+05 -2.9368E+03   1.0294E+05  0.000E+00  0.000E+00  0.000E+00  4.84073E+01  1.459E-01  2.000E+01  2.000E+04 -1.468E-01
   1   13    2     1     2    1.0294E+05 -4.9523E+03   1.0789E+05  0.000E+00  0.000E+00  0.000E+00  4.79334E+01  1.493E-01  2.000E+01  2.000E+04 -2.476E-01
   1   14    3     1     3    1.0789E+05 -3.9215E+03   1.1181E+05  0.000E+00  0.000E+00  0.000E+00  4.74599E+01  1.530E-01  2.000E+01  2.000E+04 -1.961E-01
   1   15    4     1     4    1.1181E+05 -3.7847E+03   1.1560E+05  0.000E+00  0.000E+00  0.000E+00  4.69858E+01  1.562E-01  2.000E+01  2.000E+04 -1.892E-01
   1   16    5     1     5    1.1560E+05 -4.0552E+03   1.1965E+05  0.000E+00  0.000E+00  0.000E+00  4.65117E+01  1.594E-01  2.000E+01  2.000E+04 -2.028E-01
   1   16    6     1     6    1.1965E+05 -3.2101E+03   1.2286E+05  0.000E+00  0.000E+00  0.000E+00  4.60374E+01  1.624E-01  2.000E+01  2.000E+04 -1.605E-01
   1   16    7     1     7    1.2286E+05 -3.2671E+03   1.2613E+05  0.000E+00  0.000E+00  0.000E+00  4.55627E+01  1.650E-01  2.000E+01  2.000E+04 -1.634E-01
   1   16    8     1     8    1.2613E+05 -3.2782E+03   1.2941E+05  0.000E+00  0.000E+00  0.000E+00  4.50880E+01  1.676E-01  2.000E+01  2.000E+04 -1.639E-01
   1   16    9     1     9    1.2941E+05 -3.2227E+03   1.3263E+05  0.000E+00  0.000E+00  0.000E+00  4.46133E+01  1.701E-01  2.000E+01  2.000E+04 -1.611E-01
   1   16   10     1    10    1.3263E+05 -3.0860E+03   1.3571E+05  0.000E+00  0.000E+00  0.000E+00  4.41385E+01  1.726E-01  2.000E+01  2.000E+04 -1.543E-01
   1   16   11     1    11    1.3571E+05 -2.8333E+03   1.3855E+05  0.000E+00  0.000E+00  0.000E+00  4.36635E+01  1.748E-01  2.000E+01  2.000E+04 -1.417E-01
   1   16   12     1    12    1.3855E+05 -2.5932E+03   1.4114E+05  0.000E+00  0.000E+00  0.000E+00  4.31883E+01  1.769E-01  2.000E+01  2.000E+04 -1.297E-01
   1   15   13     1    13    1.4114E+05 -1.5978E+03   1.4274E+05  0.000E+00  0.000E+00  0.000E+00  4.27126E+01  1.785E-01  2.000E+01  2.000E+04 -7.989E-02
   1   14   14     1    14    1.4274E+05 -1.0721E+03   1.4381E+05  0.000E+00  0.000E+00  0.000E+00  4.22363E+01  1.795E-01  2.000E+01  2.000E+04 -5.361E-02
   1   13   15     1    15    1.4381E+05 -1.5969E+03   1.4541E+05  0.000E+00  0.000E+00  0.000E+00  4.17600E+01  1.805E-01  2.000E+01  2.000E+04 -7.984E-02
   1   12   16     1    16    1.4541E+05 -4.3363E+03   1.4974E+05  0.000E+00  0.000E+00  0.000E+00  4.12850E+01  1.827E-01  2.000E+01  2.000E+04 -2.168E-01
   1   12   17     1    17    1.4974E+05 -1.9392E+03   1.5168E+05  0.000E+00  0.000E+00  0.000E+00  4.08100E+01  1.850E-01  2.000E+01  2.000E+04 -9.696E-02
   1   12   18     1    18    1.5168E+05 -1.9248E+03   1.5361E+05  0.000E+00  0.000E+00  0.000E+00  4.03342E+01  1.864E-01  2.000E+01  2.000E+04 -9.624E-02
   1   12   19     1    19    1.5361E+05 -3.4808E+03   1.5709E+05  0.000E+00  0.000E+00  0.000E+00  3.98589E+01  1.884E-01  2.000E+01  2.000E+04 -1.740E-01
   1   13   20     1    20    1.5709E+05 -6.5394E+02   1.5774E+05  0.000E+00  0.000E+00  0.000E+00  3.93831E+01  1.899E-01  2.000E+01  2.000E+04 -3.270E-02
   1   14   21     1    21    1.5774E+05  7.0995E+02   1.5703E+05  0.000E+00  0.000E+00  0.000E+00  3.89058E+01  1.899E-01  2.000E+01  2.000E+04  3.550E-02
   1   14   22     1    22    1.5703E+05  5.9823E+03   1.5105E+05  0.000E+00  0.000E+00  0.000E+00  3.84261E+01  1.875E-01  2.000E+01  2.000E+04  2.991E-01
   1    9   30     2     1    5.0000E+04 -2.3141E+03   5.2314E+04  0.000E+00  0.000E+00  0.000E+00  4.02425E+01  1.175E-01  2.000E+01  2.000E+04 -1.157E-01
   1    9   29     2     2    5.2314E+04 -2.6271E+03   5.4941E+04  0.000E+00  0.000E+00  0.000E+00  3.99958E+01  1.208E-01  2.000E+01  2.000E+04 -1.314E-01
   1    9   28     2     3    5.4941E+04 -2.9950E+03   5.7936E+04  0.000E+00  0.000E+00  0.000E+00  3.97496E+01  1.246E-01  2.000E+01  2.000E+04 -1.497E-01
   1    9   27     2     4    5.7936E+04 -5.7776E+03   6.3714E+04  0.000E+00  0.000E+00  0.000E+00  3.95053E+01  1.303E-01  2.000E+01  2.000E+04 -2.889E-01
   1   10   26     2     5    6.3714E+04 -2.5812E+03   6.6295E+04  0.000E+00  0.000E+00  0.000E+00  3.92606E+01  1.356E-01  2.000E+01  2.000E+04 -1.291E-01
   1   11   25     2     6    6.6295E+04  2.2541E+02   6.6070E+04  0.000E+00  0.000E+00  0.000E+00  3.90121E+01  1.371E-01  2.000E+01  2.000E+04  1.127E-02
   1   12   24     2     7    6.6070E+04  3.0221E+03   6.3047E+04  0.000E+00  0.000E+00  0.000E+00  3.87601E+01  1.351E-01  2.000E+01  2.000E+04  1.511E-01
   1   13   23     2     8    6.3047E+04  3.0075E+03   6.0040E+04  0.000E+00  0.000E+00  0.000E+00  3.85062E+01  1.312E-01  2.000E+01  2.000E+04  1.504E-01
   1   14   22     2     9    6.0040E+04  2.5140E+03   5.7526E+04  0.000E+00  0.000E+00  0.000E+00  3.82527E+01  1.277E-01  2.000E+01  2.000E+04  1.257E-01
   1   14   22     3     1    2.0858E+05 -7.6560E+03   2.1623E+05  0.000E+00  0.000E+00  0.000E+00  3.77442E+01  1.886E-01  2.000E+01  2.000E+04 -3.828E-01
   1   15   23     3     2    2.1623E+05  2.3373E+03   2.1390E+05  0.000E+00  0.000E+00  0.000E+00  3.68567E+01  1.900E-01  2.000E+01  2.000E+04  1.169E-01
   1   15   24     3     3    2.1390E+05  7.2084E+03   2.0669E+05  0.000E+00  0.000E+00  0.000E+00  3.59653E+01  1.875E-01  2.000E+01  2.000E+04  3.604E-01
   1   15   25     3     4    2.0669E+05  1.8769E+04   1.8792E+05  0.000E+00  0.000E+00  0.000E+00  3.50693E+01  1.805E-01  2.000E+01  2.000E+04  9.384E-01
   1   15   26     3     5    1.8792E+05  7.6318E+03   1.8029E+05  0.000E+00  0.000E+00  0.000E+00  3.41731E+01  1.731E-01  2.000E+01  2.000E+04  3.816E-01
   1   16   27     3     6    1.8029E+05  3.5574E+03   1.7673E+05  0.000E+00  0.000E+00  0.000E+00  3.32811E+01  1.699E-01  2.000E+01  2.000E+04  1.779E-01
   1   17   28     3     7    1.7673E+05  3.1519E+01   1.7670E+05  0.000E+00  0.000E+00  0.000E+00  3.23911E+01  1.689E-01  2.000E+01  2.000E+04  1.576E-03
   1   18   29     3     8    1.7670E+05 -3.6275E+03   1.8032E+05  0.000E+00  0.000E+00  0.000E+00  3.15033E+01  1.699E-01  2.000E+01  2.000E+04 -1.814E-01
   1   18   30     3     9    1.8032E+05 -3.9177E+03   1.8424E+05  0.000E+00  0.000E+00  0.000E+00  3.06165E+01  1.721E-01  2.000E+01  2.000E+04 -1.959E-01



1
              HEAD IN LAYER   1 AT END OF TIME STEP   1 IN STRESS PERIOD    3
  ---------------------------------------------------------------------------

          1      2      3      4      5      6      7      8      9     10
         11     12     13     14     15     16     17     18     19     20
         21     22     23     24     25     26     27     28     29     30
 .........................................................................
   1  ****** ****** ****** ****** ****** ****** ****** ****** ****** ******
      ****** ****** ****** ****** ****** ****** ****** ****** ****** ******
      ****** ****** ****** ****** ****** ****** ****** ****** ****** ******
   2  ****** ****** ****** ****** ****** ****** ****** ****** ****** ******
      ****** ****** ****** ****** ****** ****** ****** ****** ****** ******
      ****** ****** ****** ****** ****** ****** ****** ****** ****** ******
   3  ****** ****** ****** ****** ****** ****** ****** ****** ****** ******
      ****** ****** ****** ****** ****** ****** ****** ****** ****** ******
      ****** ****** ****** ****** ****** ****** ****** ****** ****** ******
   4  ****** ****** ****** ****** ****** ****** ****** ****** ****** ******
      ****** ****** ****** ****** ****** ****** ****** ****** ****** ******
      ****** ****** ****** ****** ****** ****** ****** ****** ****** ******
   5  ****** ****** ****** ****** ****** ****** ****** ****** ****** ******
      ****** ****** ****** ****** ****** ****** ****** ****** ****** ******
      ****** ****** ****** ****** ****** ****** ****** ****** ****** ******
   6  ****** ****** ****** ****** ****** ****** ****** ****** ****** ******
      ****** ****** ****** ****** ****** ****** ****** ****** ****** ******
      ****** ****** ****** ****** ****** ****** ****** ****** ****** ******
   7  ****** ****** ****** ****** ****** ****** ****** ****** ****** ******
      ****** ****** ****** ****** ****** ****** ****** ****** ****** ******
      ****** ****** ****** ****** ****** ****** ****** ****** ****** ******
   8  ****** ****** ****** ****** ****** ****** ****** ****** ****** ******
      ****** ****** ****** ****** ****** ****** ****** ****** ****** ******
      ****** ****** ****** ****** ****** ****** ****** ****** ****** ******
   9  ****** ****** ****** ****** ****** ****** ****** ****** ****** ******
      ****** ****** ****** ****** ****** ****** ****** ****** ****** ******
      ****** ****** ****** ****** ****** ****** ****** ****** ****** ******
  10  ****** ****** ****** ****** ****** ****** ****** ****** ****** ******
      ****** ****** ****** ****** ****** ****** ****** ****** ****** ******
      ****** ****** ****** ****** ****** ****** ****** ****** ****** ******
  11  ****** ****** ****** ****** ****** ****** ****** ****** ****** ******
      ****** ****** ****** ****** ****** ****** ****** ****** ****** ******
      ****** ****** ****** ****** ****** ****** ****** ****** ****** ******
  12  ****** ****** ****** ****** ****** ****** ****** ****** ****** ******
      ****** ****** ****** ****** ****** ****** ****** ****** ****** ******
      ****** ****** ****** ****** ****** ****** ****** ****** ****** ******
  13  ****** ****** ****** ****** ****** ****** ****** ****** ****** ******
      ****** ****** ****** ****** ****** ****** ****** ****** ****** ******
      ****** ****** ****** ****** ****** ****** ****** ****** ****** ******
  14  ****** ****** ****** ****** ****** ****** ****** ****** ****** ******
      ****** ****** ****** ****** ****** ****** ****** ****** ****** ******
      ****** ****** ****** ****** ****** ****** ****** ****** ****** ******
  15  ****** ****** ****** ****** ****** ****** ****** ****** ****** ******
      ****** ****** ****** ****** ****** ****** ****** ****** ****** ******
      ****** ****** ****** ****** ****** ****** ****** ****** ****** ******
  16  ****** ****** ****** ****** ****** ****** ****** ****** ****** ******
      ****** ****** ****** ****** ****** ****** ****** ****** ****** ******
      ****** ****** ****** ****** ****** ****** ****** ****** ****** ******
  17  ****** ****** ****** ****** ****** ****** ****** ****** ****** ******
      ****** ****** ****** ****** ****** ****** ****** ****** ****** ******
      ****** ****** ****** ****** ****** ****** ****** ****** ****** ******
  18  ****** ****** ****** ****** ****** ****** ****** ****** ****** ******
      ****** ****** ****** ****** ****** ****** ****** ****** ****** ******
      ****** ****** ****** ****** ****** ****** ****** ****** ****** ******
  19  ****** ****** ****** ****** ****** ****** ****** ****** ****** ******
      ****** ****** ****** ****** ****** ****** ****** ****** ****** ******
      ****** ****** ****** ****** ****** ****** ****** ****** ****** ******
  20  ****** ****** ****** ****** ****** ****** ****** ****** ****** ******
      ****** ****** ****** ****** ****** ****** ****** ****** ****** ******
      ****** ****** ****** ****** ****** ****** ****** ****** ****** ******
  21  ****** ****** ****** ****** ****** ****** ****** ****** ****** ******
      ****** ****** ****** ****** ****** ****** ****** ****** ****** ******
      ****** ****** ****** ****** ****** ****** ****** ****** ****** ******
  22  ****** ****** ****** ****** ****** ****** ****** ****** ****** ******
      ****** ****** ****** ****** ****** ****** ****** ****** ****** ******
      ****** ****** ****** ****** ****** ****** ****** ****** ****** ******
  23  ****** ****** ****** ****** ****** ****** ****** ****** ****** ******
      ****** ****** ****** ****** ****** ****** ****** ****** ****** ******
      ****** ****** ****** ****** ****** ****** ****** ****** ****** ******
  24  ****** ****** ****** ****** ****** ****** ****** ****** ****** ******
      ****** ****** ****** ****** ****** ****** ****** ****** ****** ******
      ****** ****** ****** ****** ****** ****** ****** ****** ****** ******
  25  ****** ****** ****** ****** ****** ****** ****** ****** ****** ******
      ****** ****** ****** ****** ****** ****** ****** ****** ****** ******
      ****** ****** ****** ****** ****** ****** ****** ****** ****** ******

 HEAD WILL BE SAVED ON UNIT   51 AT END OF TIME STEP    1, STRESS PERIOD    3
1
  VOLUMETRIC BUDGET FOR ENTIRE MODEL AT END OF TIME STEP    1, STRESS PERIOD   3
  ------------------------------------------------------------------------------

     CUMULATIVE VOLUMES      L**3       RATES FOR THIS TIME STEP      L**3/T
     ------------------                 ------------------------

           IN:                                      IN:
           ---                                      ---
             STORAGE =    22369429.0242               STORAGE =       25684.9742
       CONSTANT HEAD =    27777181.3095         CONSTANT HEAD =      121038.3109
               WELLS =           0.0000                 WELLS =           0.0000
            RECHARGE =     6292800.0000              RECHARGE =           0.0000
      STREAM LEAKAGE =    12025949.4543        STREAM LEAKAGE =       54996.6766

            TOTAL IN =    68465359.7879              TOTAL IN =      201719.9617

          OUT:                                     OUT:
          ----                                     ----
             STORAGE =           0.0000               STORAGE =           0.0000
       CONSTANT HEAD =           0.0000         CONSTANT HEAD =           0.0000
               WELLS =    30819707.6116                 WELLS =      112480.6847
            RECHARGE =           0.0000              RECHARGE =           0.0000
      STREAM LEAKAGE =    37645653.0881        STREAM LEAKAGE =       89239.2798

           TOTAL OUT =    68465360.6997             TOTAL OUT =      201719.9646

            IN - OUT =          -0.9118              IN - OUT =      -2.8509E-03

 PERCENT DISCREPANCY =          -0.00     PERCENT DISCREPANCY =          -0.00






         TIME SUMMARY AT END OF TIME STEP    1 IN STRESS PERIOD    3
                    SECONDS     MINUTES      HOURS       DAYS        YEARS
                    -----------------------------------------------------------
   TIME STEP LENGTH 7.86240E+06 1.31040E+05  2184.0      91.000     0.24914    
 STRESS PERIOD TIME 7.86240E+06 1.31040E+05  2184.0      91.000     0.24914    
         TOTAL TIME 2.36736E+07 3.94560E+05  6576.0      274.00     0.75017    
1
1
                            STRESS PERIOD NO.    4, LENGTH =   91.00000    
                            -----------------------------------------------

                              NUMBER OF TIME STEPS =     1

                               MULTIPLIER FOR DELT =     1.500

                            INITIAL TIME STEP SIZE =   91.00000    

 WELL NO.  LAYER   ROW   COL   STRESS RATE         
 --------------------------------------------------
      1      1     17     25     -0.3467E+05
      2      1     16     17     -0.3097E+05
      3      1     14     25     -0.4684E+05

      3 WELLS

                 RECHARGE =  1.000000E-03

 REUSING STREAM SEGMENT DATA FROM LAST STRESS PERIOD
 
 SOLVING FOR HEAD 


     6 CALLS TO PCG ROUTINE FOR TIME STEP   1 IN STRESS PERIOD    4
    21 TOTAL ITERATIONS

 OUTPUT CONTROL FOR STRESS PERIOD    4   TIME STEP    1
    SAVE BUDGET
    SAVE HEAD FOR ALL LAYERS
    PRINT HEAD FOR ALL LAYERS
 UBDSV2 SAVING "STREAMFLOW OUT  " ON UNIT  50 AT TIME STEP  1, STRESS PERIOD   4



 STREAM LISTING     PERIOD      4   STEP        1

 LAYER ROW COL. STREAM  RCH.  FLOW INTO     FLOW TO   FLOW OUT OF   OVRLND.     DIRECT     STREAM       STREAM     STREAM     STREAM   STREAMBED  STREAMBED
                SEG.NO.  NO.  STRM. RCH.    AQUIFER    STRM. RCH.    RUNOFF     PRECIP       ET          HEAD       DEPTH      WIDTH   CONDCTNC.   GRADIENT

   1   13    1     1     1    1.0000E+05 -2.9612E+03   1.0296E+05  0.000E+00  0.000E+00  0.000E+00  4.84073E+01  1.459E-01  2.000E+01  2.000E+04 -1.481E-01
   1   13    2     1     2    1.0296E+05 -4.9472E+03   1.0791E+05  0.000E+00  0.000E+00  0.000E+00  4.79334E+01  1.493E-01  2.000E+01  2.000E+04 -2.474E-01
   1   14    3     1     3    1.0791E+05 -3.9713E+03   1.1188E+05  0.000E+00  0.000E+00  0.000E+00  4.74599E+01  1.531E-01  2.000E+01  2.000E+04 -1.986E-01
   1   15    4     1     4    1.1188E+05 -3.8515E+03   1.1573E+05  0.000E+00  0.000E+00  0.000E+00  4.69859E+01  1.563E-01  2.000E+01  2.000E+04 -1.926E-01
   1   16    5     1     5    1.1573E+05 -4.1291E+03   1.1986E+05  0.000E+00  0.000E+00  0.000E+00  4.65119E+01  1.596E-01  2.000E+01  2.000E+04 -2.065E-01
   1   16    6     1     6    1.1986E+05 -3.2637E+03   1.2312E+05  0.000E+00  0.000E+00  0.000E+00  4.60376E+01  1.626E-01  2.000E+01  2.000E+04 -1.632E-01
   1   16    7     1     7    1.2312E+05 -3.3158E+03   1.2644E+05  0.000E+00  0.000E+00  0.000E+00  4.55629E+01  1.652E-01  2.000E+01  2.000E+04 -1.658E-01
   1   16    8     1     8    1.2644E+05 -3.3233E+03   1.2976E+05  0.000E+00  0.000E+00  0.000E+00  4.50883E+01  1.678E-01  2.000E+01  2.000E+04 -1.662E-01
   1   16    9     1     9    1.2976E+05 -3.2652E+03   1.3303E+05  0.000E+00  0.000E+00  0.000E+00  4.46136E+01  1.704E-01  2.000E+01  2.000E+04 -1.633E-01
   1   16   10     1    10    1.3303E+05 -3.1262E+03   1.3615E+05  0.000E+00  0.000E+00  0.000E+00  4.41388E+01  1.729E-01  2.000E+01  2.000E+04 -1.563E-01
   1   16   11     1    11    1.3615E+05 -2.8704E+03   1.3902E+05  0.000E+00  0.000E+00  0.000E+00  4.36638E+01  1.752E-01  2.000E+01  2.000E+04 -1.435E-01
   1   16   12     1    12    1.3902E+05 -2.6156E+03   1.4164E+05  0.000E+00  0.000E+00  0.000E+00  4.31886E+01  1.773E-01  2.000E+01  2.000E+04 -1.308E-01
   1   15   13     1    13    1.4164E+05 -1.6174E+03   1.4326E+05  0.000E+00  0.000E+00  0.000E+00  4.27130E+01  1.789E-01  2.000E+01  2.000E+04 -8.087E-02
   1   14   14     1    14    1.4326E+05 -1.0859E+03   1.4434E+05  0.000E+00  0.000E+00  0.000E+00  4.22367E+01  1.799E-01  2.000E+01  2.000E+04 -5.429E-02
   1   13   15     1    15    1.4434E+05 -1.6110E+03   1.4595E+05  0.000E+00  0.000E+00  0.000E+00  4.17604E+01  1.809E-01  2.000E+01  2.000E+04 -8.055E-02
   1   12   16     1    16    1.4595E+05 -4.3351E+03   1.5029E+05  0.000E+00  0.000E+00  0.000E+00  4.12854E+01  1.831E-01  2.000E+01  2.000E+04 -2.168E-01
   1   12   17     1    17    1.5029E+05 -1.9642E+03   1.5225E+05  0.000E+00  0.000E+00  0.000E+00  4.08104E+01  1.854E-01  2.000E+01  2.000E+04 -9.821E-02
   1   12   18     1    18    1.5225E+05 -1.9576E+03   1.5421E+05  0.000E+00  0.000E+00  0.000E+00  4.03346E+01  1.869E-01  2.000E+01  2.000E+04 -9.788E-02
   1   12   19     1    19    1.5421E+05 -3.5319E+03   1.5774E+05  0.000E+00  0.000E+00  0.000E+00  3.98593E+01  1.889E-01  2.000E+01  2.000E+04 -1.766E-01
   1   13   20     1    20    1.5774E+05 -7.2009E+02   1.5846E+05  0.000E+00  0.000E+00  0.000E+00  3.93836E+01  1.904E-01  2.000E+01  2.000E+04 -3.600E-02
   1   14   21     1    21    1.5846E+05  6.7917E+02   1.5778E+05  0.000E+00  0.000E+00  0.000E+00  3.89063E+01  1.904E-01  2.000E+01  2.000E+04  3.396E-02
   1   14   22     1    22    1.5778E+05  5.9532E+03   1.5183E+05  0.000E+00  0.000E+00  0.000E+00  3.84267E+01  1.880E-01  2.000E+01  2.000E+04  2.977E-01
   1    9   30     2     1    5.0000E+04 -2.4231E+03   5.2423E+04  0.000E+00  0.000E+00  0.000E+00  4.02425E+01  1.175E-01  2.000E+01  2.000E+04 -1.212E-01
   1    9   29     2     2    5.2423E+04 -2.7348E+03   5.5158E+04  0.000E+00  0.000E+00  0.000E+00  3.99961E+01  1.211E-01  2.000E+01  2.000E+04 -1.367E-01
   1    9   28     2     3    5.5158E+04 -3.0989E+03   5.8257E+04  0.000E+00  0.000E+00  0.000E+00  3.97500E+01  1.250E-01  2.000E+01  2.000E+04 -1.549E-01
   1    9   27     2     4    5.8257E+04 -5.8863E+03   6.4143E+04  0.000E+00  0.000E+00  0.000E+00  3.95058E+01  1.308E-01  2.000E+01  2.000E+04 -2.943E-01
   1   10   26     2     5    6.4143E+04 -2.7065E+03   6.6849E+04  0.000E+00  0.000E+00  0.000E+00  3.92612E+01  1.362E-01  2.000E+01  2.000E+04 -1.353E-01
   1   11   25     2     6    6.6849E+04  9.9144E+01   6.6750E+04  0.000E+00  0.000E+00  0.000E+00  3.90129E+01  1.379E-01  2.000E+01  2.000E+04  4.957E-03
   1   12   24     2     7    6.6750E+04  2.8979E+03   6.3852E+04  0.000E+00  0.000E+00  0.000E+00  3.87610E+01  1.360E-01  2.000E+01  2.000E+04  1.449E-01
   1   13   23     2     8    6.3852E+04  2.8952E+03   6.0957E+04  0.000E+00  0.000E+00  0.000E+00  3.85073E+01  1.323E-01  2.000E+01  2.000E+04  1.448E-01
   1   14   22     2     9    6.0957E+04  2.4978E+03   5.8459E+04  0.000E+00  0.000E+00  0.000E+00  3.82539E+01  1.289E-01  2.000E+01  2.000E+04  1.249E-01
   1   14   22     3     1    2.1029E+05 -7.6779E+03   2.1797E+05  0.000E+00  0.000E+00  0.000E+00  3.77451E+01  1.895E-01  2.000E+01  2.000E+04 -3.839E-01
   1   15   23     3     2    2.1797E+05  2.3094E+03   2.1566E+05  0.000E+00  0.000E+00  0.000E+00  3.68576E+01  1.910E-01  2.000E+01  2.000E+04  1.155E-01
   1   15   24     3     3    2.1566E+05  7.1500E+03   2.0851E+05  0.000E+00  0.000E+00  0.000E+00  3.59662E+01  1.885E-01  2.000E+01  2.000E+04  3.575E-01
   1   15   25     3     4    2.0851E+05  1.8693E+04   1.8982E+05  0.000E+00  0.000E+00  0.000E+00  3.50704E+01  1.815E-01  2.000E+01  2.000E+04  9.347E-01
   1   15   26     3     5    1.8982E+05  7.5195E+03   1.8230E+05  0.000E+00  0.000E+00  0.000E+00  3.41742E+01  1.742E-01  2.000E+01  2.000E+04  3.760E-01
   1   16   27     3     6    1.8230E+05  3.4475E+03   1.7885E+05  0.000E+00  0.000E+00  0.000E+00  3.32822E+01  1.711E-01  2.000E+01  2.000E+04  1.724E-01
   1   17   28     3     7    1.7885E+05 -7.7398E+01   1.7893E+05  0.000E+00  0.000E+00  0.000E+00  3.23924E+01  1.702E-01  2.000E+01  2.000E+04 -3.870E-03
   1   18   29     3     8    1.7893E+05 -3.7205E+03   1.8265E+05  0.000E+00  0.000E+00  0.000E+00  3.15046E+01  1.712E-01  2.000E+01  2.000E+04 -1.860E-01
   1   18   30     3     9    1.8265E+05 -4.0109E+03   1.8666E+05  0.000E+00  0.000E+00  0.000E+00  3.06179E+01  1.734E-01  2.000E+01  2.000E+04 -2.005E-01



1
              HEAD IN LAYER   1 AT END OF TIME STEP   1 IN STRESS PERIOD    4
  ---------------------------------------------------------------------------

          1      2      3      4      5      6      7      8      9     10
         11     12     13     14     15     16     17     18     19     20
         21     22     23     24     25     26     27     28     29     30
 .........................................................................
   1  ****** ****** ****** ****** ****** ****** ****** ****** ****** ******
      ****** ****** ****** ****** ****** ****** ****** ****** ****** ******
      ****** ****** ****** ****** ****** ****** ****** ****** ****** ******
   2  ****** ****** ****** ****** ****** ****** ****** ****** ****** ******
      ****** ****** ****** ****** ****** ****** ****** ****** ****** ******
      ****** ****** ****** ****** ****** ****** ****** ****** ****** ******
   3  ****** ****** ****** ****** ****** ****** ****** ****** ****** ******
      ****** ****** ****** ****** ****** ****** ****** ****** ****** ******
      ****** ****** ****** ****** ****** ****** ****** ****** ****** ******
   4  ****** ****** ****** ****** ****** ****** ****** ****** ****** ******
      ****** ****** ****** ****** ****** ****** ****** ****** ****** ******
      ****** ****** ****** ****** ****** ****** ****** ****** ****** ******
   5  ****** ****** ****** ****** ****** ****** ****** ****** ****** ******
      ****** ****** ****** ****** ****** ****** ****** ****** ****** ******
      ****** ****** ****** ****** ****** ****** ****** ****** ****** ******
   6  ****** ****** ****** ****** ****** ****** ****** ****** ****** ******
      ****** ****** ****** ****** ****** ****** ****** ****** ****** ******
      ****** ****** ****** ****** ****** ****** ****** ****** ****** ******
   7  ****** ****** ****** ****** ****** ****** ****** ****** ****** ******
      ****** ****** ****** ****** ****** ****** ****** ****** ****** ******
      ****** ****** ****** ****** ****** ****** ****** ****** ****** ******
   8  ****** ****** ****** ****** ****** ****** ****** ****** ****** ******
      ****** ****** ****** ****** ****** ****** ****** ****** ****** ******
      ****** ****** ****** ****** ****** ****** ****** ****** ****** ******
   9  ****** ****** ****** ****** ****** ****** ****** ****** ****** ******
      ****** ****** ****** ****** ****** ****** ****** ****** ****** ******
      ****** ****** ****** ****** ****** ****** ****** ****** ****** ******
  10  ****** ****** ****** ****** ****** ****** ****** ****** ****** ******
      ****** ****** ****** ****** ****** ****** ****** ****** ****** ******
      ****** ****** ****** ****** ****** ****** ****** ****** ****** ******
  11  ****** ****** ****** ****** ****** ****** ****** ****** ****** ******
      ****** ****** ****** ****** ****** ****** ****** ****** ****** ******
      ****** ****** ****** ****** ****** ****** ****** ****** ****** ******
  12  ****** ****** ****** ****** ****** ****** ****** ****** ****** ******
      ****** ****** ****** ****** ****** ****** ****** ****** ****** ******
      ****** ****** ****** ****** ****** ****** ****** ****** ****** ******
  13  ****** ****** ****** ****** ****** ****** ****** ****** ****** ******
      ****** ****** ****** ****** ****** ****** ****** ****** ****** ******
      ****** ****** ****** ****** ****** ****** ****** ****** ****** ******
  14  ****** ****** ****** ****** ****** ****** ****** ****** ****** ******
      ****** ****** ****** ****** ****** ****** ****** ****** ****** ******
      ****** ****** ****** ****** ****** ****** ****** ****** ****** ******
  15  ****** ****** ****** ****** ****** ****** ****** ****** ****** ******
      ****** ****** ****** ****** ****** ****** ****** ****** ****** ******
      ****** ****** ****** ****** ****** ****** ****** ****** ****** ******
  16  ****** ****** ****** ****** ****** ****** ****** ****** ****** ******
      ****** ****** ****** ****** ****** ****** ****** ****** ****** ******
      ****** ****** ****** ****** ****** ****** ****** ****** ****** ******
  17  ****** ****** ****** ****** ****** ****** ****** ****** ****** ******
      ****** ****** ****** ****** ****** ****** ****** ****** ****** ******
      ****** ****** ****** ****** ****** ****** ****** ****** ****** ******
  18  ****** ****** ****** ****** ****** ****** ****** ****** ****** ******
      ****** ****** ****** ****** ****** ****** ****** ****** ****** ******
      ****** ****** ****** ****** ****** ****** ****** ****** ****** ******
  19  ****** ****** ****** ****** ****** ****** ****** ****** ****** ******
      ****** ****** ****** ****** ****** ****** ****** ****** ****** ******
      ****** ****** ****** ****** ****** ****** ****** ****** ****** ******
  20  ****** ****** ****** ****** ****** ****** ****** ****** ****** ******
      ****** ****** ****** ****** ****** ****** ****** ****** ****** ******
      ****** ****** ****** ****** ****** ****** ****** ****** ****** ******
  21  ****** ****** ****** ****** ****** ****** ****** ****** ****** ******
      ****** ****** ****** ****** ****** ****** ****** ****** ****** ******
      ****** ****** ****** ****** ****** ****** ****** ****** ****** ******
  22  ****** ****** ****** ****** ****** ****** ****** ****** ****** ******
      ****** ****** ****** ****** ****** ****** ****** ****** ****** ******
      ****** ****** ****** ****** ****** ****** ****** ****** ****** ******
  23  ****** ****** ****** ****** ****** ****** ****** ****** ****** ******
      ****** ****** ****** ****** ****** ****** ****** ****** ****** ******
      ****** ****** ****** ****** ****** ****** ****** ****** ****** ******
  24  ****** ****** ****** ****** ****** ****** ****** ****** ****** ******
      ****** ****** ****** ****** ****** ****** ****** ****** ****** ******
      ****** ****** ****** ****** ****** ****** ****** ****** ****** ******
  25  ****** ****** ****** ****** ****** ****** ****** ****** ****** ******
      ****** ****** ****** ****** ****** ****** ****** ****** ****** ******
      ****** ****** ****** ****** ****** ****** ****** ****** ****** ******

 HEAD WILL BE SAVED ON UNIT   51 AT END OF TIME STEP    1, STRESS PERIOD    4
1
  VOLUMETRIC BUDGET FOR ENTIRE MODEL AT END OF TIME STEP    1, STRESS PERIOD   4
  ------------------------------------------------------------------------------

     CUMULATIVE VOLUMES      L**3       RATES FOR THIS TIME STEP      L**3/T
     ------------------                 ------------------------

           IN:                                      IN:
           ---                                      ---
             STORAGE =    22497180.9366               STORAGE =        1403.8672
       CONSTANT HEAD =    38735058.7097         CONSTANT HEAD =      120416.2352
               WELLS =           0.0000                 WELLS =           0.0000
            RECHARGE =     8804400.0000              RECHARGE =       27600.0000
      STREAM LEAKAGE =    16952892.8786        STREAM LEAKAGE =       54142.2354

            TOTAL IN =    86989532.5249              TOTAL IN =      203562.3378

          OUT:                                     OUT:
          ----                                     ----
             STORAGE =       25643.7240               STORAGE =         281.7992
       CONSTANT HEAD =           0.0000         CONSTANT HEAD =           0.0000
               WELLS =    41055449.9206                 WELLS =      112480.6847
            RECHARGE =           0.0000              RECHARGE =           0.0000
      STREAM LEAKAGE =    45908439.5909        STREAM LEAKAGE =       90799.8517

           TOTAL OUT =    86989533.2355             TOTAL OUT =      203562.3356

            IN - OUT =          -0.7106              IN - OUT =       2.2107E-03

 PERCENT DISCREPANCY =          -0.00     PERCENT DISCREPANCY =           0.00






         TIME SUMMARY AT END OF TIME STEP    1 IN STRESS PERIOD    4
                    SECONDS     MINUTES      HOURS       DAYS        YEARS
                    -----------------------------------------------------------
   TIME STEP LENGTH 7.86240E+06 1.31040E+05  2184.0      91.000     0.24914    
 STRESS PERIOD TIME 7.86240E+06 1.31040E+05  2184.0      91.000     0.24914    
         TOTAL TIME 3.15360E+07 5.25600E+05  8760.0      365.00     0.99932    
1
1
                            STRESS PERIOD NO.    5, LENGTH =   92.00000    
                            -----------------------------------------------

                              NUMBER OF TIME STEPS =     1

                               MULTIPLIER FOR DELT =     1.500

                            INITIAL TIME STEP SIZE =   92.00000    

 WELL NO.  LAYER   ROW   COL   STRESS RATE         
 --------------------------------------------------
      1      1     17     25     -0.3467E+05
      2      1     16     17     -0.3097E+05
      3      1     14     25     -0.4684E+05

      3 WELLS

                 RECHARGE =  5.000000E-04

 REUSING STREAM SEGMENT DATA FROM LAST STRESS PERIOD
 
 SOLVING FOR HEAD 


     6 CALLS TO PCG ROUTINE FOR TIME STEP   1 IN STRESS PERIOD    5
    23 TOTAL ITERATIONS

 OUTPUT CONTROL FOR STRESS PERIOD    5   TIME STEP    1
    SAVE BUDGET
    SAVE HEAD FOR ALL LAYERS
    PRINT HEAD FOR ALL LAYERS
 UBDSV2 SAVING "STREAMFLOW OUT  " ON UNIT  50 AT TIME STEP  1, STRESS PERIOD   5



 STREAM LISTING     PERIOD      5   STEP        1

 LAYER ROW COL. STREAM  RCH.  FLOW INTO     FLOW TO   FLOW OUT OF   OVRLND.     DIRECT     STREAM       STREAM     STREAM     STREAM   STREAMBED  STREAMBED
                SEG.NO.  NO.  STRM. RCH.    AQUIFER    STRM. RCH.    RUNOFF     PRECIP       ET          HEAD       DEPTH      WIDTH   CONDCTNC.   GRADIENT

   1   13    1     1     1    1.0000E+05 -2.7880E+03   1.0279E+05  0.000E+00  0.000E+00  0.000E+00  4.84072E+01  1.459E-01  2.000E+01  2.000E+04 -1.394E-01
   1   13    2     1     2    1.0279E+05 -4.7070E+03   1.0750E+05  0.000E+00  0.000E+00  0.000E+00  4.79332E+01  1.491E-01  2.000E+01  2.000E+04 -2.354E-01
   1   14    3     1     3    1.0750E+05 -3.7476E+03   1.1124E+05  0.000E+00  0.000E+00  0.000E+00  4.74595E+01  1.526E-01  2.000E+01  2.000E+04 -1.874E-01
   1   15    4     1     4    1.1124E+05 -3.6388E+03   1.1488E+05  0.000E+00  0.000E+00  0.000E+00  4.69853E+01  1.557E-01  2.000E+01  2.000E+04 -1.819E-01
   1   16    5     1     5    1.1488E+05 -3.9432E+03   1.1882E+05  0.000E+00  0.000E+00  0.000E+00  4.65111E+01  1.588E-01  2.000E+01  2.000E+04 -1.972E-01
   1   16    6     1     6    1.1882E+05 -3.1107E+03   1.2194E+05  0.000E+00  0.000E+00  0.000E+00  4.60367E+01  1.617E-01  2.000E+01  2.000E+04 -1.555E-01
   1   16    7     1     7    1.2194E+05 -3.1580E+03   1.2509E+05  0.000E+00  0.000E+00  0.000E+00  4.55619E+01  1.642E-01  2.000E+01  2.000E+04 -1.579E-01
   1   16    8     1     8    1.2509E+05 -3.1628E+03   1.2826E+05  0.000E+00  0.000E+00  0.000E+00  4.50872E+01  1.667E-01  2.000E+01  2.000E+04 -1.581E-01
   1   16    9     1     9    1.2826E+05 -3.1040E+03   1.3136E+05  0.000E+00  0.000E+00  0.000E+00  4.46123E+01  1.692E-01  2.000E+01  2.000E+04 -1.552E-01
   1   16   10     1    10    1.3136E+05 -2.9662E+03   1.3433E+05  0.000E+00  0.000E+00  0.000E+00  4.41374E+01  1.715E-01  2.000E+01  2.000E+04 -1.483E-01
   1   16   11     1    11    1.3433E+05 -2.7125E+03   1.3704E+05  0.000E+00  0.000E+00  0.000E+00  4.36624E+01  1.737E-01  2.000E+01  2.000E+04 -1.356E-01
   1   16   12     1    12    1.3704E+05 -2.4113E+03   1.3945E+05  0.000E+00  0.000E+00  0.000E+00  4.31870E+01  1.757E-01  2.000E+01  2.000E+04 -1.206E-01
   1   15   13     1    13    1.3945E+05 -1.3885E+03   1.4084E+05  0.000E+00  0.000E+00  0.000E+00  4.27112E+01  1.771E-01  2.000E+01  2.000E+04 -6.943E-02
   1   14   14     1    14    1.4084E+05 -8.4969E+02   1.4169E+05  0.000E+00  0.000E+00  0.000E+00  4.22348E+01  1.780E-01  2.000E+01  2.000E+04 -4.248E-02
   1   13   15     1    15    1.4169E+05 -1.3773E+03   1.4307E+05  0.000E+00  0.000E+00  0.000E+00  4.17584E+01  1.788E-01  2.000E+01  2.000E+04 -6.886E-02
   1   12   16     1    16    1.4307E+05 -4.1073E+03   1.4717E+05  0.000E+00  0.000E+00  0.000E+00  4.12831E+01  1.809E-01  2.000E+01  2.000E+04 -2.054E-01
   1   12   17     1    17    1.4717E+05 -1.8029E+03   1.4898E+05  0.000E+00  0.000E+00  0.000E+00  4.08081E+01  1.831E-01  2.000E+01  2.000E+04 -9.015E-02
   1   12   18     1    18    1.4898E+05 -1.8024E+03   1.5078E+05  0.000E+00  0.000E+00  0.000E+00  4.03321E+01  1.844E-01  2.000E+01  2.000E+04 -9.012E-02
   1   12   19     1    19    1.5078E+05 -3.3476E+03   1.5413E+05  0.000E+00  0.000E+00  0.000E+00  3.98568E+01  1.863E-01  2.000E+01  2.000E+04 -1.674E-01
   1   13   20     1    20    1.5413E+05 -5.4388E+02   1.5467E+05  0.000E+00  0.000E+00  0.000E+00  3.93809E+01  1.877E-01  2.000E+01  2.000E+04 -2.719E-02
   1   14   21     1    21    1.5467E+05  8.4642E+02   1.5382E+05  0.000E+00  0.000E+00  0.000E+00  3.89035E+01  1.876E-01  2.000E+01  2.000E+04  4.232E-02
   1   14   22     1    22    1.5382E+05  5.9804E+03   1.4784E+05  0.000E+00  0.000E+00  0.000E+00  3.84237E+01  1.851E-01  2.000E+01  2.000E+04  2.990E-01
   1    9   30     2     1    5.0000E+04 -2.3071E+03   5.2307E+04  0.000E+00  0.000E+00  0.000E+00  4.02425E+01  1.175E-01  2.000E+01  2.000E+04 -1.154E-01
   1    9   29     2     2    5.2307E+04 -2.6191E+03   5.4926E+04  0.000E+00  0.000E+00  0.000E+00  3.99958E+01  1.208E-01  2.000E+01  2.000E+04 -1.310E-01
   1    9   28     2     3    5.4926E+04 -2.9826E+03   5.7909E+04  0.000E+00  0.000E+00  0.000E+00  3.97496E+01  1.246E-01  2.000E+01  2.000E+04 -1.491E-01
   1    9   27     2     4    5.7909E+04 -5.7248E+03   6.3634E+04  0.000E+00  0.000E+00  0.000E+00  3.95053E+01  1.303E-01  2.000E+01  2.000E+04 -2.862E-01
   1   10   26     2     5    6.3634E+04 -2.5399E+03   6.6173E+04  0.000E+00  0.000E+00  0.000E+00  3.92605E+01  1.355E-01  2.000E+01  2.000E+04 -1.270E-01
   1   11   25     2     6    6.6173E+04  2.5936E+02   6.5914E+04  0.000E+00  0.000E+00  0.000E+00  3.90119E+01  1.369E-01  2.000E+01  2.000E+04  1.297E-02
   1   12   24     2     7    6.5914E+04  3.0403E+03   6.2874E+04  0.000E+00  0.000E+00  0.000E+00  3.87599E+01  1.349E-01  2.000E+01  2.000E+04  1.520E-01
   1   13   23     2     8    6.2874E+04  3.0066E+03   5.9867E+04  0.000E+00  0.000E+00  0.000E+00  3.85060E+01  1.310E-01  2.000E+01  2.000E+04  1.503E-01
   1   14   22     2     9    5.9867E+04  2.5541E+03   5.7313E+04  0.000E+00  0.000E+00  0.000E+00  3.82524E+01  1.274E-01  2.000E+01  2.000E+04  1.277E-01
   1   14   22     3     1    2.0516E+05 -7.6475E+03   2.1280E+05  0.000E+00  0.000E+00  0.000E+00  3.77423E+01  1.868E-01  2.000E+01  2.000E+04 -3.824E-01
   1   15   23     3     2    2.1280E+05  2.4653E+03   2.1034E+05  0.000E+00  0.000E+00  0.000E+00  3.68548E+01  1.882E-01  2.000E+01  2.000E+04  1.233E-01
   1   15   24     3     3    2.1034E+05  7.2561E+03   2.0308E+05  0.000E+00  0.000E+00  0.000E+00  3.59634E+01  1.856E-01  2.000E+01  2.000E+04  3.628E-01
   1   15   25     3     4    2.0308E+05  1.8795E+04   1.8429E+05  0.000E+00  0.000E+00  0.000E+00  3.50674E+01  1.785E-01  2.000E+01  2.000E+04  9.398E-01
   1   15   26     3     5    1.8429E+05  7.6432E+03   1.7664E+05  0.000E+00  0.000E+00  0.000E+00  3.41711E+01  1.711E-01  2.000E+01  2.000E+04  3.822E-01
   1   16   27     3     6    1.7664E+05  3.6079E+03   1.7304E+05  0.000E+00  0.000E+00  0.000E+00  3.32789E+01  1.678E-01  2.000E+01  2.000E+04  1.804E-01
   1   17   28     3     7    1.7304E+05  8.6803E+01   1.7295E+05  0.000E+00  0.000E+00  0.000E+00  3.23890E+01  1.668E-01  2.000E+01  2.000E+04  4.340E-03
   1   18   29     3     8    1.7295E+05 -3.5648E+03   1.7651E+05  0.000E+00  0.000E+00  0.000E+00  3.15011E+01  1.678E-01  2.000E+01  2.000E+04 -1.782E-01
   1   18   30     3     9    1.7651E+05 -3.8977E+03   1.8041E+05  0.000E+00  0.000E+00  0.000E+00  3.06144E+01  1.699E-01  2.000E+01  2.000E+04 -1.949E-01



1
              HEAD IN LAYER   1 AT END OF TIME STEP   1 IN STRESS PERIOD    5
  ---------------------------------------------------------------------------

          1      2      3      4      5      6      7      8      9     10
         11     12     13     14     15     16     17     18     19     20
         21     22     23     24     25     26     27     28     29     30
 .........................................................................
   1  ****** ****** ****** ****** ****** ****** ****** ****** ****** ******
      ****** ****** ****** ****** ****** ****** ****** ****** ****** ******
      ****** ****** ****** ****** ****** ****** ****** ****** ****** ******
   2  ****** ****** ****** ****** ****** ****** ****** ****** ****** ******
      ****** ****** ****** ****** ****** ****** ****** ****** ****** ******
      ****** ****** ****** ****** ****** ****** ****** ****** ****** ******
   3  ****** ****** ****** ****** ****** ****** ****** ****** ****** ******
      ****** ****** ****** ****** ****** ****** ****** ****** ****** ******
      ****** ****** ****** ****** ****** ****** ****** ****** ****** ******
   4  ****** ****** ****** ****** ****** ****** ****** ****** ****** ******
      ****** ****** ****** ****** ****** ****** ****** ****** ****** ******
      ****** ****** ****** ****** ****** ****** ****** ****** ****** ******
   5  ****** ****** ****** ****** ****** ****** ****** ****** ****** ******
      ****** ****** ****** ****** ****** ****** ****** ****** ****** ******
      ****** ****** ****** ****** ****** ****** ****** ****** ****** ******
   6  ****** ****** ****** ****** ****** ****** ****** ****** ****** ******
      ****** ****** ****** ****** ****** ****** ****** ****** ****** ******
      ****** ****** ****** ****** ****** ****** ****** ****** ****** ******
   7  ****** ****** ****** ****** ****** ****** ****** ****** ****** ******
      ****** ****** ****** ****** ****** ****** ****** ****** ****** ******
      ****** ****** ****** ****** ****** ****** ****** ****** ****** ******
   8  ****** ****** ****** ****** ****** ****** ****** ****** ****** ******
      ****** ****** ****** ****** ****** ****** ****** ****** ****** ******
      ****** ****** ****** ****** ****** ****** ****** ****** ****** ******
   9  ****** ****** ****** ****** ****** ****** ****** ****** ****** ******
      ****** ****** ****** ****** ****** ****** ****** ****** ****** ******
      ****** ****** ****** ****** ****** ****** ****** ****** ****** ******
  10  ****** ****** ****** ****** ****** ****** ****** ****** ****** ******
      ****** ****** ****** ****** ****** ****** ****** ****** ****** ******
      ****** ****** ****** ****** ****** ****** ****** ****** ****** ******
  11  ****** ****** ****** ****** ****** ****** ****** ****** ****** ******
      ****** ****** ****** ****** ****** ****** ****** ****** ****** ******
      ****** ****** ****** ****** ****** ****** ****** ****** ****** ******
  12  ****** ****** ****** ****** ****** ****** ****** ****** ****** ******
      ****** ****** ****** ****** ****** ****** ****** ****** ****** ******
      ****** ****** ****** ****** ****** ****** ****** ****** ****** ******
  13  ****** ****** ****** ****** ****** ****** ****** ****** ****** ******
      ****** ****** ****** ****** ****** ****** ****** ****** ****** ******
      ****** ****** ****** ****** ****** ****** ****** ****** ****** ******
  14  ****** ****** ****** ****** ****** ****** ****** ****** ****** ******
      ****** ****** ****** ****** ****** ****** ****** ****** ****** ******
      ****** ****** ****** ****** ****** ****** ****** ****** ****** ******
  15  ****** ****** ****** ****** ****** ****** ****** ****** ****** ******
      ****** ****** ****** ****** ****** ****** ****** ****** ****** ******
      ****** ****** ****** ****** ****** ****** ****** ****** ****** ******
  16  ****** ****** ****** ****** ****** ****** ****** ****** ****** ******
      ****** ****** ****** ****** ****** ****** ****** ****** ****** ******
      ****** ****** ****** ****** ****** ****** ****** ****** ****** ******
  17  ****** ****** ****** ****** ****** ****** ****** ****** ****** ******
      ****** ****** ****** ****** ****** ****** ****** ****** ****** ******
      ****** ****** ****** ****** ****** ****** ****** ****** ****** ******
  18  ****** ****** ****** ****** ****** ****** ****** ****** ****** ******
      ****** ****** ****** ****** ****** ****** ****** ****** ****** ******
      ****** ****** ****** ****** ****** ****** ****** ****** ****** ******
  19  ****** ****** ****** ****** ****** ****** ****** ****** ****** ******
      ****** ****** ****** ****** ****** ****** ****** ****** ****** ******
      ****** ****** ****** ****** ****** ****** ****** ****** ****** ******
  20  ****** ****** ****** ****** ****** ****** ****** ****** ****** ******
      ****** ****** ****** ****** ****** ****** ****** ****** ****** ******
      ****** ****** ****** ****** ****** ****** ****** ****** ****** ******
  21  ****** ****** ****** ****** ****** ****** ****** ****** ****** ******
      ****** ****** ****** ****** ****** ****** ****** ****** ****** ******
      ****** ****** ****** ****** ****** ****** ****** ****** ****** ******
  22  ****** ****** ****** ****** ****** ****** ****** ****** ****** ******
      ****** ****** ****** ****** ****** ****** ****** ****** ****** ******
      ****** ****** ****** ****** ****** ****** ****** ****** ****** ******
  23  ****** ****** ****** ****** ****** ****** ****** ****** ****** ******
      ****** ****** ****** ****** ****** ****** ****** ****** ****** ******
      ****** ****** ****** ****** ****** ****** ****** ****** ****** ******
  24  ****** ****** ****** ****** ****** ****** ****** ****** ****** ******
      ****** ****** ****** ****** ****** ****** ****** ****** ****** ******
      ****** ****** ****** ****** ****** ****** ****** ****** ****** ******
  25  ****** ****** ****** ****** ****** ****** ****** ****** ****** ******
      ****** ****** ****** ****** ****** ****** ****** ****** ****** ******
      ****** ****** ****** ****** ****** ****** ****** ****** ****** ******

 HEAD WILL BE SAVED ON UNIT   51 AT END OF TIME STEP    1, STRESS PERIOD    5
1
  VOLUMETRIC BUDGET FOR ENTIRE MODEL AT END OF TIME STEP    1, STRESS PERIOD   5
  ------------------------------------------------------------------------------

     CUMULATIVE VOLUMES      L**3       RATES FOR THIS TIME STEP      L**3/T
     ------------------                 ------------------------

           IN:                                      IN:
           ---                                      ---
             STORAGE =    22902658.4321               STORAGE =        4407.3641
       CONSTANT HEAD =    50206062.5765         CONSTANT HEAD =      124684.8246
               WELLS =           0.0000                 WELLS =           0.0000
            RECHARGE =    10074000.0000              RECHARGE =       13800.0000
      STREAM LEAKAGE =    22062731.1149        STREAM LEAKAGE =       55541.7200

            TOTAL IN =   105245452.1235              TOTAL IN =      198433.9087

          OUT:                                     OUT:
          ----                                     ----
             STORAGE =       25643.7240               STORAGE =           0.0000
       CONSTANT HEAD =           0.0000         CONSTANT HEAD =           0.0000
               WELLS =    51403672.9142                 WELLS =      112480.6847
            RECHARGE =           0.0000              RECHARGE =           0.0000
      STREAM LEAKAGE =    53816136.2761        STREAM LEAKAGE =       85953.2248

           TOTAL OUT =   105245452.9144             TOTAL OUT =      198433.9096

            IN - OUT =          -0.7909              IN - OUT =      -8.7237E-04

 PERCENT DISCREPANCY =          -0.00     PERCENT DISCREPANCY =          -0.00






         TIME SUMMARY AT END OF TIME STEP    1 IN STRESS PERIOD    5
                    SECONDS     MINUTES      HOURS       DAYS        YEARS
                    -----------------------------------------------------------
   TIME STEP LENGTH 7.94880E+06 1.32480E+05  2208.0      92.000     0.25188    
 STRESS PERIOD TIME 7.94880E+06 1.32480E+05  2208.0      92.000     0.25188    
         TOTAL TIME 3.94848E+07 6.58080E+05  10968.      457.00      1.2512    
1
1
                            STRESS PERIOD NO.    6, LENGTH =   91.00000    
                            -----------------------------------------------

                              NUMBER OF TIME STEPS =     1

                               MULTIPLIER FOR DELT =     1.500

                            INITIAL TIME STEP SIZE =   91.00000    

 WELL NO.  LAYER   ROW   COL   STRESS RATE         
 --------------------------------------------------
      1      1     17     25     -0.3467E+05
      2      1     16     17     -0.3097E+05
      3      1     14     25     -0.4684E+05

      3 WELLS

                 RECHARGE =  2.000000E-03

 REUSING STREAM SEGMENT DATA FROM LAST STRESS PERIOD
 
 SOLVING FOR HEAD 


     7 CALLS TO PCG ROUTINE FOR TIME STEP   1 IN STRESS PERIOD    6
    26 TOTAL ITERATIONS

 OUTPUT CONTROL FOR STRESS PERIOD    6   TIME STEP    1
    SAVE BUDGET
    SAVE HEAD FOR ALL LAYERS
    PRINT HEAD FOR ALL LAYERS
 UBDSV2 SAVING "STREAMFLOW OUT  " ON UNIT  50 AT TIME STEP  1, STRESS PERIOD   6



 STREAM LISTING     PERIOD      6   STEP        1

 LAYER ROW COL. STREAM  RCH.  FLOW INTO     FLOW TO   FLOW OUT OF   OVRLND.     DIRECT     STREAM       STREAM     STREAM     STREAM   STREAMBED  STREAMBED
                SEG.NO.  NO.  STRM. RCH.    AQUIFER    STRM. RCH.    RUNOFF     PRECIP       ET          HEAD       DEPTH      WIDTH   CONDCTNC.   GRADIENT

   1   13    1     1     1    1.0000E+05 -3.1877E+03   1.0319E+05  0.000E+00  0.000E+00  0.000E+00  4.84074E+01  1.460E-01  2.000E+01  2.000E+04 -1.594E-01
   1   13    2     1     2    1.0319E+05 -5.2327E+03   1.0842E+05  0.000E+00  0.000E+00  0.000E+00  4.79337E+01  1.496E-01  2.000E+01  2.000E+04 -2.616E-01
   1   14    3     1     3    1.0842E+05 -4.2872E+03   1.1271E+05  0.000E+00  0.000E+00  0.000E+00  4.74605E+01  1.536E-01  2.000E+01  2.000E+04 -2.144E-01
   1   15    4     1     4    1.1271E+05 -4.1756E+03   1.1688E+05  0.000E+00  0.000E+00  0.000E+00  4.69867E+01  1.571E-01  2.000E+01  2.000E+04 -2.088E-01
   1   16    5     1     5    1.1688E+05 -4.4417E+03   1.2132E+05  0.000E+00  0.000E+00  0.000E+00  4.65129E+01  1.606E-01  2.000E+01  2.000E+04 -2.221E-01
   1   16    6     1     6    1.2132E+05 -3.5025E+03   1.2483E+05  0.000E+00  0.000E+00  0.000E+00  4.60388E+01  1.638E-01  2.000E+01  2.000E+04 -1.751E-01
   1   16    7     1     7    1.2483E+05 -3.5553E+03   1.2838E+05  0.000E+00  0.000E+00  0.000E+00  4.55644E+01  1.666E-01  2.000E+01  2.000E+04 -1.778E-01
   1   16    8     1     8    1.2838E+05 -3.5634E+03   1.3195E+05  0.000E+00  0.000E+00  0.000E+00  4.50899E+01  1.694E-01  2.000E+01  2.000E+04 -1.782E-01
   1   16    9     1     9    1.3195E+05 -3.5042E+03   1.3545E+05  0.000E+00  0.000E+00  0.000E+00  4.46154E+01  1.722E-01  2.000E+01  2.000E+04 -1.752E-01
   1   16   10     1    10    1.3545E+05 -3.3628E+03   1.3881E+05  0.000E+00  0.000E+00  0.000E+00  4.41407E+01  1.748E-01  2.000E+01  2.000E+04 -1.681E-01
   1   16   11     1    11    1.3881E+05 -3.1037E+03   1.4192E+05  0.000E+00  0.000E+00  0.000E+00  4.36659E+01  1.773E-01  2.000E+01  2.000E+04 -1.552E-01
   1   16   12     1    12    1.4192E+05 -2.9145E+03   1.4483E+05  0.000E+00  0.000E+00  0.000E+00  4.31909E+01  1.796E-01  2.000E+01  2.000E+04 -1.457E-01
   1   15   13     1    13    1.4483E+05 -1.9342E+03   1.4677E+05  0.000E+00  0.000E+00  0.000E+00  4.27155E+01  1.814E-01  2.000E+01  2.000E+04 -9.671E-02
   1   14   14     1    14    1.4677E+05 -1.4048E+03   1.4817E+05  0.000E+00  0.000E+00  0.000E+00  4.22394E+01  1.826E-01  2.000E+01  2.000E+04 -7.024E-02
   1   13   15     1    15    1.4817E+05 -1.9231E+03   1.5009E+05  0.000E+00  0.000E+00  0.000E+00  4.17634E+01  1.839E-01  2.000E+01  2.000E+04 -9.616E-02
   1   12   16     1    16    1.5009E+05 -4.6290E+03   1.5472E+05  0.000E+00  0.000E+00  0.000E+00  4.12885E+01  1.863E-01  2.000E+01  2.000E+04 -2.314E-01
   1   12   17     1    17    1.5472E+05 -2.1929E+03   1.5692E+05  0.000E+00  0.000E+00  0.000E+00  4.08138E+01  1.888E-01  2.000E+01  2.000E+04 -1.096E-01
   1   12   18     1    18    1.5692E+05 -2.1864E+03   1.5910E+05  0.000E+00  0.000E+00  0.000E+00  4.03381E+01  1.903E-01  2.000E+01  2.000E+04 -1.093E-01
   1   12   19     1    19    1.5910E+05 -3.8166E+03   1.6292E+05  0.000E+00  0.000E+00  0.000E+00  3.98630E+01  1.925E-01  2.000E+01  2.000E+04 -1.908E-01
   1   13   20     1    20    1.6292E+05 -1.0016E+03   1.6392E+05  0.000E+00  0.000E+00  0.000E+00  3.93874E+01  1.942E-01  2.000E+01  2.000E+04 -5.008E-02
   1   14   21     1    21    1.6392E+05  4.2622E+02   1.6349E+05  0.000E+00  0.000E+00  0.000E+00  3.89103E+01  1.944E-01  2.000E+01  2.000E+04  2.131E-02
   1   14   22     1    22    1.6349E+05  5.8990E+03   1.5759E+05  0.000E+00  0.000E+00  0.000E+00  3.84308E+01  1.922E-01  2.000E+01  2.000E+04  2.949E-01
   1    9   30     2     1    5.0000E+04 -2.6641E+03   5.2664E+04  0.000E+00  0.000E+00  0.000E+00  4.02427E+01  1.177E-01  2.000E+01  2.000E+04 -1.332E-01
   1    9   29     2     2    5.2664E+04 -2.9733E+03   5.5637E+04  0.000E+00  0.000E+00  0.000E+00  3.99965E+01  1.215E-01  2.000E+01  2.000E+04 -1.487E-01
   1    9   28     2     3    5.5637E+04 -3.3346E+03   5.8972E+04  0.000E+00  0.000E+00  0.000E+00  3.97507E+01  1.257E-01  2.000E+01  2.000E+04 -1.667E-01
   1    9   27     2     4    5.8972E+04 -6.1943E+03   6.5166E+04  0.000E+00  0.000E+00  0.000E+00  3.95069E+01  1.319E-01  2.000E+01  2.000E+04 -3.097E-01
   1   10   26     2     5    6.5166E+04 -3.0258E+03   6.8192E+04  0.000E+00  0.000E+00  0.000E+00  3.92627E+01  1.377E-01  2.000E+01  2.000E+04 -1.513E-01
   1   11   25     2     6    6.8192E+04 -2.0560E+02   6.8398E+04  0.000E+00  0.000E+00  0.000E+00  3.90147E+01  1.397E-01  2.000E+01  2.000E+04 -1.028E-02
   1   12   24     2     7    6.8398E+04  2.6293E+03   6.5768E+04  0.000E+00  0.000E+00  0.000E+00  3.87632E+01  1.382E-01  2.000E+01  2.000E+04  1.315E-01
   1   13   23     2     8    6.5768E+04  2.6861E+03   6.3082E+04  0.000E+00  0.000E+00  0.000E+00  3.85099E+01  1.349E-01  2.000E+01  2.000E+04  1.343E-01
   1   14   22     2     9    6.3082E+04  2.4163E+03   6.0666E+04  0.000E+00  0.000E+00  0.000E+00  3.82567E+01  1.317E-01  2.000E+01  2.000E+04  1.208E-01
   1   14   22     3     1    2.1826E+05 -7.7308E+03   2.2599E+05  0.000E+00  0.000E+00  0.000E+00  3.77493E+01  1.938E-01  2.000E+01  2.000E+04 -3.865E-01
   1   15   23     3     2    2.2599E+05  2.0730E+03   2.2392E+05  0.000E+00  0.000E+00  0.000E+00  3.68619E+01  1.952E-01  2.000E+01  2.000E+04  1.037E-01
   1   15   24     3     3    2.2392E+05  6.9712E+03   2.1695E+05  0.000E+00  0.000E+00  0.000E+00  3.59706E+01  1.929E-01  2.000E+01  2.000E+04  3.486E-01
   1   15   25     3     4    2.1695E+05  1.8509E+04   1.9844E+05  0.000E+00  0.000E+00  0.000E+00  3.50750E+01  1.861E-01  2.000E+01  2.000E+04  9.255E-01
   1   15   26     3     5    1.9844E+05  7.2735E+03   1.9116E+05  0.000E+00  0.000E+00  0.000E+00  3.41791E+01  1.791E-01  2.000E+01  2.000E+04  3.637E-01
   1   16   27     3     6    1.9116E+05  3.1448E+03   1.8802E+05  0.000E+00  0.000E+00  0.000E+00  3.32873E+01  1.762E-01  2.000E+01  2.000E+04  1.572E-01
   1   17   28     3     7    1.8802E+05 -3.8592E+02   1.8841E+05  0.000E+00  0.000E+00  0.000E+00  3.23976E+01  1.754E-01  2.000E+01  2.000E+04 -1.930E-02
   1   18   29     3     8    1.8841E+05 -4.0080E+03   1.9241E+05  0.000E+00  0.000E+00  0.000E+00  3.15100E+01  1.767E-01  2.000E+01  2.000E+04 -2.004E-01
   1   18   30     3     9    1.9241E+05 -4.2327E+03   1.9665E+05  0.000E+00  0.000E+00  0.000E+00  3.06234E+01  1.789E-01  2.000E+01  2.000E+04 -2.116E-01



1
              HEAD IN LAYER   1 AT END OF TIME STEP   1 IN STRESS PERIOD    6
  ---------------------------------------------------------------------------

          1      2      3      4      5      6      7      8      9     10
         11     12     13     14     15     16     17     18     19     20
         21     22     23     24     25     26     27     28     29     30
 .........................................................................
   1  ****** ****** ****** ****** ****** ****** ****** ****** ****** ******
      ****** ****** ****** ****** ****** ****** ****** ****** ****** ******
      ****** ****** ****** ****** ****** ****** ****** ****** ****** ******
   2  ****** ****** ****** ****** ****** ****** ****** ****** ****** ******
      ****** ****** ****** ****** ****** ****** ****** ****** ****** ******
      ****** ****** ****** ****** ****** ****** ****** ****** ****** ******
   3  ****** ****** ****** ****** ****** ****** ****** ****** ****** ******
      ****** ****** ****** ****** ****** ****** ****** ****** ****** ******
      ****** ****** ****** ****** ****** ****** ****** ****** ****** ******
   4  ****** ****** ****** ****** ****** ****** ****** ****** ****** ******
      ****** ****** ****** ****** ****** ****** ****** ****** ****** ******
      ****** ****** ****** ****** ****** ****** ****** ****** ****** ******
   5  ****** ****** ****** ****** ****** ****** ****** ****** ****** ******
      ****** ****** ****** ****** ****** ****** ****** ****** ****** ******
      ****** ****** ****** ****** ****** ****** ****** ****** ****** ******
   6  ****** ****** ****** ****** ****** ****** ****** ****** ****** ******
      ****** ****** ****** ****** ****** ****** ****** ****** ****** ******
      ****** ****** ****** ****** ****** ****** ****** ****** ****** ******
   7  ****** ****** ****** ****** ****** ****** ****** ****** ****** ******
      ****** ****** ****** ****** ****** ****** ****** ****** ****** ******
      ****** ****** ****** ****** ****** ****** ****** ****** ****** ******
   8  ****** ****** ****** ****** ****** ****** ****** ****** ****** ******
      ****** ****** ****** ****** ****** ****** ****** ****** ****** ******
      ****** ****** ****** ****** ****** ****** ****** ****** ****** ******
   9  ****** ****** ****** ****** ****** ****** ****** ****** ****** ******
      ****** ****** ****** ****** ****** ****** ****** ****** ****** ******
      ****** ****** ****** ****** ****** ****** ****** ****** ****** ******
  10  ****** ****** ****** ****** ****** ****** ****** ****** ****** ******
      ****** ****** ****** ****** ****** ****** ****** ****** ****** ******
      ****** ****** ****** ****** ****** ****** ****** ****** ****** ******
  11  ****** ****** ****** ****** ****** ****** ****** ****** ****** ******
      ****** ****** ****** ****** ****** ****** ****** ****** ****** ******
      ****** ****** ****** ****** ****** ****** ****** ****** ****** ******
  12  ****** ****** ****** ****** ****** ****** ****** ****** ****** ******
      ****** ****** ****** ****** ****** ****** ****** ****** ****** ******
      ****** ****** ****** ****** ****** ****** ****** ****** ****** ******
  13  ****** ****** ****** ****** ****** ****** ****** ****** ****** ******
      ****** ****** ****** ****** ****** ****** ****** ****** ****** ******
      ****** ****** ****** ****** ****** ****** ****** ****** ****** ******
  14  ****** ****** ****** ****** ****** ****** ****** ****** ****** ******
      ****** ****** ****** ****** ****** ****** ****** ****** ****** ******
      ****** ****** ****** ****** ****** ****** ****** ****** ****** ******
  15  ****** ****** ****** ****** ****** ****** ****** ****** ****** ******
      ****** ****** ****** ****** ****** ****** ****** ****** ****** ******
      ****** ****** ****** ****** ****** ****** ****** ****** ****** ******
  16  ****** ****** ****** ****** ****** ****** ****** ****** ****** ******
      ****** ****** ****** ****** ****** ****** ****** ****** ****** ******
      ****** ****** ****** ****** ****** ****** ****** ****** ****** ******
  17  ****** ****** ****** ****** ****** ****** ****** ****** ****** ******
      ****** ****** ****** ****** ****** ****** ****** ****** ****** ******
      ****** ****** ****** ****** ****** ****** ****** ****** ****** ******
  18  ****** ****** ****** ****** ****** ****** ****** ****** ****** ******
      ****** ****** ****** ****** ****** ****** ****** ****** ****** ******
      ****** ****** ****** ****** ****** ****** ****** ****** ****** ******
  19  ****** ****** ****** ****** ****** ****** ****** ****** ****** ******
      ****** ****** ****** ****** ****** ****** ****** ****** ****** ******
      ****** ****** ****** ****** ****** ****** ****** ****** ****** ******
  20  ****** ****** ****** ****** ****** ****** ****** ****** ****** ******
      ****** ****** ****** ****** ****** ****** ****** ****** ****** ******
      ****** ****** ****** ****** ****** ****** ****** ****** ****** ******
  21  ****** ****** ****** ****** ****** ****** ****** ****** ****** ******
      ****** ****** ****** ****** ****** ****** ****** ****** ****** ******
      ****** ****** ****** ****** ****** ****** ****** ****** ****** ******
  22  ****** ****** ****** ****** ****** ****** ****** ****** ****** ******
      ****** ****** ****** ****** ****** ****** ****** ****** ****** ******
      ****** ****** ****** ****** ****** ****** ****** ****** ****** ******
  23  ****** ****** ****** ****** ****** ****** ****** ****** ****** ******
      ****** ****** ****** ****** ****** ****** ****** ****** ****** ******
      ****** ****** ****** ****** ****** ****** ****** ****** ****** ******
  24  ****** ****** ****** ****** ****** ****** ****** ****** ****** ******
      ****** ****** ****** ****** ****** ****** ****** ****** ****** ******
      ****** ****** ****** ****** ****** ****** ****** ****** ****** ******
  25  ****** ****** ****** ****** ****** ****** ****** ****** ****** ******
      ****** ****** ****** ****** ****** ****** ****** ****** ****** ******
      ****** ****** ****** ****** ****** ****** ****** ****** ****** ******

 HEAD WILL BE SAVED ON UNIT   51 AT END OF TIME STEP    1, STRESS PERIOD    6
1
  VOLUMETRIC BUDGET FOR ENTIRE MODEL AT END OF TIME STEP    1, STRESS PERIOD   6
  ------------------------------------------------------------------------------

     CUMULATIVE VOLUMES      L**3       RATES FOR THIS TIME STEP      L**3/T
     ------------------                 ------------------------

           IN:                                      IN:
           ---                                      ---
             STORAGE =    22902658.4321               STORAGE =           0.0000
       CONSTANT HEAD =    60583372.8598         CONSTANT HEAD =      114036.3767
               WELLS =           0.0000                 WELLS =           0.0000
            RECHARGE =    15097200.0000              RECHARGE =       55200.0000
      STREAM LEAKAGE =    26797309.7894        STREAM LEAKAGE =       52028.3371

            TOTAL IN =   125380541.0813              TOTAL IN =      221264.7138

          OUT:                                     OUT:
          ----                                     ----
             STORAGE =      945568.3593               STORAGE =       10109.0619
       CONSTANT HEAD =           0.0000         CONSTANT HEAD =           0.0000
               WELLS =    61639415.2232                 WELLS =      112480.6847
            RECHARGE =           0.0000              RECHARGE =           0.0000
      STREAM LEAKAGE =    62795558.1212        STREAM LEAKAGE =       98674.9653

           TOTAL OUT =   125380541.7037             TOTAL OUT =      221264.7120

            IN - OUT =          -0.6225              IN - OUT =       1.8503E-03

 PERCENT DISCREPANCY =          -0.00     PERCENT DISCREPANCY =           0.00






         TIME SUMMARY AT END OF TIME STEP    1 IN STRESS PERIOD    6
                    SECONDS     MINUTES      HOURS       DAYS        YEARS
                    -----------------------------------------------------------
   TIME STEP LENGTH 7.86240E+06 1.31040E+05  2184.0      91.000     0.24914    
 STRESS PERIOD TIME 7.86240E+06 1.31040E+05  2184.0      91.000     0.24914    
         TOTAL TIME 4.73472E+07 7.89120E+05  13152.      548.00      1.5003    
1
1
                            STRESS PERIOD NO.    7, LENGTH =   91.00000    
                            -----------------------------------------------

                              NUMBER OF TIME STEPS =     1

                               MULTIPLIER FOR DELT =     1.500

                            INITIAL TIME STEP SIZE =   91.00000    

 WELL NO.  LAYER   ROW   COL   STRESS RATE         
 --------------------------------------------------
      1      1     17     25     -0.3250E+05
      2      1     16     17     -0.1643E+05
      3      1     14     25       0.000    

      3 WELLS

                 RECHARGE =   0.00000    

 REUSING STREAM SEGMENT DATA FROM LAST STRESS PERIOD
 
 SOLVING FOR HEAD 


     7 CALLS TO PCG ROUTINE FOR TIME STEP   1 IN STRESS PERIOD    7
    25 TOTAL ITERATIONS

 OUTPUT CONTROL FOR STRESS PERIOD    7   TIME STEP    1
    SAVE BUDGET
    SAVE HEAD FOR ALL LAYERS
    PRINT HEAD FOR ALL LAYERS
 UBDSV2 SAVING "STREAMFLOW OUT  " ON UNIT  50 AT TIME STEP  1, STRESS PERIOD   7



 STREAM LISTING     PERIOD      7   STEP        1

 LAYER ROW COL. STREAM  RCH.  FLOW INTO     FLOW TO   FLOW OUT OF   OVRLND.     DIRECT     STREAM       STREAM     STREAM     STREAM   STREAMBED  STREAMBED
                SEG.NO.  NO.  STRM. RCH.    AQUIFER    STRM. RCH.    RUNOFF     PRECIP       ET          HEAD       DEPTH      WIDTH   CONDCTNC.   GRADIENT

   1   13    1     1     1    1.0000E+05 -2.6946E+03   1.0269E+05  0.000E+00  0.000E+00  0.000E+00  4.84072E+01  1.458E-01  2.000E+01  2.000E+04 -1.347E-01
   1   13    2     1     2    1.0269E+05 -4.5853E+03   1.0728E+05  0.000E+00  0.000E+00  0.000E+00  4.79330E+01  1.489E-01  2.000E+01  2.000E+04 -2.293E-01
   1   14    3     1     3    1.0728E+05 -3.6234E+03   1.1090E+05  0.000E+00  0.000E+00  0.000E+00  4.74592E+01  1.524E-01  2.000E+01  2.000E+04 -1.812E-01
   1   15    4     1     4    1.1090E+05 -3.5189E+03   1.1442E+05  0.000E+00  0.000E+00  0.000E+00  4.69849E+01  1.554E-01  2.000E+01  2.000E+04 -1.759E-01
   1   16    5     1     5    1.1442E+05 -3.8438E+03   1.1827E+05  0.000E+00  0.000E+00  0.000E+00  4.65107E+01  1.584E-01  2.000E+01  2.000E+04 -1.922E-01
   1   16    6     1     6    1.1827E+05 -3.0320E+03   1.2130E+05  0.000E+00  0.000E+00  0.000E+00  4.60362E+01  1.612E-01  2.000E+01  2.000E+04 -1.516E-01
   1   16    7     1     7    1.2130E+05 -3.0832E+03   1.2438E+05  0.000E+00  0.000E+00  0.000E+00  4.55614E+01  1.637E-01  2.000E+01  2.000E+04 -1.542E-01
   1   16    8     1     8    1.2438E+05 -3.0968E+03   1.2748E+05  0.000E+00  0.000E+00  0.000E+00  4.50866E+01  1.661E-01  2.000E+01  2.000E+04 -1.548E-01
   1   16    9     1     9    1.2748E+05 -3.0544E+03   1.3053E+05  0.000E+00  0.000E+00  0.000E+00  4.46117E+01  1.685E-01  2.000E+01  2.000E+04 -1.527E-01
   1   16   10     1    10    1.3053E+05 -2.9472E+03   1.3348E+05  0.000E+00  0.000E+00  0.000E+00  4.41368E+01  1.709E-01  2.000E+01  2.000E+04 -1.474E-01
   1   16   11     1    11    1.3348E+05 -2.7591E+03   1.3624E+05  0.000E+00  0.000E+00  0.000E+00  4.36617E+01  1.731E-01  2.000E+01  2.000E+04 -1.380E-01
   1   16   12     1    12    1.3624E+05 -2.8684E+03   1.3911E+05  0.000E+00  0.000E+00  0.000E+00  4.31866E+01  1.752E-01  2.000E+01  2.000E+04 -1.434E-01
   1   15   13     1    13    1.3911E+05 -2.1263E+03   1.4123E+05  0.000E+00  0.000E+00  0.000E+00  4.27112E+01  1.771E-01  2.000E+01  2.000E+04 -1.063E-01
   1   14   14     1    14    1.4123E+05 -1.8393E+03   1.4307E+05  0.000E+00  0.000E+00  0.000E+00  4.22355E+01  1.786E-01  2.000E+01  2.000E+04 -9.196E-02
   1   13   15     1    15    1.4307E+05 -2.2969E+03   1.4537E+05  0.000E+00  0.000E+00  0.000E+00  4.17597E+01  1.802E-01  2.000E+01  2.000E+04 -1.148E-01
   1   12   16     1    16    1.4537E+05 -4.4641E+03   1.4983E+05  0.000E+00  0.000E+00  0.000E+00  4.12850E+01  1.827E-01  2.000E+01  2.000E+04 -2.232E-01
   1   12   17     1    17    1.4983E+05 -2.3558E+03   1.5219E+05  0.000E+00  0.000E+00  0.000E+00  4.08102E+01  1.852E-01  2.000E+01  2.000E+04 -1.178E-01
   1   12   18     1    18    1.5219E+05 -2.2933E+03   1.5448E+05  0.000E+00  0.000E+00  0.000E+00  4.03347E+01  1.869E-01  2.000E+01  2.000E+04 -1.147E-01
   1   12   19     1    19    1.5448E+05 -3.6325E+03   1.5812E+05  0.000E+00  0.000E+00  0.000E+00  3.98596E+01  1.891E-01  2.000E+01  2.000E+04 -1.816E-01
   1   13   20     1    20    1.5812E+05 -1.2441E+03   1.5936E+05  0.000E+00  0.000E+00  0.000E+00  3.93840E+01  1.909E-01  2.000E+01  2.000E+04 -6.220E-02
   1   14   21     1    21    1.5936E+05  6.1911E+01   1.5930E+05  0.000E+00  0.000E+00  0.000E+00  3.89072E+01  1.913E-01  2.000E+01  2.000E+04  3.096E-03
   1   14   22     1    22    1.5930E+05  5.3857E+03   1.5391E+05  0.000E+00  0.000E+00  0.000E+00  3.84280E+01  1.893E-01  2.000E+01  2.000E+04  2.693E-01
   1    9   30     2     1    5.0000E+04 -2.4881E+03   5.2488E+04  0.000E+00  0.000E+00  0.000E+00  4.02426E+01  1.176E-01  2.000E+01  2.000E+04 -1.244E-01
   1    9   29     2     2    5.2488E+04 -2.8231E+03   5.5311E+04  0.000E+00  0.000E+00  0.000E+00  3.99962E+01  1.212E-01  2.000E+01  2.000E+04 -1.412E-01
   1    9   28     2     3    5.5311E+04 -3.2134E+03   5.8525E+04  0.000E+00  0.000E+00  0.000E+00  3.97502E+01  1.252E-01  2.000E+01  2.000E+04 -1.607E-01
   1    9   27     2     4    5.8525E+04 -5.9154E+03   6.4440E+04  0.000E+00  0.000E+00  0.000E+00  3.95062E+01  1.312E-01  2.000E+01  2.000E+04 -2.958E-01
   1   10   26     2     5    6.4440E+04 -3.4108E+03   6.7851E+04  0.000E+00  0.000E+00  0.000E+00  3.92620E+01  1.370E-01  2.000E+01  2.000E+04 -1.705E-01
   1   11   25     2     6    6.7851E+04 -2.2635E+03   7.0114E+04  0.000E+00  0.000E+00  0.000E+00  3.90155E+01  1.405E-01  2.000E+01  2.000E+04 -1.132E-01
   1   12   24     2     7    7.0114E+04 -1.3730E+03   7.1487E+04  0.000E+00  0.000E+00  0.000E+00  3.87678E+01  1.428E-01  2.000E+01  2.000E+04 -6.865E-02
   1   13   23     2     8    7.1487E+04 -6.7196E+02   7.2159E+04  0.000E+00  0.000E+00  0.000E+00  3.85190E+01  1.440E-01  2.000E+01  2.000E+04 -3.360E-02
   1   14   22     2     9    7.2159E+04  2.1880E+03   6.9971E+04  0.000E+00  0.000E+00  0.000E+00  3.82681E+01  1.431E-01  2.000E+01  2.000E+04  1.094E-01
   1   14   22     3     1    2.2388E+05 -8.1266E+03   2.3201E+05  0.000E+00  0.000E+00  0.000E+00  3.77523E+01  1.968E-01  2.000E+01  2.000E+04 -4.063E-01
   1   15   23     3     2    2.3201E+05  7.4307E+02   2.3127E+05  0.000E+00  0.000E+00  0.000E+00  3.68654E+01  1.987E-01  2.000E+01  2.000E+04  3.715E-02
   1   15   24     3     3    2.3127E+05  2.0910E+03   2.2918E+05  0.000E+00  0.000E+00  0.000E+00  3.59757E+01  1.980E-01  2.000E+01  2.000E+04  1.045E-01
   1   15   25     3     4    2.2918E+05  3.7925E+03   2.2538E+05  0.000E+00  0.000E+00  0.000E+00  3.50853E+01  1.964E-01  2.000E+01  2.000E+04  1.896E-01
   1   15   26     3     5    2.2538E+05  1.2969E+03   2.2409E+05  0.000E+00  0.000E+00  0.000E+00  3.41951E+01  1.951E-01  2.000E+01  2.000E+04  6.484E-02
   1   16   27     3     6    2.2409E+05  2.2051E+03   2.2188E+05  0.000E+00  0.000E+00  0.000E+00  3.33053E+01  1.942E-01  2.000E+01  2.000E+04  1.103E-01
   1   17   28     3     7    2.2188E+05 -4.4997E+02   2.2233E+05  0.000E+00  0.000E+00  0.000E+00  3.24160E+01  1.937E-01  2.000E+01  2.000E+04 -2.250E-02
   1   18   29     3     8    2.2233E+05 -3.7158E+03   2.2605E+05  0.000E+00  0.000E+00  0.000E+00  3.15282E+01  1.948E-01  2.000E+01  2.000E+04 -1.858E-01
   1   18   30     3     9    2.2605E+05 -4.0128E+03   2.3006E+05  0.000E+00  0.000E+00  0.000E+00  3.06413E+01  1.968E-01  2.000E+01  2.000E+04 -2.006E-01



1
              HEAD IN LAYER   1 AT END OF TIME STEP   1 IN STRESS PERIOD    7
  ---------------------------------------------------------------------------

          1      2      3      4      5      6      7      8      9     10
         11     12     13     14     15     16     17     18     19     20
         21     22     23     24     25     26     27     28     29     30
 .........................................................................
   1  ****** ****** ****** ****** ****** ****** ****** ****** ****** ******
      ****** ****** ****** ****** ****** ****** ****** ****** ****** ******
      ****** ****** ****** ****** ****** ****** ****** ****** ****** ******
   2  ****** ****** ****** ****** ****** ****** ****** ****** ****** ******
      ****** ****** ****** ****** ****** ****** ****** ****** ****** ******
      ****** ****** ****** ****** ****** ****** ****** ****** ****** ******
   3  ****** ****** ****** ****** ****** ****** ****** ****** ****** ******
      ****** ****** ****** ****** ****** ****** ****** ****** ****** ******
      ****** ****** ****** ****** ****** ****** ****** ****** ****** ******
   4  ****** ****** ****** ****** ****** ****** ****** ****** ****** ******
      ****** ****** ****** ****** ****** ****** ****** ****** ****** ******
      ****** ****** ****** ****** ****** ****** ****** ****** ****** ******
   5  ****** ****** ****** ****** ****** ****** ****** ****** ****** ******
      ****** ****** ****** ****** ****** ****** ****** ****** ****** ******
      ****** ****** ****** ****** ****** ****** ****** ****** ****** ******
   6  ****** ****** ****** ****** ****** ****** ****** ****** ****** ******
      ****** ****** ****** ****** ****** ****** ****** ****** ****** ******
      ****** ****** ****** ****** ****** ****** ****** ****** ****** ******
   7  ****** ****** ****** ****** ****** ****** ****** ****** ****** ******
      ****** ****** ****** ****** ****** ****** ****** ****** ****** ******
      ****** ****** ****** ****** ****** ****** ****** ****** ****** ******
   8  ****** ****** ****** ****** ****** ****** ****** ****** ****** ******
      ****** ****** ****** ****** ****** ****** ****** ****** ****** ******
      ****** ****** ****** ****** ****** ****** ****** ****** ****** ******
   9  ****** ****** ****** ****** ****** ****** ****** ****** ****** ******
      ****** ****** ****** ****** ****** ****** ****** ****** ****** ******
      ****** ****** ****** ****** ****** ****** ****** ****** ****** ******
  10  ****** ****** ****** ****** ****** ****** ****** ****** ****** ******
      ****** ****** ****** ****** ****** ****** ****** ****** ****** ******
      ****** ****** ****** ****** ****** ****** ****** ****** ****** ******
  11  ****** ****** ****** ****** ****** ****** ****** ****** ****** ******
      ****** ****** ****** ****** ****** ****** ****** ****** ****** ******
      ****** ****** ****** ****** ****** ****** ****** ****** ****** ******
  12  ****** ****** ****** ****** ****** ****** ****** ****** ****** ******
      ****** ****** ****** ****** ****** ****** ****** ****** ****** ******
      ****** ****** ****** ****** ****** ****** ****** ****** ****** ******
  13  ****** ****** ****** ****** ****** ****** ****** ****** ****** ******
      ****** ****** ****** ****** ****** ****** ****** ****** ****** ******
      ****** ****** ****** ****** ****** ****** ****** ****** ****** ******
  14  ****** ****** ****** ****** ****** ****** ****** ****** ****** ******
      ****** ****** ****** ****** ****** ****** ****** ****** ****** ******
      ****** ****** ****** ****** ****** ****** ****** ****** ****** ******
  15  ****** ****** ****** ****** ****** ****** ****** ****** ****** ******
      ****** ****** ****** ****** ****** ****** ****** ****** ****** ******
      ****** ****** ****** ****** ****** ****** ****** ****** ****** ******
  16  ****** ****** ****** ****** ****** ****** ****** ****** ****** ******
      ****** ****** ****** ****** ****** ****** ****** ****** ****** ******
      ****** ****** ****** ****** ****** ****** ****** ****** ****** ******
  17  ****** ****** ****** ****** ****** ****** ****** ****** ****** ******
      ****** ****** ****** ****** ****** ****** ****** ****** ****** ******
      ****** ****** ****** ****** ****** ****** ****** ****** ****** ******
  18  ****** ****** ****** ****** ****** ****** ****** ****** ****** ******
      ****** ****** ****** ****** ****** ****** ****** ****** ****** ******
      ****** ****** ****** ****** ****** ****** ****** ****** ****** ******
  19  ****** ****** ****** ****** ****** ****** ****** ****** ****** ******
      ****** ****** ****** ****** ****** ****** ****** ****** ****** ******
      ****** ****** ****** ****** ****** ****** ****** ****** ****** ******
  20  ****** ****** ****** ****** ****** ****** ****** ****** ****** ******
      ****** ****** ****** ****** ****** ****** ****** ****** ****** ******
      ****** ****** ****** ****** ****** ****** ****** ****** ****** ******
  21  ****** ****** ****** ****** ****** ****** ****** ****** ****** ******
      ****** ****** ****** ****** ****** ****** ****** ****** ****** ******
      ****** ****** ****** ****** ****** ****** ****** ****** ****** ******
  22  ****** ****** ****** ****** ****** ****** ****** ****** ****** ******
      ****** ****** ****** ****** ****** ****** ****** ****** ****** ******
      ****** ****** ****** ****** ****** ****** ****** ****** ****** ******
  23  ****** ****** ****** ****** ****** ****** ****** ****** ****** ******
      ****** ****** ****** ****** ****** ****** ****** ****** ****** ******
      ****** ****** ****** ****** ****** ****** ****** ****** ****** ******
  24  ****** ****** ****** ****** ****** ****** ****** ****** ****** ******
      ****** ****** ****** ****** ****** ****** ****** ****** ****** ******
      ****** ****** ****** ****** ****** ****** ****** ****** ****** ******
  25  ****** ****** ****** ****** ****** ****** ****** ****** ****** ******
      ****** ****** ****** ****** ****** ****** ****** ****** ****** ******
      ****** ****** ****** ****** ****** ****** ****** ****** ****** ******

 HEAD WILL BE SAVED ON UNIT   51 AT END OF TIME STEP    1, STRESS PERIOD    7
1
  VOLUMETRIC BUDGET FOR ENTIRE MODEL AT END OF TIME STEP    1, STRESS PERIOD   7
  ------------------------------------------------------------------------------

     CUMULATIVE VOLUMES      L**3       RATES FOR THIS TIME STEP      L**3/T
     ------------------                 ------------------------

           IN:                                      IN:
           ---                                      ---
             STORAGE =    23727266.8736               STORAGE =        9061.6312
       CONSTANT HEAD =    71986049.8746         CONSTANT HEAD =      125304.1430
               WELLS =           0.0000                 WELLS =           0.0000
            RECHARGE =    15097200.0000              RECHARGE =           0.0000
      STREAM LEAKAGE =    28413852.4962        STREAM LEAKAGE =       17764.2056

            TOTAL IN =   139224369.2444              TOTAL IN =      152129.9798

          OUT:                                     OUT:
          ----                                     ----
             STORAGE =     1435120.1495               STORAGE =        5379.6900
       CONSTANT HEAD =           0.0000         CONSTANT HEAD =           0.0000
               WELLS =    66091743.7208                 WELLS =       48926.6868
            RECHARGE =           0.0000              RECHARGE =           0.0000
      STREAM LEAKAGE =    71697506.1612        STREAM LEAKAGE =       97823.6048

           TOTAL OUT =   139224370.0316             TOTAL OUT =      152129.9816

            IN - OUT =          -0.7872              IN - OUT =      -1.8097E-03

 PERCENT DISCREPANCY =          -0.00     PERCENT DISCREPANCY =          -0.00






         TIME SUMMARY AT END OF TIME STEP    1 IN STRESS PERIOD    7
                    SECONDS     MINUTES      HOURS       DAYS        YEARS
                    -----------------------------------------------------------
   TIME STEP LENGTH 7.86240E+06 1.31040E+05  2184.0      91.000     0.24914    
 STRESS PERIOD TIME 7.86240E+06 1.31040E+05  2184.0      91.000     0.24914    
         TOTAL TIME 5.52096E+07 9.20160E+05  15336.      639.00      1.7495    
1
1
                            STRESS PERIOD NO.    8, LENGTH =   91.00000    
                            -----------------------------------------------

                              NUMBER OF TIME STEPS =     1

                               MULTIPLIER FOR DELT =     1.500

                            INITIAL TIME STEP SIZE =   91.00000    

 WELL NO.  LAYER   ROW   COL   STRESS RATE         
 --------------------------------------------------
      1      1     17     25     -0.3250E+05
      2      1     16     17     -0.1643E+05
      3      1     14     25       0.000    

      3 WELLS

                 RECHARGE =  1.000000E-03

 REUSING STREAM SEGMENT DATA FROM LAST STRESS PERIOD
 
 SOLVING FOR HEAD 


     6 CALLS TO PCG ROUTINE FOR TIME STEP   1 IN STRESS PERIOD    8
    23 TOTAL ITERATIONS

 OUTPUT CONTROL FOR STRESS PERIOD    8   TIME STEP    1
    SAVE BUDGET
    SAVE HEAD FOR ALL LAYERS
    PRINT HEAD FOR ALL LAYERS
 UBDSV2 SAVING "STREAMFLOW OUT  " ON UNIT  50 AT TIME STEP  1, STRESS PERIOD   8



 STREAM LISTING     PERIOD      8   STEP        1

 LAYER ROW COL. STREAM  RCH.  FLOW INTO     FLOW TO   FLOW OUT OF   OVRLND.     DIRECT     STREAM       STREAM     STREAM     STREAM   STREAMBED  STREAMBED
                SEG.NO.  NO.  STRM. RCH.    AQUIFER    STRM. RCH.    RUNOFF     PRECIP       ET          HEAD       DEPTH      WIDTH   CONDCTNC.   GRADIENT

   1   13    1     1     1    1.0000E+05 -2.8652E+03   1.0287E+05  0.000E+00  0.000E+00  0.000E+00  4.84073E+01  1.459E-01  2.000E+01  2.000E+04 -1.433E-01
   1   13    2     1     2    1.0287E+05 -4.7980E+03   1.0766E+05  0.000E+00  0.000E+00  0.000E+00  4.79333E+01  1.492E-01  2.000E+01  2.000E+04 -2.399E-01
   1   14    3     1     3    1.0766E+05 -3.8603E+03   1.1152E+05  0.000E+00  0.000E+00  0.000E+00  4.74596E+01  1.528E-01  2.000E+01  2.000E+04 -1.930E-01
   1   15    4     1     4    1.1152E+05 -3.7604E+03   1.1528E+05  0.000E+00  0.000E+00  0.000E+00  4.69855E+01  1.560E-01  2.000E+01  2.000E+04 -1.880E-01
   1   16    5     1     5    1.1528E+05 -4.0732E+03   1.1936E+05  0.000E+00  0.000E+00  0.000E+00  4.65115E+01  1.592E-01  2.000E+01  2.000E+04 -2.037E-01
   1   16    6     1     6    1.1936E+05 -3.2161E+03   1.2257E+05  0.000E+00  0.000E+00  0.000E+00  4.60372E+01  1.622E-01  2.000E+01  2.000E+04 -1.608E-01
   1   16    7     1     7    1.2257E+05 -3.2725E+03   1.2585E+05  0.000E+00  0.000E+00  0.000E+00  4.55625E+01  1.647E-01  2.000E+01  2.000E+04 -1.636E-01
   1   16    8     1     8    1.2585E+05 -3.2925E+03   1.2914E+05  0.000E+00  0.000E+00  0.000E+00  4.50878E+01  1.673E-01  2.000E+01  2.000E+04 -1.646E-01
   1   16    9     1     9    1.2914E+05 -3.2583E+03   1.3240E+05  0.000E+00  0.000E+00  0.000E+00  4.46131E+01  1.699E-01  2.000E+01  2.000E+04 -1.629E-01
   1   16   10     1    10    1.3240E+05 -3.1629E+03   1.3556E+05  0.000E+00  0.000E+00  0.000E+00  4.41383E+01  1.724E-01  2.000E+01  2.000E+04 -1.581E-01
   1   16   11     1    11    1.3556E+05 -2.9967E+03   1.3856E+05  0.000E+00  0.000E+00  0.000E+00  4.36634E+01  1.748E-01  2.000E+01  2.000E+04 -1.498E-01
   1   16   12     1    12    1.3856E+05 -3.2821E+03   1.4184E+05  0.000E+00  0.000E+00  0.000E+00  4.31885E+01  1.772E-01  2.000E+01  2.000E+04 -1.641E-01
   1   15   13     1    13    1.4184E+05 -2.5902E+03   1.4443E+05  0.000E+00  0.000E+00  0.000E+00  4.27135E+01  1.794E-01  2.000E+01  2.000E+04 -1.295E-01
   1   14   14     1    14    1.4443E+05 -2.3289E+03   1.4676E+05  0.000E+00  0.000E+00  0.000E+00  4.22380E+01  1.812E-01  2.000E+01  2.000E+04 -1.164E-01
   1   13   15     1    15    1.4676E+05 -2.7520E+03   1.4951E+05  0.000E+00  0.000E+00  0.000E+00  4.17627E+01  1.831E-01  2.000E+01  2.000E+04 -1.376E-01
   1   12   16     1    16    1.4951E+05 -4.7794E+03   1.5429E+05  0.000E+00  0.000E+00  0.000E+00  4.12882E+01  1.859E-01  2.000E+01  2.000E+04 -2.390E-01
   1   12   17     1    17    1.5429E+05 -2.6594E+03   1.5695E+05  0.000E+00  0.000E+00  0.000E+00  4.08136E+01  1.886E-01  2.000E+01  2.000E+04 -1.330E-01
   1   12   18     1    18    1.5695E+05 -2.5926E+03   1.5954E+05  0.000E+00  0.000E+00  0.000E+00  4.03382E+01  1.905E-01  2.000E+01  2.000E+04 -1.296E-01
   1   12   19     1    19    1.5954E+05 -3.9364E+03   1.6348E+05  0.000E+00  0.000E+00  0.000E+00  3.98633E+01  1.929E-01  2.000E+01  2.000E+04 -1.968E-01
   1   13   20     1    20    1.6348E+05 -1.6637E+03   1.6514E+05  0.000E+00  0.000E+00  0.000E+00  3.93880E+01  1.949E-01  2.000E+01  2.000E+04 -8.319E-02
   1   14   21     1    21    1.6514E+05 -3.8196E+02   1.6552E+05  0.000E+00  0.000E+00  0.000E+00  3.89115E+01  1.956E-01  2.000E+01  2.000E+04 -1.910E-02
   1   14   22     1    22    1.6552E+05  5.2867E+03   1.6024E+05  0.000E+00  0.000E+00  0.000E+00  3.84325E+01  1.938E-01  2.000E+01  2.000E+04  2.643E-01
   1    9   30     2     1    5.0000E+04 -2.7508E+03   5.2751E+04  0.000E+00  0.000E+00  0.000E+00  4.02428E+01  1.178E-01  2.000E+01  2.000E+04 -1.375E-01
   1    9   29     2     2    5.2751E+04 -3.0839E+03   5.5835E+04  0.000E+00  0.000E+00  0.000E+00  3.99967E+01  1.217E-01  2.000E+01  2.000E+04 -1.542E-01
   1    9   28     2     3    5.5835E+04 -3.4677E+03   5.9302E+04  0.000E+00  0.000E+00  0.000E+00  3.97511E+01  1.261E-01  2.000E+01  2.000E+04 -1.734E-01
   1    9   27     2     4    5.9302E+04 -6.2001E+03   6.5502E+04  0.000E+00  0.000E+00  0.000E+00  3.95073E+01  1.323E-01  2.000E+01  2.000E+04 -3.100E-01
   1   10   26     2     5    6.5502E+04 -3.8101E+03   6.9313E+04  0.000E+00  0.000E+00  0.000E+00  3.92636E+01  1.386E-01  2.000E+01  2.000E+04 -1.905E-01
   1   11   25     2     6    6.9313E+04 -2.7537E+03   7.2066E+04  0.000E+00  0.000E+00  0.000E+00  3.90176E+01  1.426E-01  2.000E+01  2.000E+04 -1.377E-01
   1   12   24     2     7    7.2066E+04 -1.8997E+03   7.3966E+04  0.000E+00  0.000E+00  0.000E+00  3.87704E+01  1.454E-01  2.000E+01  2.000E+04 -9.498E-02
   1   13   23     2     8    7.3966E+04 -1.0701E+03   7.5036E+04  0.000E+00  0.000E+00  0.000E+00  3.85222E+01  1.472E-01  2.000E+01  2.000E+04 -5.351E-02
   1   14   22     2     9    7.5036E+04  2.0691E+03   7.2967E+04  0.000E+00  0.000E+00  0.000E+00  3.82716E+01  1.466E-01  2.000E+01  2.000E+04  1.035E-01
   1   14   22     3     1    2.3320E+05 -8.2197E+03   2.4142E+05  0.000E+00  0.000E+00  0.000E+00  3.77572E+01  2.016E-01  2.000E+01  2.000E+04 -4.110E-01
   1   15   23     3     2    2.4142E+05  3.1287E+02   2.4111E+05  0.000E+00  0.000E+00  0.000E+00  3.68703E+01  2.036E-01  2.000E+01  2.000E+04  1.564E-02
   1   15   24     3     3    2.4111E+05  1.6590E+03   2.3945E+05  0.000E+00  0.000E+00  0.000E+00  3.59809E+01  2.031E-01  2.000E+01  2.000E+04  8.295E-02
   1   15   25     3     4    2.3945E+05  3.2018E+03   2.3625E+05  0.000E+00  0.000E+00  0.000E+00  3.50908E+01  2.019E-01  2.000E+01  2.000E+04  1.601E-01
   1   15   26     3     5    2.3625E+05  6.5860E+02   2.3559E+05  0.000E+00  0.000E+00  0.000E+00  3.42009E+01  2.009E-01  2.000E+01  2.000E+04  3.293E-02
   1   16   27     3     6    2.3559E+05  1.7175E+03   2.3387E+05  0.000E+00  0.000E+00  0.000E+00  3.33114E+01  2.003E-01  2.000E+01  2.000E+04  8.588E-02
   1   17   28     3     7    2.3387E+05 -8.5600E+02   2.3473E+05  0.000E+00  0.000E+00  0.000E+00  3.24223E+01  2.001E-01  2.000E+01  2.000E+04 -4.280E-02
   1   18   29     3     8    2.3473E+05 -4.0272E+03   2.3876E+05  0.000E+00  0.000E+00  0.000E+00  3.15346E+01  2.013E-01  2.000E+01  2.000E+04 -2.014E-01
   1   18   30     3     9    2.3876E+05 -4.2583E+03   2.4301E+05  0.000E+00  0.000E+00  0.000E+00  3.06479E+01  2.034E-01  2.000E+01  2.000E+04 -2.129E-01



1
              HEAD IN LAYER   1 AT END OF TIME STEP   1 IN STRESS PERIOD    8
  ---------------------------------------------------------------------------

          1      2      3      4      5      6      7      8      9     10
         11     12     13     14     15     16     17     18     19     20
         21     22     23     24     25     26     27     28     29     30
 .........................................................................
   1  ****** ****** ****** ****** ****** ****** ****** ****** ****** ******
      ****** ****** ****** ****** ****** ****** ****** ****** ****** ******
      ****** ****** ****** ****** ****** ****** ****** ****** ****** ******
   2  ****** ****** ****** ****** ****** ****** ****** ****** ****** ******
      ****** ****** ****** ****** ****** ****** ****** ****** ****** ******
      ****** ****** ****** ****** ****** ****** ****** ****** ****** ******
   3  ****** ****** ****** ****** ****** ****** ****** ****** ****** ******
      ****** ****** ****** ****** ****** ****** ****** ****** ****** ******
      ****** ****** ****** ****** ****** ****** ****** ****** ****** ******
   4  ****** ****** ****** ****** ****** ****** ****** ****** ****** ******
      ****** ****** ****** ****** ****** ****** ****** ****** ****** ******
      ****** ****** ****** ****** ****** ****** ****** ****** ****** ******
   5  ****** ****** ****** ****** ****** ****** ****** ****** ****** ******
      ****** ****** ****** ****** ****** ****** ****** ****** ****** ******
      ****** ****** ****** ****** ****** ****** ****** ****** ****** ******
   6  ****** ****** ****** ****** ****** ****** ****** ****** ****** ******
      ****** ****** ****** ****** ****** ****** ****** ****** ****** ******
      ****** ****** ****** ****** ****** ****** ****** ****** ****** ******
   7  ****** ****** ****** ****** ****** ****** ****** ****** ****** ******
      ****** ****** ****** ****** ****** ****** ****** ****** ****** ******
      ****** ****** ****** ****** ****** ****** ****** ****** ****** ******
   8  ****** ****** ****** ****** ****** ****** ****** ****** ****** ******
      ****** ****** ****** ****** ****** ****** ****** ****** ****** ******
      ****** ****** ****** ****** ****** ****** ****** ****** ****** ******
   9  ****** ****** ****** ****** ****** ****** ****** ****** ****** ******
      ****** ****** ****** ****** ****** ****** ****** ****** ****** ******
      ****** ****** ****** ****** ****** ****** ****** ****** ****** ******
  10  ****** ****** ****** ****** ****** ****** ****** ****** ****** ******
      ****** ****** ****** ****** ****** ****** ****** ****** ****** ******
      ****** ****** ****** ****** ****** ****** ****** ****** ****** ******
  11  ****** ****** ****** ****** ****** ****** ****** ****** ****** ******
      ****** ****** ****** ****** ****** ****** ****** ****** ****** ******
      ****** ****** ****** ****** ****** ****** ****** ****** ****** ******
  12  ****** ****** ****** ****** ****** ****** ****** ****** ****** ******
      ****** ****** ****** ****** ****** ****** ****** ****** ****** ******
      ****** ****** ****** ****** ****** ****** ****** ****** ****** ******
  13  ****** ****** ****** ****** ****** ****** ****** ****** ****** ******
      ****** ****** ****** ****** ****** ****** ****** ****** ****** ******
      ****** ****** ****** ****** ****** ****** ****** ****** ****** ******
  14  ****** ****** ****** ****** ****** ****** ****** ****** ****** ******
      ****** ****** ****** ****** ****** ****** ****** ****** ****** ******
      ****** ****** ****** ****** ****** ****** ****** ****** ****** ******
  15  ****** ****** ****** ****** ****** ****** ****** ****** ****** ******
      ****** ****** ****** ****** ****** ****** ****** ****** ****** ******
      ****** ****** ****** ****** ****** ****** ****** ****** ****** ******
  16  ****** ****** ****** ****** ****** ****** ****** ****** ****** ******
      ****** ****** ****** ****** ****** ****** ****** ****** ****** ******
      ****** ****** ****** ****** ****** ****** ****** ****** ****** ******
  17  ****** ****** ****** ****** ****** ****** ****** ****** ****** ******
      ****** ****** ****** ****** ****** ****** ****** ****** ****** ******
      ****** ****** ****** ****** ****** ****** ****** ****** ****** ******
  18  ****** ****** ****** ****** ****** ****** ****** ****** ****** ******
      ****** ****** ****** ****** ****** ****** ****** ****** ****** ******
      ****** ****** ****** ****** ****** ****** ****** ****** ****** ******
  19  ****** ****** ****** ****** ****** ****** ****** ****** ****** ******
      ****** ****** ****** ****** ****** ****** ****** ****** ****** ******
      ****** ****** ****** ****** ****** ****** ****** ****** ****** ******
  20  ****** ****** ****** ****** ****** ****** ****** ****** ****** ******
      ****** ****** ****** ****** ****** ****** ****** ****** ****** ******
      ****** ****** ****** ****** ****** ****** ****** ****** ****** ******
  21  ****** ****** ****** ****** ****** ****** ****** ****** ****** ******
      ****** ****** ****** ****** ****** ****** ****** ****** ****** ******
      ****** ****** ****** ****** ****** ****** ****** ****** ****** ******
  22  ****** ****** ****** ****** ****** ****** ****** ****** ****** ******
      ****** ****** ****** ****** ****** ****** ****** ****** ****** ******
      ****** ****** ****** ****** ****** ****** ****** ****** ****** ******
  23  ****** ****** ****** ****** ****** ****** ****** ****** ****** ******
      ****** ****** ****** ****** ****** ****** ****** ****** ****** ******
      ****** ****** ****** ****** ****** ****** ****** ****** ****** ******
  24  ****** ****** ****** ****** ****** ****** ****** ****** ****** ******
      ****** ****** ****** ****** ****** ****** ****** ****** ****** ******
      ****** ****** ****** ****** ****** ****** ****** ****** ****** ******
  25  ****** ****** ****** ****** ****** ****** ****** ****** ****** ******
      ****** ****** ****** ****** ****** ****** ****** ****** ****** ******
      ****** ****** ****** ****** ****** ****** ****** ****** ****** ******

 HEAD WILL BE SAVED ON UNIT   51 AT END OF TIME STEP    1, STRESS PERIOD    8
1
  VOLUMETRIC BUDGET FOR ENTIRE MODEL AT END OF TIME STEP    1, STRESS PERIOD   8
  ------------------------------------------------------------------------------

     CUMULATIVE VOLUMES      L**3       RATES FOR THIS TIME STEP      L**3/T
     ------------------                 ------------------------

           IN:                                      IN:
           ---                                      ---
             STORAGE =    23727266.8736               STORAGE =           0.0000
       CONSTANT HEAD =    82900433.4177         CONSTANT HEAD =      119938.2807
               WELLS =           0.0000                 WELLS =           0.0000
            RECHARGE =    17608800.0000              RECHARGE =       27600.0000
      STREAM LEAKAGE =    29770263.9081        STREAM LEAKAGE =       14905.6199

            TOTAL IN =   154006764.1994              TOTAL IN =      162443.9006

          OUT:                                     OUT:
          ----                                     ----
             STORAGE =     1944471.9817               STORAGE =        5597.2729
       CONSTANT HEAD =           0.0000         CONSTANT HEAD =           0.0000
               WELLS =    70544072.2185                 WELLS =       48926.6868
            RECHARGE =           0.0000              RECHARGE =           0.0000
      STREAM LEAKAGE =    81518220.6965        STREAM LEAKAGE =      107919.9399

           TOTAL OUT =   154006764.8966             TOTAL OUT =      162443.8996

            IN - OUT =          -0.6972              IN - OUT =       9.8869E-04

 PERCENT DISCREPANCY =          -0.00     PERCENT DISCREPANCY =           0.00






         TIME SUMMARY AT END OF TIME STEP    1 IN STRESS PERIOD    8
                    SECONDS     MINUTES      HOURS       DAYS        YEARS
                    -----------------------------------------------------------
   TIME STEP LENGTH 7.86240E+06 1.31040E+05  2184.0      91.000     0.24914    
 STRESS PERIOD TIME 7.86240E+06 1.31040E+05  2184.0      91.000     0.24914    
         TOTAL TIME 6.30720E+07 1.05120E+06  17520.      730.00      1.9986    
1
1
                            STRESS PERIOD NO.    9, LENGTH =   92.00000    
                            -----------------------------------------------

                              NUMBER OF TIME STEPS =     1

                               MULTIPLIER FOR DELT =     1.500

                            INITIAL TIME STEP SIZE =   92.00000    

 WELL NO.  LAYER   ROW   COL   STRESS RATE         
 --------------------------------------------------
      1      1     17     25     -0.3250E+05
      2      1     16     17     -0.1643E+05
      3      1     14     25       0.000    

      3 WELLS

                 RECHARGE =  5.000000E-04

 REUSING STREAM SEGMENT DATA FROM LAST STRESS PERIOD
 
 SOLVING FOR HEAD 


     6 CALLS TO PCG ROUTINE FOR TIME STEP   1 IN STRESS PERIOD    9
    22 TOTAL ITERATIONS

 OUTPUT CONTROL FOR STRESS PERIOD    9   TIME STEP    1
    SAVE BUDGET
    SAVE HEAD FOR ALL LAYERS
    PRINT HEAD FOR ALL LAYERS
 UBDSV2 SAVING "STREAMFLOW OUT  " ON UNIT  50 AT TIME STEP  1, STRESS PERIOD   9



 STREAM LISTING     PERIOD      9   STEP        1

 LAYER ROW COL. STREAM  RCH.  FLOW INTO     FLOW TO   FLOW OUT OF   OVRLND.     DIRECT     STREAM       STREAM     STREAM     STREAM   STREAMBED  STREAMBED
                SEG.NO.  NO.  STRM. RCH.    AQUIFER    STRM. RCH.    RUNOFF     PRECIP       ET          HEAD       DEPTH      WIDTH   CONDCTNC.   GRADIENT

   1   13    1     1     1    1.0000E+05 -2.7505E+03   1.0275E+05  0.000E+00  0.000E+00  0.000E+00  4.84072E+01  1.458E-01  2.000E+01  2.000E+04 -1.375E-01
   1   13    2     1     2    1.0275E+05 -4.6469E+03   1.0740E+05  0.000E+00  0.000E+00  0.000E+00  4.79331E+01  1.490E-01  2.000E+01  2.000E+04 -2.323E-01
   1   14    3     1     3    1.0740E+05 -3.7077E+03   1.1111E+05  0.000E+00  0.000E+00  0.000E+00  4.74594E+01  1.525E-01  2.000E+01  2.000E+04 -1.854E-01
   1   15    4     1     4    1.1111E+05 -3.6113E+03   1.1472E+05  0.000E+00  0.000E+00  0.000E+00  4.69851E+01  1.556E-01  2.000E+01  2.000E+04 -1.806E-01
   1   16    5     1     5    1.1472E+05 -3.9410E+03   1.1866E+05  0.000E+00  0.000E+00  0.000E+00  4.65110E+01  1.587E-01  2.000E+01  2.000E+04 -1.971E-01
   1   16    6     1     6    1.1866E+05 -3.1106E+03   1.2177E+05  0.000E+00  0.000E+00  0.000E+00  4.60365E+01  1.615E-01  2.000E+01  2.000E+04 -1.555E-01
   1   16    7     1     7    1.2177E+05 -3.1665E+03   1.2493E+05  0.000E+00  0.000E+00  0.000E+00  4.55618E+01  1.641E-01  2.000E+01  2.000E+04 -1.583E-01
   1   16    8     1     8    1.2493E+05 -3.1875E+03   1.2812E+05  0.000E+00  0.000E+00  0.000E+00  4.50870E+01  1.666E-01  2.000E+01  2.000E+04 -1.594E-01
   1   16    9     1     9    1.2812E+05 -3.1562E+03   1.3128E+05  0.000E+00  0.000E+00  0.000E+00  4.46123E+01  1.691E-01  2.000E+01  2.000E+04 -1.578E-01
   1   16   10     1    10    1.3128E+05 -3.0660E+03   1.3434E+05  0.000E+00  0.000E+00  0.000E+00  4.41374E+01  1.715E-01  2.000E+01  2.000E+04 -1.533E-01
   1   16   11     1    11    1.3434E+05 -2.9082E+03   1.3725E+05  0.000E+00  0.000E+00  0.000E+00  4.36624E+01  1.738E-01  2.000E+01  2.000E+04 -1.454E-01
   1   16   12     1    12    1.3725E+05 -3.1990E+03   1.4045E+05  0.000E+00  0.000E+00  0.000E+00  4.31875E+01  1.761E-01  2.000E+01  2.000E+04 -1.600E-01
   1   15   13     1    13    1.4045E+05 -2.4912E+03   1.4294E+05  0.000E+00  0.000E+00  0.000E+00  4.27124E+01  1.783E-01  2.000E+01  2.000E+04 -1.246E-01
   1   14   14     1    14    1.4294E+05 -2.2257E+03   1.4517E+05  0.000E+00  0.000E+00  0.000E+00  4.22369E+01  1.801E-01  2.000E+01  2.000E+04 -1.113E-01
   1   13   15     1    15    1.4517E+05 -2.6420E+03   1.4781E+05  0.000E+00  0.000E+00  0.000E+00  4.17614E+01  1.819E-01  2.000E+01  2.000E+04 -1.321E-01
   1   12   16     1    16    1.4781E+05 -4.6526E+03   1.5246E+05  0.000E+00  0.000E+00  0.000E+00  4.12869E+01  1.846E-01  2.000E+01  2.000E+04 -2.326E-01
   1   12   17     1    17    1.5246E+05 -2.5760E+03   1.5504E+05  0.000E+00  0.000E+00  0.000E+00  4.08122E+01  1.872E-01  2.000E+01  2.000E+04 -1.288E-01
   1   12   18     1    18    1.5504E+05 -2.5112E+03   1.5755E+05  0.000E+00  0.000E+00  0.000E+00  4.03368E+01  1.891E-01  2.000E+01  2.000E+04 -1.256E-01
   1   12   19     1    19    1.5755E+05 -3.8260E+03   1.6138E+05  0.000E+00  0.000E+00  0.000E+00  3.98618E+01  1.914E-01  2.000E+01  2.000E+04 -1.913E-01
   1   13   20     1    20    1.6138E+05 -1.5802E+03   1.6296E+05  0.000E+00  0.000E+00  0.000E+00  3.93865E+01  1.933E-01  2.000E+01  2.000E+04 -7.901E-02
   1   14   21     1    21    1.6296E+05 -3.2681E+02   1.6328E+05  0.000E+00  0.000E+00  0.000E+00  3.89099E+01  1.940E-01  2.000E+01  2.000E+04 -1.634E-02
   1   14   22     1    22    1.6328E+05  5.3015E+03   1.5798E+05  0.000E+00  0.000E+00  0.000E+00  3.84309E+01  1.922E-01  2.000E+01  2.000E+04  2.651E-01
   1    9   30     2     1    5.0000E+04 -2.6686E+03   5.2669E+04  0.000E+00  0.000E+00  0.000E+00  4.02427E+01  1.177E-01  2.000E+01  2.000E+04 -1.334E-01
   1    9   29     2     2    5.2669E+04 -3.0016E+03   5.5670E+04  0.000E+00  0.000E+00  0.000E+00  3.99966E+01  1.216E-01  2.000E+01  2.000E+04 -1.501E-01
   1    9   28     2     3    5.5670E+04 -3.3839E+03   5.9054E+04  0.000E+00  0.000E+00  0.000E+00  3.97508E+01  1.258E-01  2.000E+01  2.000E+04 -1.692E-01
   1    9   27     2     4    5.9054E+04 -6.0820E+03   6.5136E+04  0.000E+00  0.000E+00  0.000E+00  3.95069E+01  1.319E-01  2.000E+01  2.000E+04 -3.041E-01
   1   10   26     2     5    6.5136E+04 -3.6972E+03   6.8833E+04  0.000E+00  0.000E+00  0.000E+00  3.92631E+01  1.381E-01  2.000E+01  2.000E+04 -1.849E-01
   1   11   25     2     6    6.8833E+04 -2.6488E+03   7.1482E+04  0.000E+00  0.000E+00  0.000E+00  3.90170E+01  1.420E-01  2.000E+01  2.000E+04 -1.324E-01
   1   12   24     2     7    7.1482E+04 -1.8050E+03   7.3287E+04  0.000E+00  0.000E+00  0.000E+00  3.87697E+01  1.447E-01  2.000E+01  2.000E+04 -9.025E-02
   1   13   23     2     8    7.3287E+04 -9.9026E+02   7.4277E+04  0.000E+00  0.000E+00  0.000E+00  3.85213E+01  1.463E-01  2.000E+01  2.000E+04 -4.951E-02
   1   14   22     2     9    7.4277E+04  2.0977E+03   7.2180E+04  0.000E+00  0.000E+00  0.000E+00  3.82707E+01  1.457E-01  2.000E+01  2.000E+04  1.049E-01
   1   14   22     3     1    2.3016E+05 -8.2039E+03   2.3837E+05  0.000E+00  0.000E+00  0.000E+00  3.77556E+01  2.000E-01  2.000E+01  2.000E+04 -4.102E-01
   1   15   23     3     2    2.3837E+05  3.6665E+02   2.3800E+05  0.000E+00  0.000E+00  0.000E+00  3.68687E+01  2.020E-01  2.000E+01  2.000E+04  1.833E-02
   1   15   24     3     3    2.3800E+05  1.7070E+03   2.3629E+05  0.000E+00  0.000E+00  0.000E+00  3.59793E+01  2.015E-01  2.000E+01  2.000E+04  8.535E-02
   1   15   25     3     4    2.3629E+05  3.2498E+03   2.3304E+05  0.000E+00  0.000E+00  0.000E+00  3.50891E+01  2.002E-01  2.000E+01  2.000E+04  1.625E-01
   1   15   26     3     5    2.3304E+05  7.1740E+02   2.3232E+05  0.000E+00  0.000E+00  0.000E+00  3.41992E+01  1.992E-01  2.000E+01  2.000E+04  3.587E-02
   1   16   27     3     6    2.3232E+05  1.8005E+03   2.3052E+05  0.000E+00  0.000E+00  0.000E+00  3.33097E+01  1.986E-01  2.000E+01  2.000E+04  9.002E-02
   1   17   28     3     7    2.3052E+05 -7.6376E+02   2.3129E+05  0.000E+00  0.000E+00  0.000E+00  3.24205E+01  1.983E-01  2.000E+01  2.000E+04 -3.819E-02
   1   18   29     3     8    2.3129E+05 -3.9328E+03   2.3522E+05  0.000E+00  0.000E+00  0.000E+00  3.15329E+01  1.995E-01  2.000E+01  2.000E+04 -1.966E-01
   1   18   30     3     9    2.3522E+05 -4.1843E+03   2.3940E+05  0.000E+00  0.000E+00  0.000E+00  3.06460E+01  2.016E-01  2.000E+01  2.000E+04 -2.092E-01



1
              HEAD IN LAYER   1 AT END OF TIME STEP   1 IN STRESS PERIOD    9
  ---------------------------------------------------------------------------

          1      2      3      4      5      6      7      8      9     10
         11     12     13     14     15     16     17     18     19     20
         21     22     23     24     25     26     27     28     29     30
 .........................................................................
   1  ****** ****** ****** ****** ****** ****** ****** ****** ****** ******
      ****** ****** ****** ****** ****** ****** ****** ****** ****** ******
      ****** ****** ****** ****** ****** ****** ****** ****** ****** ******
   2  ****** ****** ****** ****** ****** ****** ****** ****** ****** ******
      ****** ****** ****** ****** ****** ****** ****** ****** ****** ******
      ****** ****** ****** ****** ****** ****** ****** ****** ****** ******
   3  ****** ****** ****** ****** ****** ****** ****** ****** ****** ******
      ****** ****** ****** ****** ****** ****** ****** ****** ****** ******
      ****** ****** ****** ****** ****** ****** ****** ****** ****** ******
   4  ****** ****** ****** ****** ****** ****** ****** ****** ****** ******
      ****** ****** ****** ****** ****** ****** ****** ****** ****** ******
      ****** ****** ****** ****** ****** ****** ****** ****** ****** ******
   5  ****** ****** ****** ****** ****** ****** ****** ****** ****** ******
      ****** ****** ****** ****** ****** ****** ****** ****** ****** ******
      ****** ****** ****** ****** ****** ****** ****** ****** ****** ******
   6  ****** ****** ****** ****** ****** ****** ****** ****** ****** ******
      ****** ****** ****** ****** ****** ****** ****** ****** ****** ******
      ****** ****** ****** ****** ****** ****** ****** ****** ****** ******
   7  ****** ****** ****** ****** ****** ****** ****** ****** ****** ******
      ****** ****** ****** ****** ****** ****** ****** ****** ****** ******
      ****** ****** ****** ****** ****** ****** ****** ****** ****** ******
   8  ****** ****** ****** ****** ****** ****** ****** ****** ****** ******
      ****** ****** ****** ****** ****** ****** ****** ****** ****** ******
      ****** ****** ****** ****** ****** ****** ****** ****** ****** ******
   9  ****** ****** ****** ****** ****** ****** ****** ****** ****** ******
      ****** ****** ****** ****** ****** ****** ****** ****** ****** ******
      ****** ****** ****** ****** ****** ****** ****** ****** ****** ******
  10  ****** ****** ****** ****** ****** ****** ****** ****** ****** ******
      ****** ****** ****** ****** ****** ****** ****** ****** ****** ******
      ****** ****** ****** ****** ****** ****** ****** ****** ****** ******
  11  ****** ****** ****** ****** ****** ****** ****** ****** ****** ******
      ****** ****** ****** ****** ****** ****** ****** ****** ****** ******
      ****** ****** ****** ****** ****** ****** ****** ****** ****** ******
  12  ****** ****** ****** ****** ****** ****** ****** ****** ****** ******
      ****** ****** ****** ****** ****** ****** ****** ****** ****** ******
      ****** ****** ****** ****** ****** ****** ****** ****** ****** ******
  13  ****** ****** ****** ****** ****** ****** ****** ****** ****** ******
      ****** ****** ****** ****** ****** ****** ****** ****** ****** ******
      ****** ****** ****** ****** ****** ****** ****** ****** ****** ******
  14  ****** ****** ****** ****** ****** ****** ****** ****** ****** ******
      ****** ****** ****** ****** ****** ****** ****** ****** ****** ******
      ****** ****** ****** ****** ****** ****** ****** ****** ****** ******
  15  ****** ****** ****** ****** ****** ****** ****** ****** ****** ******
      ****** ****** ****** ****** ****** ****** ****** ****** ****** ******
      ****** ****** ****** ****** ****** ****** ****** ****** ****** ******
  16  ****** ****** ****** ****** ****** ****** ****** ****** ****** ******
      ****** ****** ****** ****** ****** ****** ****** ****** ****** ******
      ****** ****** ****** ****** ****** ****** ****** ****** ****** ******
  17  ****** ****** ****** ****** ****** ****** ****** ****** ****** ******
      ****** ****** ****** ****** ****** ****** ****** ****** ****** ******
      ****** ****** ****** ****** ****** ****** ****** ****** ****** ******
  18  ****** ****** ****** ****** ****** ****** ****** ****** ****** ******
      ****** ****** ****** ****** ****** ****** ****** ****** ****** ******
      ****** ****** ****** ****** ****** ****** ****** ****** ****** ******
  19  ****** ****** ****** ****** ****** ****** ****** ****** ****** ******
      ****** ****** ****** ****** ****** ****** ****** ****** ****** ******
      ****** ****** ****** ****** ****** ****** ****** ****** ****** ******
  20  ****** ****** ****** ****** ****** ****** ****** ****** ****** ******
      ****** ****** ****** ****** ****** ****** ****** ****** ****** ******
      ****** ****** ****** ****** ****** ****** ****** ****** ****** ******
  21  ****** ****** ****** ****** ****** ****** ****** ****** ****** ******
      ****** ****** ****** ****** ****** ****** ****** ****** ****** ******
      ****** ****** ****** ****** ****** ****** ****** ****** ****** ******
  22  ****** ****** ****** ****** ****** ****** ****** ****** ****** ******
      ****** ****** ****** ****** ****** ****** ****** ****** ****** ******
      ****** ****** ****** ****** ****** ****** ****** ****** ****** ******
  23  ****** ****** ****** ****** ****** ****** ****** ****** ****** ******
      ****** ****** ****** ****** ****** ****** ****** ****** ****** ******
      ****** ****** ****** ****** ****** ****** ****** ****** ****** ******
  24  ****** ****** ****** ****** ****** ****** ****** ****** ****** ******
      ****** ****** ****** ****** ****** ****** ****** ****** ****** ******
      ****** ****** ****** ****** ****** ****** ****** ****** ****** ******
  25  ****** ****** ****** ****** ****** ****** ****** ****** ****** ******
      ****** ****** ****** ****** ****** ****** ****** ****** ****** ******
      ****** ****** ****** ****** ****** ****** ****** ****** ****** ******

 HEAD WILL BE SAVED ON UNIT   51 AT END OF TIME STEP    1, STRESS PERIOD    9
1
  VOLUMETRIC BUDGET FOR ENTIRE MODEL AT END OF TIME STEP    1, STRESS PERIOD   9
  ------------------------------------------------------------------------------

     CUMULATIVE VOLUMES      L**3       RATES FOR THIS TIME STEP      L**3/T
     ------------------                 ------------------------

           IN:                                      IN:
           ---                                      ---
             STORAGE =    23922653.7270               STORAGE =        2123.7701
       CONSTANT HEAD =    94162187.2310         CONSTANT HEAD =      122410.3675
               WELLS =           0.0000                 WELLS =           0.0000
            RECHARGE =    18878400.0000              RECHARGE =       13800.0000
      STREAM LEAKAGE =    31172393.9694        STREAM LEAKAGE =       15240.5441

            TOTAL IN =   168135634.9274              TOTAL IN =      153574.6818

          OUT:                                     OUT:
          ----                                     ----
             STORAGE =     1944723.1760               STORAGE =           2.7304
       CONSTANT HEAD =           0.0000         CONSTANT HEAD =           0.0000
               WELLS =    75045327.4029                 WELLS =       48926.6868
            RECHARGE =           0.0000              RECHARGE =           0.0000
      STREAM LEAKAGE =    91145585.2979        STREAM LEAKAGE =      104645.2674

           TOTAL OUT =   168135635.8769             TOTAL OUT =      153574.6846

            IN - OUT =          -0.9495              IN - OUT =      -2.7424E-03

 PERCENT DISCREPANCY =          -0.00     PERCENT DISCREPANCY =          -0.00






         TIME SUMMARY AT END OF TIME STEP    1 IN STRESS PERIOD    9
                    SECONDS     MINUTES      HOURS       DAYS        YEARS
                    -----------------------------------------------------------
   TIME STEP LENGTH 7.94880E+06 1.32480E+05  2208.0      92.000     0.25188    
 STRESS PERIOD TIME 7.94880E+06 1.32480E+05  2208.0      92.000     0.25188    
         TOTAL TIME 7.10208E+07 1.18368E+06  19728.      822.00      2.2505    
1
1
                            STRESS PERIOD NO.   10, LENGTH =   91.00000    
                            -----------------------------------------------

                              NUMBER OF TIME STEPS =     1

                               MULTIPLIER FOR DELT =     1.500

                            INITIAL TIME STEP SIZE =   91.00000    

 WELL NO.  LAYER   ROW   COL   STRESS RATE         
 --------------------------------------------------
      1      1     17     25     -0.3250E+05
      2      1     16     17     -0.1643E+05
      3      1     14     25       0.000    

      3 WELLS

                 RECHARGE =  2.000000E-03

 REUSING STREAM SEGMENT DATA FROM LAST STRESS PERIOD
 
 SOLVING FOR HEAD 


     7 CALLS TO PCG ROUTINE FOR TIME STEP   1 IN STRESS PERIOD   10
    26 TOTAL ITERATIONS

 OUTPUT CONTROL FOR STRESS PERIOD   10   TIME STEP    1
    SAVE BUDGET
    SAVE HEAD FOR ALL LAYERS
    PRINT HEAD FOR ALL LAYERS
 UBDSV2 SAVING "STREAMFLOW OUT  " ON UNIT  50 AT TIME STEP  1, STRESS PERIOD  10



 STREAM LISTING     PERIOD     10   STEP        1

 LAYER ROW COL. STREAM  RCH.  FLOW INTO     FLOW TO   FLOW OUT OF   OVRLND.     DIRECT     STREAM       STREAM     STREAM     STREAM   STREAMBED  STREAMBED
                SEG.NO.  NO.  STRM. RCH.    AQUIFER    STRM. RCH.    RUNOFF     PRECIP       ET          HEAD       DEPTH      WIDTH   CONDCTNC.   GRADIENT

   1   13    1     1     1    1.0000E+05 -3.1741E+03   1.0317E+05  0.000E+00  0.000E+00  0.000E+00  4.84074E+01  1.460E-01  2.000E+01  2.000E+04 -1.587E-01
   1   13    2     1     2    1.0317E+05 -5.2095E+03   1.0838E+05  0.000E+00  0.000E+00  0.000E+00  4.79337E+01  1.496E-01  2.000E+01  2.000E+04 -2.605E-01
   1   14    3     1     3    1.0838E+05 -4.2753E+03   1.1266E+05  0.000E+00  0.000E+00  0.000E+00  4.74604E+01  1.536E-01  2.000E+01  2.000E+04 -2.138E-01
   1   15    4     1     4    1.1266E+05 -4.1723E+03   1.1683E+05  0.000E+00  0.000E+00  0.000E+00  4.69866E+01  1.571E-01  2.000E+01  2.000E+04 -2.086E-01
   1   16    5     1     5    1.1683E+05 -4.4585E+03   1.2129E+05  0.000E+00  0.000E+00  0.000E+00  4.65129E+01  1.606E-01  2.000E+01  2.000E+04 -2.229E-01
   1   16    6     1     6    1.2129E+05 -3.5201E+03   1.2481E+05  0.000E+00  0.000E+00  0.000E+00  4.60388E+01  1.638E-01  2.000E+01  2.000E+04 -1.760E-01
   1   16    7     1     7    1.2481E+05 -3.5832E+03   1.2839E+05  0.000E+00  0.000E+00  0.000E+00  4.55644E+01  1.666E-01  2.000E+01  2.000E+04 -1.792E-01
   1   16    8     1     8    1.2839E+05 -3.6087E+03   1.3200E+05  0.000E+00  0.000E+00  0.000E+00  4.50899E+01  1.695E-01  2.000E+01  2.000E+04 -1.804E-01
   1   16    9     1     9    1.3200E+05 -3.5782E+03   1.3558E+05  0.000E+00  0.000E+00  0.000E+00  4.46154E+01  1.723E-01  2.000E+01  2.000E+04 -1.789E-01
   1   16   10     1    10    1.3558E+05 -3.4852E+03   1.3907E+05  0.000E+00  0.000E+00  0.000E+00  4.41409E+01  1.750E-01  2.000E+01  2.000E+04 -1.743E-01
   1   16   11     1    11    1.3907E+05 -3.3235E+03   1.4239E+05  0.000E+00  0.000E+00  0.000E+00  4.36662E+01  1.776E-01  2.000E+01  2.000E+04 -1.662E-01
   1   16   12     1    12    1.4239E+05 -3.7403E+03   1.4613E+05  0.000E+00  0.000E+00  0.000E+00  4.31916E+01  1.802E-01  2.000E+01  2.000E+04 -1.870E-01
   1   15   13     1    13    1.4613E+05 -3.0780E+03   1.4921E+05  0.000E+00  0.000E+00  0.000E+00  4.27169E+01  1.828E-01  2.000E+01  2.000E+04 -1.539E-01
   1   14   14     1    14    1.4921E+05 -2.8228E+03   1.5203E+05  0.000E+00  0.000E+00  0.000E+00  4.22418E+01  1.849E-01  2.000E+01  2.000E+04 -1.411E-01
   1   13   15     1    15    1.5203E+05 -3.2276E+03   1.5526E+05  0.000E+00  0.000E+00  0.000E+00  4.17667E+01  1.872E-01  2.000E+01  2.000E+04 -1.614E-01
   1   12   16     1    16    1.5526E+05 -5.2101E+03   1.6047E+05  0.000E+00  0.000E+00  0.000E+00  4.12925E+01  1.902E-01  2.000E+01  2.000E+04 -2.605E-01
   1   12   17     1    17    1.6047E+05 -2.9909E+03   1.6346E+05  0.000E+00  0.000E+00  0.000E+00  4.08182E+01  1.932E-01  2.000E+01  2.000E+04 -1.495E-01
   1   12   18     1    18    1.6346E+05 -2.9183E+03   1.6638E+05  0.000E+00  0.000E+00  0.000E+00  4.03430E+01  1.953E-01  2.000E+01  2.000E+04 -1.459E-01
   1   12   19     1    19    1.6638E+05 -4.3189E+03   1.7070E+05  0.000E+00  0.000E+00  0.000E+00  3.98683E+01  1.979E-01  2.000E+01  2.000E+04 -2.159E-01
   1   13   20     1    20    1.7070E+05 -2.0645E+03   1.7276E+05  0.000E+00  0.000E+00  0.000E+00  3.93933E+01  2.001E-01  2.000E+01  2.000E+04 -1.032E-01
   1   14   21     1    21    1.7276E+05 -7.7887E+02   1.7354E+05  0.000E+00  0.000E+00  0.000E+00  3.89170E+01  2.011E-01  2.000E+01  2.000E+04 -3.894E-02
   1   14   22     1    22    1.7354E+05  5.2197E+03   1.6832E+05  0.000E+00  0.000E+00  0.000E+00  3.84382E+01  1.995E-01  2.000E+01  2.000E+04  2.610E-01
   1    9   30     2     1    5.0000E+04 -3.0330E+03   5.3033E+04  0.000E+00  0.000E+00  0.000E+00  4.02430E+01  1.180E-01  2.000E+01  2.000E+04 -1.517E-01
   1    9   29     2     2    5.3033E+04 -3.3632E+03   5.6396E+04  0.000E+00  0.000E+00  0.000E+00  3.99973E+01  1.223E-01  2.000E+01  2.000E+04 -1.682E-01
   1    9   28     2     3    5.6396E+04 -3.7435E+03   6.0140E+04  0.000E+00  0.000E+00  0.000E+00  3.97520E+01  1.270E-01  2.000E+01  2.000E+04 -1.872E-01
   1    9   27     2     4    6.0140E+04 -6.5635E+03   6.6703E+04  0.000E+00  0.000E+00  0.000E+00  3.95086E+01  1.336E-01  2.000E+01  2.000E+04 -3.282E-01
   1   10   26     2     5    6.6703E+04 -4.1961E+03   7.0899E+04  0.000E+00  0.000E+00  0.000E+00  3.92653E+01  1.403E-01  2.000E+01  2.000E+04 -2.098E-01
   1   11   25     2     6    7.0899E+04 -3.1261E+03   7.4025E+04  0.000E+00  0.000E+00  0.000E+00  3.90198E+01  1.448E-01  2.000E+01  2.000E+04 -1.563E-01
   1   12   24     2     7    7.4025E+04 -2.2264E+03   7.6252E+04  0.000E+00  0.000E+00  0.000E+00  3.87729E+01  1.479E-01  2.000E+01  2.000E+04 -1.113E-01
   1   13   23     2     8    7.6252E+04 -1.3181E+03   7.7570E+04  0.000E+00  0.000E+00  0.000E+00  3.85250E+01  1.500E-01  2.000E+01  2.000E+04 -6.591E-02
   1   14   22     2     9    7.7570E+04  1.9494E+03   7.5621E+04  0.000E+00  0.000E+00  0.000E+00  3.82747E+01  1.497E-01  2.000E+01  2.000E+04  9.747E-02
   1   14   22     3     1    2.4394E+05 -8.2918E+03   2.5223E+05  0.000E+00  0.000E+00  0.000E+00  3.77626E+01  2.070E-01  2.000E+01  2.000E+04 -4.146E-01
   1   15   23     3     2    2.5223E+05 -5.5310E+01   2.5229E+05  0.000E+00  0.000E+00  0.000E+00  3.68758E+01  2.091E-01  2.000E+01  2.000E+04 -2.766E-03
   1   15   24     3     3    2.5229E+05  1.4068E+03   2.5088E+05  0.000E+00  0.000E+00  0.000E+00  3.59866E+01  2.088E-01  2.000E+01  2.000E+04  7.034E-02
   1   15   25     3     4    2.5088E+05  2.9512E+03   2.4793E+05  0.000E+00  0.000E+00  0.000E+00  3.50966E+01  2.077E-01  2.000E+01  2.000E+04  1.476E-01
   1   15   26     3     5    2.4793E+05  3.3506E+02   2.4759E+05  0.000E+00  0.000E+00  0.000E+00  3.42069E+01  2.069E-01  2.000E+01  2.000E+04  1.675E-02
   1   16   27     3     6    2.4759E+05  1.3184E+03   2.4628E+05  0.000E+00  0.000E+00  0.000E+00  3.33176E+01  2.065E-01  2.000E+01  2.000E+04  6.592E-02
   1   17   28     3     7    2.4628E+05 -1.2555E+03   2.4753E+05  0.000E+00  0.000E+00  0.000E+00  3.24287E+01  2.065E-01  2.000E+01  2.000E+04 -6.278E-02
   1   18   29     3     8    2.4753E+05 -4.3941E+03   2.5192E+05  0.000E+00  0.000E+00  0.000E+00  3.15412E+01  2.079E-01  2.000E+01  2.000E+04 -2.197E-01
   1   18   30     3     9    2.5192E+05 -4.5299E+03   2.5645E+05  0.000E+00  0.000E+00  0.000E+00  3.06545E+01  2.101E-01  2.000E+01  2.000E+04 -2.265E-01



1
              HEAD IN LAYER   1 AT END OF TIME STEP   1 IN STRESS PERIOD   10
  ---------------------------------------------------------------------------

          1      2      3      4      5      6      7      8      9     10
         11     12     13     14     15     16     17     18     19     20
         21     22     23     24     25     26     27     28     29     30
 .........................................................................
   1  ****** ****** ****** ****** ****** ****** ****** ****** ****** ******
      ****** ****** ****** ****** ****** ****** ****** ****** ****** ******
      ****** ****** ****** ****** ****** ****** ****** ****** ****** ******
   2  ****** ****** ****** ****** ****** ****** ****** ****** ****** ******
      ****** ****** ****** ****** ****** ****** ****** ****** ****** ******
      ****** ****** ****** ****** ****** ****** ****** ****** ****** ******
   3  ****** ****** ****** ****** ****** ****** ****** ****** ****** ******
      ****** ****** ****** ****** ****** ****** ****** ****** ****** ******
      ****** ****** ****** ****** ****** ****** ****** ****** ****** ******
   4  ****** ****** ****** ****** ****** ****** ****** ****** ****** ******
      ****** ****** ****** ****** ****** ****** ****** ****** ****** ******
      ****** ****** ****** ****** ****** ****** ****** ****** ****** ******
   5  ****** ****** ****** ****** ****** ****** ****** ****** ****** ******
      ****** ****** ****** ****** ****** ****** ****** ****** ****** ******
      ****** ****** ****** ****** ****** ****** ****** ****** ****** ******
   6  ****** ****** ****** ****** ****** ****** ****** ****** ****** ******
      ****** ****** ****** ****** ****** ****** ****** ****** ****** ******
      ****** ****** ****** ****** ****** ****** ****** ****** ****** ******
   7  ****** ****** ****** ****** ****** ****** ****** ****** ****** ******
      ****** ****** ****** ****** ****** ****** ****** ****** ****** ******
      ****** ****** ****** ****** ****** ****** ****** ****** ****** ******
   8  ****** ****** ****** ****** ****** ****** ****** ****** ****** ******
      ****** ****** ****** ****** ****** ****** ****** ****** ****** ******
      ****** ****** ****** ****** ****** ****** ****** ****** ****** ******
   9  ****** ****** ****** ****** ****** ****** ****** ****** ****** ******
      ****** ****** ****** ****** ****** ****** ****** ****** ****** ******
      ****** ****** ****** ****** ****** ****** ****** ****** ****** ******
  10  ****** ****** ****** ****** ****** ****** ****** ****** ****** ******
      ****** ****** ****** ****** ****** ****** ****** ****** ****** ******
      ****** ****** ****** ****** ****** ****** ****** ****** ****** ******
  11  ****** ****** ****** ****** ****** ****** ****** ****** ****** ******
      ****** ****** ****** ****** ****** ****** ****** ****** ****** ******
      ****** ****** ****** ****** ****** ****** ****** ****** ****** ******
  12  ****** ****** ****** ****** ****** ****** ****** ****** ****** ******
      ****** ****** ****** ****** ****** ****** ****** ****** ****** ******
      ****** ****** ****** ****** ****** ****** ****** ****** ****** ******
  13  ****** ****** ****** ****** ****** ****** ****** ****** ****** ******
      ****** ****** ****** ****** ****** ****** ****** ****** ****** ******
      ****** ****** ****** ****** ****** ****** ****** ****** ****** ******
  14  ****** ****** ****** ****** ****** ****** ****** ****** ****** ******
      ****** ****** ****** ****** ****** ****** ****** ****** ****** ******
      ****** ****** ****** ****** ****** ****** ****** ****** ****** ******
  15  ****** ****** ****** ****** ****** ****** ****** ****** ****** ******
      ****** ****** ****** ****** ****** ****** ****** ****** ****** ******
      ****** ****** ****** ****** ****** ****** ****** ****** ****** ******
  16  ****** ****** ****** ****** ****** ****** ****** ****** ****** ******
      ****** ****** ****** ****** ****** ****** ****** ****** ****** ******
      ****** ****** ****** ****** ****** ****** ****** ****** ****** ******
  17  ****** ****** ****** ****** ****** ****** ****** ****** ****** ******
      ****** ****** ****** ****** ****** ****** ****** ****** ****** ******
      ****** ****** ****** ****** ****** ****** ****** ****** ****** ******
  18  ****** ****** ****** ****** ****** ****** ****** ****** ****** ******
      ****** ****** ****** ****** ****** ****** ****** ****** ****** ******
      ****** ****** ****** ****** ****** ****** ****** ****** ****** ******
  19  ****** ****** ****** ****** ****** ****** ****** ****** ****** ******
      ****** ****** ****** ****** ****** ****** ****** ****** ****** ******
      ****** ****** ****** ****** ****** ****** ****** ****** ****** ******
  20  ****** ****** ****** ****** ****** ****** ****** ****** ****** ******
      ****** ****** ****** ****** ****** ****** ****** ****** ****** ******
      ****** ****** ****** ****** ****** ****** ****** ****** ****** ******
  21  ****** ****** ****** ****** ****** ****** ****** ****** ****** ******
      ****** ****** ****** ****** ****** ****** ****** ****** ****** ******
      ****** ****** ****** ****** ****** ****** ****** ****** ****** ******
  22  ****** ****** ****** ****** ****** ****** ****** ****** ****** ******
      ****** ****** ****** ****** ****** ****** ****** ****** ****** ******
      ****** ****** ****** ****** ****** ****** ****** ****** ****** ******
  23  ****** ****** ****** ****** ****** ****** ****** ****** ****** ******
      ****** ****** ****** ****** ****** ****** ****** ****** ****** ******
      ****** ****** ****** ****** ****** ****** ****** ****** ****** ******
  24  ****** ****** ****** ****** ****** ****** ****** ****** ****** ******
      ****** ****** ****** ****** ****** ****** ****** ****** ****** ******
      ****** ****** ****** ****** ****** ****** ****** ****** ****** ******
  25  ****** ****** ****** ****** ****** ****** ****** ****** ****** ******
      ****** ****** ****** ****** ****** ****** ****** ****** ****** ******
      ****** ****** ****** ****** ****** ****** ****** ****** ****** ******

 HEAD WILL BE SAVED ON UNIT   51 AT END OF TIME STEP    1, STRESS PERIOD   10
1
  VOLUMETRIC BUDGET FOR ENTIRE MODEL AT END OF TIME STEP    1, STRESS PERIOD  10
  ------------------------------------------------------------------------------

     CUMULATIVE VOLUMES      L**3       RATES FOR THIS TIME STEP      L**3/T
     ------------------                 ------------------------

           IN:                                      IN:
           ---                                      ---
             STORAGE =    23922653.7270               STORAGE =           0.0000
       CONSTANT HEAD =   104273291.5722         CONSTANT HEAD =      111111.0367
               WELLS =           0.0000                 WELLS =           0.0000
            RECHARGE =    23901600.0000              RECHARGE =       55200.0000
      STREAM LEAKAGE =    32371821.8506        STREAM LEAKAGE =       13180.5262

            TOTAL IN =   184469367.1498              TOTAL IN =      179491.5629

          OUT:                                     OUT:
          ----                                     ----
             STORAGE =     2939316.5762               STORAGE =       10929.5978
       CONSTANT HEAD =           0.0000         CONSTANT HEAD =           0.0000
               WELLS =    79497655.9006                 WELLS =       48926.6868
            RECHARGE =           0.0000              RECHARGE =           0.0000
      STREAM LEAKAGE =   102032395.4641        STREAM LEAKAGE =      119635.2766

           TOTAL OUT =   184469367.9409             TOTAL OUT =      179491.5611

            IN - OUT =          -0.7911              IN - OUT =       1.7404E-03

 PERCENT DISCREPANCY =          -0.00     PERCENT DISCREPANCY =           0.00






         TIME SUMMARY AT END OF TIME STEP    1 IN STRESS PERIOD   10
                    SECONDS     MINUTES      HOURS       DAYS        YEARS
                    -----------------------------------------------------------
   TIME STEP LENGTH 7.86240E+06 1.31040E+05  2184.0      91.000     0.24914    
 STRESS PERIOD TIME 7.86240E+06 1.31040E+05  2184.0      91.000     0.24914    
         TOTAL TIME 7.88832E+07 1.31472E+06  21912.      913.00      2.4997    
1
1
                            STRESS PERIOD NO.   11, LENGTH =   91.00000    
                            -----------------------------------------------

                              NUMBER OF TIME STEPS =     1

                               MULTIPLIER FOR DELT =     1.500

                            INITIAL TIME STEP SIZE =   91.00000    

 WELL NO.  LAYER   ROW   COL   STRESS RATE         
 --------------------------------------------------
      1      1     17     25     -0.3250E+05
      2      1     16     17     -0.1643E+05
      3      1     14     25       0.000    

      3 WELLS

                 RECHARGE =   0.00000    

 REUSING STREAM SEGMENT DATA FROM LAST STRESS PERIOD
 
 SOLVING FOR HEAD 


     7 CALLS TO PCG ROUTINE FOR TIME STEP   1 IN STRESS PERIOD   11
    26 TOTAL ITERATIONS

 OUTPUT CONTROL FOR STRESS PERIOD   11   TIME STEP    1
    SAVE BUDGET
    SAVE HEAD FOR ALL LAYERS
    PRINT HEAD FOR ALL LAYERS
 UBDSV2 SAVING "STREAMFLOW OUT  " ON UNIT  50 AT TIME STEP  1, STRESS PERIOD  11



 STREAM LISTING     PERIOD     11   STEP        1

 LAYER ROW COL. STREAM  RCH.  FLOW INTO     FLOW TO   FLOW OUT OF   OVRLND.     DIRECT     STREAM       STREAM     STREAM     STREAM   STREAMBED  STREAMBED
                SEG.NO.  NO.  STRM. RCH.    AQUIFER    STRM. RCH.    RUNOFF     PRECIP       ET          HEAD       DEPTH      WIDTH   CONDCTNC.   GRADIENT

   1   13    1     1     1    1.0000E+05 -2.6902E+03   1.0269E+05  0.000E+00  0.000E+00  0.000E+00  4.84072E+01  1.458E-01  2.000E+01  2.000E+04 -1.345E-01
   1   13    2     1     2    1.0269E+05 -4.5768E+03   1.0727E+05  0.000E+00  0.000E+00  0.000E+00  4.79330E+01  1.489E-01  2.000E+01  2.000E+04 -2.288E-01
   1   14    3     1     3    1.0727E+05 -3.6209E+03   1.1089E+05  0.000E+00  0.000E+00  0.000E+00  4.74592E+01  1.524E-01  2.000E+01  2.000E+04 -1.810E-01
   1   15    4     1     4    1.1089E+05 -3.5213E+03   1.1441E+05  0.000E+00  0.000E+00  0.000E+00  4.69849E+01  1.554E-01  2.000E+01  2.000E+04 -1.761E-01
   1   16    5     1     5    1.1441E+05 -3.8579E+03   1.1827E+05  0.000E+00  0.000E+00  0.000E+00  4.65107E+01  1.584E-01  2.000E+01  2.000E+04 -1.929E-01
   1   16    6     1     6    1.1827E+05 -3.0450E+03   1.2131E+05  0.000E+00  0.000E+00  0.000E+00  4.60362E+01  1.612E-01  2.000E+01  2.000E+04 -1.523E-01
   1   16    7     1     7    1.2131E+05 -3.1014E+03   1.2441E+05  0.000E+00  0.000E+00  0.000E+00  4.55614E+01  1.637E-01  2.000E+01  2.000E+04 -1.551E-01
   1   16    8     1     8    1.2441E+05 -3.1230E+03   1.2754E+05  0.000E+00  0.000E+00  0.000E+00  4.50866E+01  1.661E-01  2.000E+01  2.000E+04 -1.562E-01
   1   16    9     1     9    1.2754E+05 -3.0929E+03   1.3063E+05  0.000E+00  0.000E+00  0.000E+00  4.46118E+01  1.686E-01  2.000E+01  2.000E+04 -1.546E-01
   1   16   10     1    10    1.3063E+05 -3.0045E+03   1.3363E+05  0.000E+00  0.000E+00  0.000E+00  4.41369E+01  1.710E-01  2.000E+01  2.000E+04 -1.502E-01
   1   16   11     1    11    1.3363E+05 -2.8495E+03   1.3648E+05  0.000E+00  0.000E+00  0.000E+00  4.36619E+01  1.732E-01  2.000E+01  2.000E+04 -1.425E-01
   1   16   12     1    12    1.3648E+05 -3.1356E+03   1.3962E+05  0.000E+00  0.000E+00  0.000E+00  4.31869E+01  1.755E-01  2.000E+01  2.000E+04 -1.568E-01
   1   15   13     1    13    1.3962E+05 -2.4185E+03   1.4204E+05  0.000E+00  0.000E+00  0.000E+00  4.27117E+01  1.776E-01  2.000E+01  2.000E+04 -1.209E-01
   1   14   14     1    14    1.4204E+05 -2.1517E+03   1.4419E+05  0.000E+00  0.000E+00  0.000E+00  4.22362E+01  1.794E-01  2.000E+01  2.000E+04 -1.076E-01
   1   13   15     1    15    1.4419E+05 -2.5678E+03   1.4676E+05  0.000E+00  0.000E+00  0.000E+00  4.17607E+01  1.811E-01  2.000E+01  2.000E+04 -1.284E-01
   1   12   16     1    16    1.4676E+05 -4.5840E+03   1.5134E+05  0.000E+00  0.000E+00  0.000E+00  4.12861E+01  1.838E-01  2.000E+01  2.000E+04 -2.292E-01
   1   12   17     1    17    1.5134E+05 -2.5192E+03   1.5386E+05  0.000E+00  0.000E+00  0.000E+00  4.08114E+01  1.864E-01  2.000E+01  2.000E+04 -1.260E-01
   1   12   18     1    18    1.5386E+05 -2.4533E+03   1.5631E+05  0.000E+00  0.000E+00  0.000E+00  4.03359E+01  1.882E-01  2.000E+01  2.000E+04 -1.227E-01
   1   12   19     1    19    1.5631E+05 -3.7512E+03   1.6006E+05  0.000E+00  0.000E+00  0.000E+00  3.98609E+01  1.905E-01  2.000E+01  2.000E+04 -1.876E-01
   1   13   20     1    20    1.6006E+05 -1.5047E+03   1.6157E+05  0.000E+00  0.000E+00  0.000E+00  3.93855E+01  1.924E-01  2.000E+01  2.000E+04 -7.524E-02
   1   14   21     1    21    1.6157E+05 -2.6839E+02   1.6184E+05  0.000E+00  0.000E+00  0.000E+00  3.89089E+01  1.930E-01  2.000E+01  2.000E+04 -1.342E-02
   1   14   22     1    22    1.6184E+05  5.3196E+03   1.5652E+05  0.000E+00  0.000E+00  0.000E+00  3.84298E+01  1.912E-01  2.000E+01  2.000E+04  2.660E-01
   1    9   30     2     1    5.0000E+04 -2.5922E+03   5.2592E+04  0.000E+00  0.000E+00  0.000E+00  4.02427E+01  1.177E-01  2.000E+01  2.000E+04 -1.296E-01
   1    9   29     2     2    5.2592E+04 -2.9260E+03   5.5518E+04  0.000E+00  0.000E+00  0.000E+00  3.99964E+01  1.214E-01  2.000E+01  2.000E+04 -1.463E-01
   1    9   28     2     3    5.5518E+04 -3.3097E+03   5.8828E+04  0.000E+00  0.000E+00  0.000E+00  3.97506E+01  1.256E-01  2.000E+01  2.000E+04 -1.655E-01
   1    9   27     2     4    5.8828E+04 -5.9922E+03   6.4820E+04  0.000E+00  0.000E+00  0.000E+00  3.95066E+01  1.316E-01  2.000E+01  2.000E+04 -2.996E-01
   1   10   26     2     5    6.4820E+04 -3.5990E+03   6.8419E+04  0.000E+00  0.000E+00  0.000E+00  3.92626E+01  1.376E-01  2.000E+01  2.000E+04 -1.799E-01
   1   11   25     2     6    6.8419E+04 -2.5523E+03   7.0971E+04  0.000E+00  0.000E+00  0.000E+00  3.90164E+01  1.414E-01  2.000E+01  2.000E+04 -1.276E-01
   1   12   24     2     7    7.0971E+04 -1.7156E+03   7.2687E+04  0.000E+00  0.000E+00  0.000E+00  3.87690E+01  1.440E-01  2.000E+01  2.000E+04 -8.578E-02
   1   13   23     2     8    7.2687E+04 -9.1548E+02   7.3602E+04  0.000E+00  0.000E+00  0.000E+00  3.85206E+01  1.456E-01  2.000E+01  2.000E+04 -4.577E-02
   1   14   22     2     9    7.3602E+04  2.1202E+03   7.1482E+04  0.000E+00  0.000E+00  0.000E+00  3.82699E+01  1.449E-01  2.000E+01  2.000E+04  1.060E-01
   1   14   22     3     1    2.2800E+05 -8.1871E+03   2.3619E+05  0.000E+00  0.000E+00  0.000E+00  3.77545E+01  1.989E-01  2.000E+01  2.000E+04 -4.094E-01
   1   15   23     3     2    2.3619E+05  4.2168E+02   2.3577E+05  0.000E+00  0.000E+00  0.000E+00  3.68676E+01  2.009E-01  2.000E+01  2.000E+04  2.108E-02
   1   15   24     3     3    2.3577E+05  1.7596E+03   2.3401E+05  0.000E+00  0.000E+00  0.000E+00  3.59781E+01  2.004E-01  2.000E+01  2.000E+04  8.798E-02
   1   15   25     3     4    2.3401E+05  3.3081E+03   2.3070E+05  0.000E+00  0.000E+00  0.000E+00  3.50880E+01  1.991E-01  2.000E+01  2.000E+04  1.654E-01
   1   15   26     3     5    2.3070E+05  7.9757E+02   2.2990E+05  0.000E+00  0.000E+00  0.000E+00  3.41980E+01  1.980E-01  2.000E+01  2.000E+04  3.988E-02
   1   16   27     3     6    2.2990E+05  1.8918E+03   2.2801E+05  0.000E+00  0.000E+00  0.000E+00  3.33084E+01  1.973E-01  2.000E+01  2.000E+04  9.459E-02
   1   17   28     3     7    2.2801E+05 -6.7160E+02   2.2868E+05  0.000E+00  0.000E+00  0.000E+00  3.24192E+01  1.970E-01  2.000E+01  2.000E+04 -3.358E-02
   1   18   29     3     8    2.2868E+05 -3.8498E+03   2.3253E+05  0.000E+00  0.000E+00  0.000E+00  3.15315E+01  1.982E-01  2.000E+01  2.000E+04 -1.925E-01
   1   18   30     3     9    2.3253E+05 -4.1144E+03   2.3664E+05  0.000E+00  0.000E+00  0.000E+00  3.06447E+01  2.002E-01  2.000E+01  2.000E+04 -2.057E-01



1
              HEAD IN LAYER   1 AT END OF TIME STEP   1 IN STRESS PERIOD   11
  ---------------------------------------------------------------------------

          1      2      3      4      5      6      7      8      9     10
         11     12     13     14     15     16     17     18     19     20
         21     22     23     24     25     26     27     28     29     30
 .........................................................................
   1  ****** ****** ****** ****** ****** ****** ****** ****** ****** ******
      ****** ****** ****** ****** ****** ****** ****** ****** ****** ******
      ****** ****** ****** ****** ****** ****** ****** ****** ****** ******
   2  ****** ****** ****** ****** ****** ****** ****** ****** ****** ******
      ****** ****** ****** ****** ****** ****** ****** ****** ****** ******
      ****** ****** ****** ****** ****** ****** ****** ****** ****** ******
   3  ****** ****** ****** ****** ****** ****** ****** ****** ****** ******
      ****** ****** ****** ****** ****** ****** ****** ****** ****** ******
      ****** ****** ****** ****** ****** ****** ****** ****** ****** ******
   4  ****** ****** ****** ****** ****** ****** ****** ****** ****** ******
      ****** ****** ****** ****** ****** ****** ****** ****** ****** ******
      ****** ****** ****** ****** ****** ****** ****** ****** ****** ******
   5  ****** ****** ****** ****** ****** ****** ****** ****** ****** ******
      ****** ****** ****** ****** ****** ****** ****** ****** ****** ******
      ****** ****** ****** ****** ****** ****** ****** ****** ****** ******
   6  ****** ****** ****** ****** ****** ****** ****** ****** ****** ******
      ****** ****** ****** ****** ****** ****** ****** ****** ****** ******
      ****** ****** ****** ****** ****** ****** ****** ****** ****** ******
   7  ****** ****** ****** ****** ****** ****** ****** ****** ****** ******
      ****** ****** ****** ****** ****** ****** ****** ****** ****** ******
      ****** ****** ****** ****** ****** ****** ****** ****** ****** ******
   8  ****** ****** ****** ****** ****** ****** ****** ****** ****** ******
      ****** ****** ****** ****** ****** ****** ****** ****** ****** ******
      ****** ****** ****** ****** ****** ****** ****** ****** ****** ******
   9  ****** ****** ****** ****** ****** ****** ****** ****** ****** ******
      ****** ****** ****** ****** ****** ****** ****** ****** ****** ******
      ****** ****** ****** ****** ****** ****** ****** ****** ****** ******
  10  ****** ****** ****** ****** ****** ****** ****** ****** ****** ******
      ****** ****** ****** ****** ****** ****** ****** ****** ****** ******
      ****** ****** ****** ****** ****** ****** ****** ****** ****** ******
  11  ****** ****** ****** ****** ****** ****** ****** ****** ****** ******
      ****** ****** ****** ****** ****** ****** ****** ****** ****** ******
      ****** ****** ****** ****** ****** ****** ****** ****** ****** ******
  12  ****** ****** ****** ****** ****** ****** ****** ****** ****** ******
      ****** ****** ****** ****** ****** ****** ****** ****** ****** ******
      ****** ****** ****** ****** ****** ****** ****** ****** ****** ******
  13  ****** ****** ****** ****** ****** ****** ****** ****** ****** ******
      ****** ****** ****** ****** ****** ****** ****** ****** ****** ******
      ****** ****** ****** ****** ****** ****** ****** ****** ****** ******
  14  ****** ****** ****** ****** ****** ****** ****** ****** ****** ******
      ****** ****** ****** ****** ****** ****** ****** ****** ****** ******
      ****** ****** ****** ****** ****** ****** ****** ****** ****** ******
  15  ****** ****** ****** ****** ****** ****** ****** ****** ****** ******
      ****** ****** ****** ****** ****** ****** ****** ****** ****** ******
      ****** ****** ****** ****** ****** ****** ****** ****** ****** ******
  16  ****** ****** ****** ****** ****** ****** ****** ****** ****** ******
      ****** ****** ****** ****** ****** ****** ****** ****** ****** ******
      ****** ****** ****** ****** ****** ****** ****** ****** ****** ******
  17  ****** ****** ****** ****** ****** ****** ****** ****** ****** ******
      ****** ****** ****** ****** ****** ****** ****** ****** ****** ******
      ****** ****** ****** ****** ****** ****** ****** ****** ****** ******
  18  ****** ****** ****** ****** ****** ****** ****** ****** ****** ******
      ****** ****** ****** ****** ****** ****** ****** ****** ****** ******
      ****** ****** ****** ****** ****** ****** ****** ****** ****** ******
  19  ****** ****** ****** ****** ****** ****** ****** ****** ****** ******
      ****** ****** ****** ****** ****** ****** ****** ****** ****** ******
      ****** ****** ****** ****** ****** ****** ****** ****** ****** ******
  20  ****** ****** ****** ****** ****** ****** ****** ****** ****** ******
      ****** ****** ****** ****** ****** ****** ****** ****** ****** ******
      ****** ****** ****** ****** ****** ****** ****** ****** ****** ******
  21  ****** ****** ****** ****** ****** ****** ****** ****** ****** ******
      ****** ****** ****** ****** ****** ****** ****** ****** ****** ******
      ****** ****** ****** ****** ****** ****** ****** ****** ****** ******
  22  ****** ****** ****** ****** ****** ****** ****** ****** ****** ******
      ****** ****** ****** ****** ****** ****** ****** ****** ****** ******
      ****** ****** ****** ****** ****** ****** ****** ****** ****** ******
  23  ****** ****** ****** ****** ****** ****** ****** ****** ****** ******
      ****** ****** ****** ****** ****** ****** ****** ****** ****** ******
      ****** ****** ****** ****** ****** ****** ****** ****** ****** ******
  24  ****** ****** ****** ****** ****** ****** ****** ****** ****** ******
      ****** ****** ****** ****** ****** ****** ****** ****** ****** ******
      ****** ****** ****** ****** ****** ****** ****** ****** ****** ******
  25  ****** ****** ****** ****** ****** ****** ****** ****** ****** ******
      ****** ****** ****** ****** ****** ****** ****** ****** ****** ******
      ****** ****** ****** ****** ****** ****** ****** ****** ****** ******

 HEAD WILL BE SAVED ON UNIT   51 AT END OF TIME STEP    1, STRESS PERIOD   11
1
  VOLUMETRIC BUDGET FOR ENTIRE MODEL AT END OF TIME STEP    1, STRESS PERIOD  11
  ------------------------------------------------------------------------------

     CUMULATIVE VOLUMES      L**3       RATES FOR THIS TIME STEP      L**3/T
     ------------------                 ------------------------

           IN:                                      IN:
           ---                                      ---
             STORAGE =    24996106.0703               STORAGE =       11796.1796
       CONSTANT HEAD =   115536814.9957         CONSTANT HEAD =      123774.9827
               WELLS =           0.0000                 WELLS =           0.0000
            RECHARGE =    23901600.0000              RECHARGE =           0.0000
      STREAM LEAKAGE =    33793115.3898        STREAM LEAKAGE =       15618.6103

            TOTAL IN =   198227636.4558              TOTAL IN =      151189.7726

          OUT:                                     OUT:
          ----                                     ----
             STORAGE =     2939316.5762               STORAGE =           0.0000
       CONSTANT HEAD =           0.0000         CONSTANT HEAD =           0.0000
               WELLS =    83949984.3982                 WELLS =       48926.6868
            RECHARGE =           0.0000              RECHARGE =           0.0000
      STREAM LEAKAGE =   111338336.4662        STREAM LEAKAGE =      102263.0879

           TOTAL OUT =   198227637.4405             TOTAL OUT =      151189.7747

            IN - OUT =          -0.9847              IN - OUT =      -2.1275E-03

 PERCENT DISCREPANCY =          -0.00     PERCENT DISCREPANCY =          -0.00






         TIME SUMMARY AT END OF TIME STEP    1 IN STRESS PERIOD   11
                    SECONDS     MINUTES      HOURS       DAYS        YEARS
                    -----------------------------------------------------------
   TIME STEP LENGTH 7.86240E+06 1.31040E+05  2184.0      91.000     0.24914    
 STRESS PERIOD TIME 7.86240E+06 1.31040E+05  2184.0      91.000     0.24914    
         TOTAL TIME 8.67456E+07 1.44576E+06  24096.      1004.0      2.7488    
1
1
                            STRESS PERIOD NO.   12, LENGTH =   91.00000    
                            -----------------------------------------------

                              NUMBER OF TIME STEPS =     1

                               MULTIPLIER FOR DELT =     1.500

                            INITIAL TIME STEP SIZE =   91.00000    

 WELL NO.  LAYER   ROW   COL   STRESS RATE         
 --------------------------------------------------
      1      1     17     25     -0.3250E+05
      2      1     16     17     -0.1643E+05
      3      1     14     25       0.000    

      3 WELLS

                 RECHARGE =  1.000000E-03

 REUSING STREAM SEGMENT DATA FROM LAST STRESS PERIOD
 
 SOLVING FOR HEAD 


     6 CALLS TO PCG ROUTINE FOR TIME STEP   1 IN STRESS PERIOD   12
    23 TOTAL ITERATIONS

 OUTPUT CONTROL FOR STRESS PERIOD   12   TIME STEP    1
    SAVE BUDGET
    SAVE HEAD FOR ALL LAYERS
    PRINT HEAD FOR ALL LAYERS
 UBDSV2 SAVING "STREAMFLOW OUT  " ON UNIT  50 AT TIME STEP  1, STRESS PERIOD  12



 STREAM LISTING     PERIOD     12   STEP        1

 LAYER ROW COL. STREAM  RCH.  FLOW INTO     FLOW TO   FLOW OUT OF   OVRLND.     DIRECT     STREAM       STREAM     STREAM     STREAM   STREAMBED  STREAMBED
                SEG.NO.  NO.  STRM. RCH.    AQUIFER    STRM. RCH.    RUNOFF     PRECIP       ET          HEAD       DEPTH      WIDTH   CONDCTNC.   GRADIENT

   1   13    1     1     1    1.0000E+05 -2.8638E+03   1.0286E+05  0.000E+00  0.000E+00  0.000E+00  4.84073E+01  1.459E-01  2.000E+01  2.000E+04 -1.432E-01
   1   13    2     1     2    1.0286E+05 -4.7949E+03   1.0766E+05  0.000E+00  0.000E+00  0.000E+00  4.79333E+01  1.492E-01  2.000E+01  2.000E+04 -2.397E-01
   1   14    3     1     3    1.0766E+05 -3.8601E+03   1.1152E+05  0.000E+00  0.000E+00  0.000E+00  4.74596E+01  1.528E-01  2.000E+01  2.000E+04 -1.930E-01
   1   15    4     1     4    1.1152E+05 -3.7626E+03   1.1528E+05  0.000E+00  0.000E+00  0.000E+00  4.69855E+01  1.560E-01  2.000E+01  2.000E+04 -1.881E-01
   1   16    5     1     5    1.1528E+05 -4.0808E+03   1.1936E+05  0.000E+00  0.000E+00  0.000E+00  4.65115E+01  1.592E-01  2.000E+01  2.000E+04 -2.040E-01
   1   16    6     1     6    1.1936E+05 -3.2225E+03   1.2258E+05  0.000E+00  0.000E+00  0.000E+00  4.60372E+01  1.622E-01  2.000E+01  2.000E+04 -1.611E-01
   1   16    7     1     7    1.2258E+05 -3.2807E+03   1.2587E+05  0.000E+00  0.000E+00  0.000E+00  4.55625E+01  1.648E-01  2.000E+01  2.000E+04 -1.640E-01
   1   16    8     1     8    1.2587E+05 -3.3036E+03   1.2917E+05  0.000E+00  0.000E+00  0.000E+00  4.50878E+01  1.674E-01  2.000E+01  2.000E+04 -1.652E-01
   1   16    9     1     9    1.2917E+05 -3.2735E+03   1.3244E+05  0.000E+00  0.000E+00  0.000E+00  4.46131E+01  1.699E-01  2.000E+01  2.000E+04 -1.637E-01
   1   16   10     1    10    1.3244E+05 -3.1839E+03   1.3563E+05  0.000E+00  0.000E+00  0.000E+00  4.41384E+01  1.724E-01  2.000E+01  2.000E+04 -1.592E-01
   1   16   11     1    11    1.3563E+05 -3.0271E+03   1.3865E+05  0.000E+00  0.000E+00  0.000E+00  4.36635E+01  1.748E-01  2.000E+01  2.000E+04 -1.514E-01
   1   16   12     1    12    1.3865E+05 -3.3600E+03   1.4201E+05  0.000E+00  0.000E+00  0.000E+00  4.31886E+01  1.773E-01  2.000E+01  2.000E+04 -1.680E-01
   1   15   13     1    13    1.4201E+05 -2.6632E+03   1.4468E+05  0.000E+00  0.000E+00  0.000E+00  4.27136E+01  1.795E-01  2.000E+01  2.000E+04 -1.332E-01
   1   14   14     1    14    1.4468E+05 -2.3989E+03   1.4708E+05  0.000E+00  0.000E+00  0.000E+00  4.22383E+01  1.814E-01  2.000E+01  2.000E+04 -1.199E-01
   1   13   15     1    15    1.4708E+05 -2.8092E+03   1.4988E+05  0.000E+00  0.000E+00  0.000E+00  4.17629E+01  1.834E-01  2.000E+01  2.000E+04 -1.405E-01
   1   12   16     1    16    1.4988E+05 -4.8040E+03   1.5469E+05  0.000E+00  0.000E+00  0.000E+00  4.12884E+01  1.862E-01  2.000E+01  2.000E+04 -2.402E-01
   1   12   17     1    17    1.5469E+05 -2.6935E+03   1.5738E+05  0.000E+00  0.000E+00  0.000E+00  4.08139E+01  1.889E-01  2.000E+01  2.000E+04 -1.347E-01
   1   12   18     1    18    1.5738E+05 -2.6271E+03   1.6001E+05  0.000E+00  0.000E+00  0.000E+00  4.03386E+01  1.908E-01  2.000E+01  2.000E+04 -1.314E-01
   1   12   19     1    19    1.6001E+05 -3.9629E+03   1.6397E+05  0.000E+00  0.000E+00  0.000E+00  3.98637E+01  1.932E-01  2.000E+01  2.000E+04 -1.981E-01
   1   13   20     1    20    1.6397E+05 -1.7245E+03   1.6570E+05  0.000E+00  0.000E+00  0.000E+00  3.93884E+01  1.952E-01  2.000E+01  2.000E+04 -8.623E-02
   1   14   21     1    21    1.6570E+05 -4.6666E+02   1.6616E+05  0.000E+00  0.000E+00  0.000E+00  3.89119E+01  1.960E-01  2.000E+01  2.000E+04 -2.333E-02
   1   14   22     1    22    1.6616E+05  5.2758E+03   1.6089E+05  0.000E+00  0.000E+00  0.000E+00  3.84329E+01  1.943E-01  2.000E+01  2.000E+04  2.638E-01
   1    9   30     2     1    5.0000E+04 -2.7717E+03   5.2772E+04  0.000E+00  0.000E+00  0.000E+00  4.02428E+01  1.178E-01  2.000E+01  2.000E+04 -1.386E-01
   1    9   29     2     2    5.2772E+04 -3.1038E+03   5.5875E+04  0.000E+00  0.000E+00  0.000E+00  3.99968E+01  1.218E-01  2.000E+01  2.000E+04 -1.552E-01
   1    9   28     2     3    5.5875E+04 -3.4849E+03   5.9360E+04  0.000E+00  0.000E+00  0.000E+00  3.97512E+01  1.262E-01  2.000E+01  2.000E+04 -1.742E-01
   1    9   27     2     4    5.9360E+04 -6.2129E+03   6.5573E+04  0.000E+00  0.000E+00  0.000E+00  3.95074E+01  1.324E-01  2.000E+01  2.000E+04 -3.106E-01
   1   10   26     2     5    6.5573E+04 -3.8366E+03   6.9410E+04  0.000E+00  0.000E+00  0.000E+00  3.92637E+01  1.387E-01  2.000E+01  2.000E+04 -1.918E-01
   1   11   25     2     6    6.9410E+04 -2.7835E+03   7.2193E+04  0.000E+00  0.000E+00  0.000E+00  3.90178E+01  1.428E-01  2.000E+01  2.000E+04 -1.392E-01
   1   12   24     2     7    7.2193E+04 -1.9255E+03   7.4119E+04  0.000E+00  0.000E+00  0.000E+00  3.87706E+01  1.456E-01  2.000E+01  2.000E+04 -9.627E-02
   1   13   23     2     8    7.4119E+04 -1.0860E+03   7.5205E+04  0.000E+00  0.000E+00  0.000E+00  3.85224E+01  1.474E-01  2.000E+01  2.000E+04 -5.430E-02
   1   14   22     2     9    7.5205E+04  2.0532E+03   7.3152E+04  0.000E+00  0.000E+00  0.000E+00  3.82718E+01  1.468E-01  2.000E+01  2.000E+04  1.027E-01
   1   14   22     3     1    2.3404E+05 -8.2312E+03   2.4227E+05  0.000E+00  0.000E+00  0.000E+00  3.77576E+01  2.020E-01  2.000E+01  2.000E+04 -4.116E-01
   1   15   23     3     2    2.4227E+05  2.3560E+02   2.4203E+05  0.000E+00  0.000E+00  0.000E+00  3.68707E+01  2.041E-01  2.000E+01  2.000E+04  1.178E-02
   1   15   24     3     3    2.4203E+05  1.6145E+03   2.4042E+05  0.000E+00  0.000E+00  0.000E+00  3.59814E+01  2.036E-01  2.000E+01  2.000E+04  8.072E-02
   1   15   25     3     4    2.4042E+05  3.1584E+03   2.3726E+05  0.000E+00  0.000E+00  0.000E+00  3.50913E+01  2.024E-01  2.000E+01  2.000E+04  1.579E-01
   1   15   26     3     5    2.3726E+05  6.0219E+02   2.3666E+05  0.000E+00  0.000E+00  0.000E+00  3.42014E+01  2.014E-01  2.000E+01  2.000E+04  3.011E-02
   1   16   27     3     6    2.3666E+05  1.6566E+03   2.3500E+05  0.000E+00  0.000E+00  0.000E+00  3.33120E+01  2.008E-01  2.000E+01  2.000E+04  8.283E-02
   1   17   28     3     7    2.3500E+05 -9.0932E+02   2.3591E+05  0.000E+00  0.000E+00  0.000E+00  3.24229E+01  2.007E-01  2.000E+01  2.000E+04 -4.547E-02
   1   18   29     3     8    2.3591E+05 -4.0672E+03   2.3998E+05  0.000E+00  0.000E+00  0.000E+00  3.15353E+01  2.019E-01  2.000E+01  2.000E+04 -2.034E-01
   1   18   30     3     9    2.3998E+05 -4.2855E+03   2.4427E+05  0.000E+00  0.000E+00  0.000E+00  3.06485E+01  2.040E-01  2.000E+01  2.000E+04 -2.143E-01



1
              HEAD IN LAYER   1 AT END OF TIME STEP   1 IN STRESS PERIOD   12
  ---------------------------------------------------------------------------

          1      2      3      4      5      6      7      8      9     10
         11     12     13     14     15     16     17     18     19     20
         21     22     23     24     25     26     27     28     29     30
 .........................................................................
   1  ****** ****** ****** ****** ****** ****** ****** ****** ****** ******
      ****** ****** ****** ****** ****** ****** ****** ****** ****** ******
      ****** ****** ****** ****** ****** ****** ****** ****** ****** ******
   2  ****** ****** ****** ****** ****** ****** ****** ****** ****** ******
      ****** ****** ****** ****** ****** ****** ****** ****** ****** ******
      ****** ****** ****** ****** ****** ****** ****** ****** ****** ******
   3  ****** ****** ****** ****** ****** ****** ****** ****** ****** ******
      ****** ****** ****** ****** ****** ****** ****** ****** ****** ******
      ****** ****** ****** ****** ****** ****** ****** ****** ****** ******
   4  ****** ****** ****** ****** ****** ****** ****** ****** ****** ******
      ****** ****** ****** ****** ****** ****** ****** ****** ****** ******
      ****** ****** ****** ****** ****** ****** ****** ****** ****** ******
   5  ****** ****** ****** ****** ****** ****** ****** ****** ****** ******
      ****** ****** ****** ****** ****** ****** ****** ****** ****** ******
      ****** ****** ****** ****** ****** ****** ****** ****** ****** ******
   6  ****** ****** ****** ****** ****** ****** ****** ****** ****** ******
      ****** ****** ****** ****** ****** ****** ****** ****** ****** ******
      ****** ****** ****** ****** ****** ****** ****** ****** ****** ******
   7  ****** ****** ****** ****** ****** ****** ****** ****** ****** ******
      ****** ****** ****** ****** ****** ****** ****** ****** ****** ******
      ****** ****** ****** ****** ****** ****** ****** ****** ****** ******
   8  ****** ****** ****** ****** ****** ****** ****** ****** ****** ******
      ****** ****** ****** ****** ****** ****** ****** ****** ****** ******
      ****** ****** ****** ****** ****** ****** ****** ****** ****** ******
   9  ****** ****** ****** ****** ****** ****** ****** ****** ****** ******
      ****** ****** ****** ****** ****** ****** ****** ****** ****** ******
      ****** ****** ****** ****** ****** ****** ****** ****** ****** ******
  10  ****** ****** ****** ****** ****** ****** ****** ****** ****** ******
      ****** ****** ****** ****** ****** ****** ****** ****** ****** ******
      ****** ****** ****** ****** ****** ****** ****** ****** ****** ******
  11  ****** ****** ****** ****** ****** ****** ****** ****** ****** ******
      ****** ****** ****** ****** ****** ****** ****** ****** ****** ******
      ****** ****** ****** ****** ****** ****** ****** ****** ****** ******
  12  ****** ****** ****** ****** ****** ****** ****** ****** ****** ******
      ****** ****** ****** ****** ****** ****** ****** ****** ****** ******
      ****** ****** ****** ****** ****** ****** ****** ****** ****** ******
  13  ****** ****** ****** ****** ****** ****** ****** ****** ****** ******
      ****** ****** ****** ****** ****** ****** ****** ****** ****** ******
      ****** ****** ****** ****** ****** ****** ****** ****** ****** ******
  14  ****** ****** ****** ****** ****** ****** ****** ****** ****** ******
      ****** ****** ****** ****** ****** ****** ****** ****** ****** ******
      ****** ****** ****** ****** ****** ****** ****** ****** ****** ******
  15  ****** ****** ****** ****** ****** ****** ****** ****** ****** ******
      ****** ****** ****** ****** ****** ****** ****** ****** ****** ******
      ****** ****** ****** ****** ****** ****** ****** ****** ****** ******
  16  ****** ****** ****** ****** ****** ****** ****** ****** ****** ******
      ****** ****** ****** ****** ****** ****** ****** ****** ****** ******
      ****** ****** ****** ****** ****** ****** ****** ****** ****** ******
  17  ****** ****** ****** ****** ****** ****** ****** ****** ****** ******
      ****** ****** ****** ****** ****** ****** ****** ****** ****** ******
      ****** ****** ****** ****** ****** ****** ****** ****** ****** ******
  18  ****** ****** ****** ****** ****** ****** ****** ****** ****** ******
      ****** ****** ****** ****** ****** ****** ****** ****** ****** ******
      ****** ****** ****** ****** ****** ****** ****** ****** ****** ******
  19  ****** ****** ****** ****** ****** ****** ****** ****** ****** ******
      ****** ****** ****** ****** ****** ****** ****** ****** ****** ******
      ****** ****** ****** ****** ****** ****** ****** ****** ****** ******
  20  ****** ****** ****** ****** ****** ****** ****** ****** ****** ******
      ****** ****** ****** ****** ****** ****** ****** ****** ****** ******
      ****** ****** ****** ****** ****** ****** ****** ****** ****** ******
  21  ****** ****** ****** ****** ****** ****** ****** ****** ****** ******
      ****** ****** ****** ****** ****** ****** ****** ****** ****** ******
      ****** ****** ****** ****** ****** ****** ****** ****** ****** ******
  22  ****** ****** ****** ****** ****** ****** ****** ****** ****** ******
      ****** ****** ****** ****** ****** ****** ****** ****** ****** ******
      ****** ****** ****** ****** ****** ****** ****** ****** ****** ******
  23  ****** ****** ****** ****** ****** ****** ****** ****** ****** ******
      ****** ****** ****** ****** ****** ****** ****** ****** ****** ******
      ****** ****** ****** ****** ****** ****** ****** ****** ****** ******
  24  ****** ****** ****** ****** ****** ****** ****** ****** ****** ******
      ****** ****** ****** ****** ****** ****** ****** ****** ****** ******
      ****** ****** ****** ****** ****** ****** ****** ****** ****** ******
  25  ****** ****** ****** ****** ****** ****** ****** ****** ****** ******
      ****** ****** ****** ****** ****** ****** ****** ****** ****** ******
      ****** ****** ****** ****** ****** ****** ****** ****** ****** ******

 HEAD WILL BE SAVED ON UNIT   51 AT END OF TIME STEP    1, STRESS PERIOD   12
1
  VOLUMETRIC BUDGET FOR ENTIRE MODEL AT END OF TIME STEP    1, STRESS PERIOD  12
  ------------------------------------------------------------------------------

     CUMULATIVE VOLUMES      L**3       RATES FOR THIS TIME STEP      L**3/T
     ------------------                 ------------------------

           IN:                                      IN:
           ---                                      ---
             STORAGE =    24996106.0703               STORAGE =           0.0000
       CONSTANT HEAD =   126396981.9799         CONSTANT HEAD =      119342.4943
               WELLS =           0.0000                 WELLS =           0.0000
            RECHARGE =    26413200.0000              RECHARGE =       27600.0000
      STREAM LEAKAGE =    35121375.8994        STREAM LEAKAGE =       14596.2693

            TOTAL IN =   212927663.9496              TOTAL IN =      161538.7637

          OUT:                                     OUT:
          ----                                     ----
             STORAGE =     3280615.5363               STORAGE =        3750.5380
       CONSTANT HEAD =           0.0000         CONSTANT HEAD =           0.0000
               WELLS =    88402312.8959                 WELLS =       48926.6868
            RECHARGE =           0.0000              RECHARGE =           0.0000
      STREAM LEAKAGE =   121244736.4257        STREAM LEAKAGE =      108861.5380

           TOTAL OUT =   212927664.8579             TOTAL OUT =      161538.7628

            IN - OUT =          -0.9083              IN - OUT =       8.3980E-04

 PERCENT DISCREPANCY =          -0.00     PERCENT DISCREPANCY =           0.00






         TIME SUMMARY AT END OF TIME STEP    1 IN STRESS PERIOD   12
                    SECONDS     MINUTES      HOURS       DAYS        YEARS
                    -----------------------------------------------------------
   TIME STEP LENGTH 7.86240E+06 1.31040E+05  2184.0      91.000     0.24914    
 STRESS PERIOD TIME 7.86240E+06 1.31040E+05  2184.0      91.000     0.24914    
         TOTAL TIME 9.46080E+07 1.57680E+06  26280.      1095.0      2.9979    
1

 Run end date and time (yyyy/mm/dd hh:mm:ss): 2018/10/09 13:40:33
 Elapsed run time:  0.078 Seconds

