                                  MODFLOW-2005     
      U.S. GEOLOGICAL SURVEY MODULAR FINITE-DIFFERENCE GROUND-WATER FLOW MODEL
                            VERSION 1.11.00 8/8/2013

 LIST FILE: supply2.lst
                         UNIT   10

 OPENING ..\data\supply.dis
 FILE TYPE:DIS   UNIT   11   STATUS:OLD    
 FORMAT:FORMATTED              ACCESS:SEQUENTIAL          

 OPENING ..\data\supply.ba6
 FILE TYPE:BAS6   UNIT   12   STATUS:OLD    
 FORMAT:FORMATTED              ACCESS:SEQUENTIAL          

 OPENING ..\data\supply.bc6
 FILE TYPE:BCF6   UNIT   13   STATUS:OLD    
 FORMAT:FORMATTED              ACCESS:SEQUENTIAL          

 OPENING ..\data\supply.rch
 FILE TYPE:RCH   UNIT   15   STATUS:OLD    
 FORMAT:FORMATTED              ACCESS:SEQUENTIAL          

 OPENING ..\data\supply2.sfr
 FILE TYPE:SFR   UNIT   16   STATUS:OLD    
 FORMAT:FORMATTED              ACCESS:SEQUENTIAL          

 OPENING ..\data\supply.oc
 FILE TYPE:OC   UNIT   17   STATUS:OLD    
 FORMAT:FORMATTED              ACCESS:SEQUENTIAL          

 OPENING ..\data\supply.pcg
 FILE TYPE:PCG   UNIT   18   STATUS:OLD    
 FORMAT:FORMATTED              ACCESS:SEQUENTIAL          

 OPENING supply2.wel
 FILE TYPE:WEL   UNIT   19   STATUS:OLD    
 FORMAT:FORMATTED              ACCESS:SEQUENTIAL          

 OPENING supply2sf.bin
 FILE TYPE:DATA(BINARY)   UNIT   50   STATUS:UNKNOWN
 FORMAT:BINARY                 ACCESS:SEQUENTIAL          

 OPENING supply2hd.bin
 FILE TYPE:DATA(BINARY)   UNIT   51   STATUS:UNKNOWN
 FORMAT:BINARY                 ACCESS:SEQUENTIAL          

 BAS -- BASIC PACKAGE, VERSION 7, 5/2/2005 INPUT READ FROM UNIT   12
 
 MODFLOW was compiled using uniform precision
 Precision of REAL and DOUBLE PRECISION variables:          15

 DISCRETIZATION INPUT DATA READ FROM UNIT   11
    1 LAYERS        25 ROWS        30 COLUMNS
   12 STRESS PERIOD(S) IN SIMULATION
 MODEL TIME UNIT IS DAYS
 MODEL LENGTH UNIT IS UNDEFINED
  Confining bed flag for each layer:
   0

                     DELR =   200.000    

                     DELC =   200.000    

 TOP ELEVATION OF LAYER 1 =  100.0000    

   MODEL LAYER BOTTOM EL. =   0.00000     FOR LAYER   1


 STRESS PERIOD     LENGTH       TIME STEPS     MULTIPLIER FOR DELT    SS FLAG
 ----------------------------------------------------------------------------
        1         92.00000          1                    1.500         TR
        2         91.00000          1                    1.500         TR
        3         91.00000          1                    1.500         TR
        4         91.00000          1                    1.500         TR
        5         92.00000          1                    1.500         TR
        6         91.00000          1                    1.500         TR
        7         91.00000          1                    1.500         TR
        8         91.00000          1                    1.500         TR
        9         92.00000          1                    1.500         TR
       10         91.00000          1                    1.500         TR
       11         91.00000          1                    1.500         TR
       12         91.00000          1                    1.500         TR

 TRANSIENT SIMULATION



 
 #MODOFC transient water supply sample problem                                   
 #                                                                               
 THE FREE FORMAT OPTION HAS BEEN SELECTED



                     BOUNDARY ARRAY FOR LAYER   1
 READING ON UNIT   12 WITH FORMAT: (20I4)              

 AQUIFER HEAD WILL BE SET TO   0.0000     AT ALL NO-FLOW NODES (IBOUND=0).



                       INITIAL HEAD FOR LAYER   1
 READING ON UNIT   12 WITH FORMAT: (10F13.0)           

 OUTPUT CONTROL IS SPECIFIED ONLY AT TIME STEPS FOR WHICH OUTPUT IS DESIRED
 COMPACT CELL-BY-CELL BUDGET FILES WILL BE WRITTEN
 HEAD PRINT FORMAT CODE IS  18    DRAWDOWN PRINT FORMAT CODE IS   0
 HEADS WILL BE SAVED ON UNIT   51    DRAWDOWNS WILL BE SAVED ON UNIT    0

 BCF -- BLOCK-CENTERED FLOW PACKAGE, VERSION 7, 5/2/2005
         INPUT READ FROM UNIT 13
 TRANSIENT SIMULATION
 HEAD AT CELLS THAT CONVERT TO DRY=   0.0000    
 WETTING CAPABILITY IS NOT ACTIVE
      LAYER  LAYER-TYPE CODE     INTERBLOCK T
      --------------------------------------------
         1            0          0 -- HARMONIC    

 COLUMN TO ROW ANISOTROPY =  1.000000    

     PRIMARY STORAGE COEF =  5.000000E-02 FOR LAYER   1

     TRANSMIS. ALONG ROWS =   5000.00     FOR LAYER   1

 WEL -- WELL PACKAGE, VERSION 7, 5/2/2005 INPUT READ FROM UNIT   19
 # Well package input file written by MMProc
 No named parameters
 MAXIMUM OF      7 ACTIVE WELLS AT ONE TIME


     0 Well parameters

 RCH -- RECHARGE PACKAGE, VERSION 7, 5/2/2005 INPUT READ FROM UNIT   15
 No named parameters
 OPTION 1 -- RECHARGE TO TOP LAYER


     0 Recharge parameters

 SFR7 -- STREAMFLOW ROUTING PACKAGE, VERSION 1.0.7, 2013-01-15
         INPUT READ FROM UNIT  16
 #  Supply2 test problem for GWM-VI
 #  The eighth entry in the first data line is ISTCB2 -
 #    Setting this to a negative number indicates that
 #    streamflows out of the reach will be saved to a
 #    binary file.  The absolute value of ISTCB2 is the
 #    unit to which unformatted flows will be written.
 #
 No named parameters
 Segment information will not be 
 read by reach
 No named parameters
 No specifed inflow files


 NUMBER OF STREAM REACHES IS   40

 NUMBER OF STREAM SEGMENTS IS    3

 NUMBER OF STREAM PARAMETERS IS    0

 NUMBER OF STREAM SEGMENTS DEFINED USING PARAMETERS IS              0

 MAXIMUM ERROR FOR STREAM LEAKAGE RATES IS  1.00E-04

 CONSTANT FOR MANNINGS EQUATION IS  1.2839E+05





   STREAM NETWORK DESCRIPTION: 

   LAYER    ROW    COL   SEGMENT   REACH     LENGTH
                          NUMBER   NUMBER    IN CELL        
   --------------------------------------------------
      1     13      1       1        1    2.0000E+02
      1     13      2       1        2    2.0000E+02
      1     14      3       1        3    2.0000E+02
      1     15      4       1        4    2.0000E+02
      1     16      5       1        5    2.0000E+02
      1     16      6       1        6    2.0000E+02
      1     16      7       1        7    2.0000E+02
      1     16      8       1        8    2.0000E+02
      1     16      9       1        9    2.0000E+02
      1     16     10       1       10    2.0000E+02
      1     16     11       1       11    2.0000E+02
      1     16     12       1       12    2.0000E+02
      1     15     13       1       13    2.0000E+02
      1     14     14       1       14    2.0000E+02
      1     13     15       1       15    2.0000E+02
      1     12     16       1       16    2.0000E+02
      1     12     17       1       17    2.0000E+02
      1     12     18       1       18    2.0000E+02
      1     12     19       1       19    2.0000E+02
      1     13     20       1       20    2.0000E+02
      1     14     21       1       21    2.0000E+02
      1     14     22       1       22    2.0000E+02
      1      9     30       2        1    2.0000E+02
      1      9     29       2        2    2.0000E+02
      1      9     28       2        3    2.0000E+02
      1      9     27       2        4    2.0000E+02
      1     10     26       2        5    2.0000E+02
      1     11     25       2        6    2.0000E+02
      1     12     24       2        7    2.0000E+02
      1     13     23       2        8    2.0000E+02
      1     14     22       2        9    2.0000E+02
      1     14     22       3        1    2.0000E+02
      1     15     23       3        2    2.0000E+02
      1     15     24       3        3    2.0000E+02
      1     15     25       3        4    2.0000E+02
      1     15     26       3        5    2.0000E+02
      1     16     27       3        6    2.0000E+02
      1     17     28       3        7    2.0000E+02
      1     18     29       3        8    2.0000E+02
      1     18     30       3        9    2.0000E+02




 PCG -- CONJUGATE-GRADIENT SOLUTION PACKAGE, VERSION 7, 5/2/2005
 MAXIMUM OF    500 CALLS OF SOLUTION ROUTINE
 MAXIMUM OF      5 INTERNAL ITERATIONS PER CALL TO SOLUTION ROUTINE
 MATRIX PRECONDITIONING TYPE :    1



                                    SOLUTION BY THE CONJUGATE-GRADIENT METHOD
                                   -------------------------------------------
                    MAXIMUM NUMBER OF CALLS TO PCG ROUTINE =      500
                        MAXIMUM ITERATIONS PER CALL TO PCG =        5
                               MATRIX PRECONDITIONING TYPE =        1
        RELAXATION FACTOR (ONLY USED WITH PRECOND. TYPE 1) =    0.10000E+01
 PARAMETER OF POLYNOMIAL PRECOND. = 2 (2) OR IS CALCULATED :        0
                         HEAD CHANGE CRITERION FOR CLOSURE =    0.10000E-05
                     RESIDUAL CHANGE CRITERION FOR CLOSURE =    0.10000E+01
            PCG HEAD AND RESIDUAL CHANGE PRINTOUT INTERVAL =        1
     PRINTING FROM SOLVER IS LIMITED(1) OR SUPPRESSED (>1) =        1
                            STEADY-STATE DAMPING PARAMETER =    0.10000E+01
                               TRANSIENT DAMPING PARAMETER =    0.10000E+01
1
                            STRESS PERIOD NO.    1, LENGTH =   92.00000    
                            -----------------------------------------------

                              NUMBER OF TIME STEPS =     1

                               MULTIPLIER FOR DELT =     1.500

                            INITIAL TIME STEP SIZE =   92.00000    

 WELL NO.  LAYER   ROW   COL   STRESS RATE         
 --------------------------------------------------
      1      1     10     10      -7320.    
      2      1      9     14     -0.5000E+05

      2 WELLS

                 RECHARGE =  5.000000E-04



 CLASSIFICATION & COUNT OF STREAM SEGMENTS BASED ON SOURCE OF INFLOW:

                HEADWATER     DIVERSION     RECEIVES TRIBUTARY FLOW
                ---------     ---------     -----------------------
                     2              0               1



                    INPUT DATA FOR EACH STREAM SEGMENT
 ---------------------------------------------------------------------------------------------

 SEGMENT    SEG.     INFLOW   OVERLAND   STREAM    STREAM   ICALC  OUTFLOW  DIVERSION PRIORITY
    NO.    LENGTH     RATE     RUNOFF      ET       PPT.    METH.  TO SEG.  FROM SEG.    NO.

      1  4.400E+03 1.000E+05 0.000E+00 0.000E+00 0.000E+00    1        3        0        0
      2  1.800E+03 5.000E+04 0.000E+00 0.000E+00 0.000E+00    1        3        0        0
      3  1.800E+03 0.000E+00 0.000E+00 0.000E+00 0.000E+00    1        0        0        0


         STREAMBED PROPERTIES AND STREAM DIMENSIONS

 SEGMENT     BED HYD. COND.      BED THICKNESS     ELEV.-TOP OF BED     WIDTH OF STREAM     DEPTH OF STREAM    STREAM ROUGHNESS
    No.     UPPER     LOWER     UPPER     LOWER     UPPER     LOWER     UPPER     LOWER     UPPER     LOWER   CHANNEL      BANK

     1  5.000E+00 5.000E+00 1.000E+00 1.000E+00 4.850E+01 3.800E+01 2.000E+01 2.000E+01                     5.000E-02
     2  5.000E+00 5.000E+00 1.000E+00 1.000E+00 4.025E+01 3.800E+01 2.000E+01 2.000E+01                     5.000E-02
     3  5.000E+00 5.000E+00 1.000E+00 1.000E+00 3.800E+01 3.000E+01 2.000E+01 2.000E+01                     5.000E-02



 
 SOLVING FOR HEAD 


     8 CALLS TO PCG ROUTINE FOR TIME STEP   1 IN STRESS PERIOD    1
    32 TOTAL ITERATIONS

 OUTPUT CONTROL FOR STRESS PERIOD    1   TIME STEP    1
    SAVE BUDGET
    SAVE HEAD FOR ALL LAYERS
    PRINT HEAD FOR ALL LAYERS
 UBDSV2 SAVING "STREAMFLOW OUT  " ON UNIT  50 AT TIME STEP  1, STRESS PERIOD   1



 STREAM LISTING     PERIOD      1   STEP        1

 LAYER ROW COL. STREAM  RCH.  FLOW INTO     FLOW TO   FLOW OUT OF   OVRLND.     DIRECT     STREAM       STREAM     STREAM     STREAM   STREAMBED  STREAMBED
                SEG.NO.  NO.  STRM. RCH.    AQUIFER    STRM. RCH.    RUNOFF     PRECIP       ET          HEAD       DEPTH      WIDTH   CONDCTNC.   GRADIENT

   1   13    1     1     1    1.0000E+05 -3.1109E+04   1.3111E+05  0.000E+00  0.000E+00  0.000E+00  4.84191E+01  1.578E-01  2.000E+01  2.000E+04 -1.555E+00
   1   13    2     1     2    1.3111E+05 -4.1316E+04   1.7243E+05  0.000E+00  0.000E+00  0.000E+00  4.79699E+01  1.858E-01  2.000E+01  2.000E+04 -2.066E+00
   1   14    3     1     3    1.7243E+05 -3.6947E+04   2.0937E+05  0.000E+00  0.000E+00  0.000E+00  4.75200E+01  2.132E-01  2.000E+01  2.000E+04 -1.847E+00
   1   15    4     1     4    2.0937E+05 -3.6097E+04   2.4547E+05  0.000E+00  0.000E+00  0.000E+00  4.70664E+01  2.368E-01  2.000E+01  2.000E+04 -1.805E+00
   1   16    5     1     5    2.4547E+05 -3.7272E+04   2.8274E+05  0.000E+00  0.000E+00  0.000E+00  4.66113E+01  2.591E-01  2.000E+01  2.000E+04 -1.864E+00
   1   16    6     1     6    2.8274E+05 -3.2433E+04   3.1518E+05  0.000E+00  0.000E+00  0.000E+00  4.61541E+01  2.791E-01  2.000E+01  2.000E+04 -1.622E+00
   1   16    7     1     7    3.1518E+05 -3.2121E+04   3.4730E+05  0.000E+00  0.000E+00  0.000E+00  4.56945E+01  2.968E-01  2.000E+01  2.000E+04 -1.606E+00
   1   16    8     1     8    3.4730E+05 -3.2212E+04   3.7951E+05  0.000E+00  0.000E+00  0.000E+00  4.52342E+01  3.137E-01  2.000E+01  2.000E+04 -1.611E+00
   1   16    9     1     9    3.7951E+05 -3.2207E+04   4.1172E+05  0.000E+00  0.000E+00  0.000E+00  4.47733E+01  3.301E-01  2.000E+01  2.000E+04 -1.610E+00
   1   16   10     1    10    4.1172E+05 -3.2180E+04   4.4390E+05  0.000E+00  0.000E+00  0.000E+00  4.43119E+01  3.460E-01  2.000E+01  2.000E+04 -1.609E+00
   1   16   11     1    11    4.4390E+05 -3.2846E+04   4.7674E+05  0.000E+00  0.000E+00  0.000E+00  4.38502E+01  3.615E-01  2.000E+01  2.000E+04 -1.642E+00
   1   16   12     1    12    4.7674E+05 -3.8988E+04   5.1573E+05  0.000E+00  0.000E+00  0.000E+00  4.33896E+01  3.782E-01  2.000E+01  2.000E+04 -1.949E+00
   1   15   13     1    13    5.1573E+05 -3.7435E+04   5.5317E+05  0.000E+00  0.000E+00  0.000E+00  4.29295E+01  3.954E-01  2.000E+01  2.000E+04 -1.872E+00
   1   14   14     1    14    5.5317E+05 -3.7214E+04   5.9038E+05  0.000E+00  0.000E+00  0.000E+00  4.24686E+01  4.118E-01  2.000E+01  2.000E+04 -1.861E+00
   1   13   15     1    15    5.9038E+05 -3.8160E+04   6.2854E+05  0.000E+00  0.000E+00  0.000E+00  4.20074E+01  4.278E-01  2.000E+01  2.000E+04 -1.908E+00
   1   12   16     1    16    6.2854E+05 -4.2716E+04   6.7126E+05  0.000E+00  0.000E+00  0.000E+00  4.15469E+01  4.447E-01  2.000E+01  2.000E+04 -2.136E+00
   1   12   17     1    17    6.7126E+05 -3.4834E+04   7.0609E+05  0.000E+00  0.000E+00  0.000E+00  4.10854E+01  4.604E-01  2.000E+01  2.000E+04 -1.742E+00
   1   12   18     1    18    7.0609E+05 -3.4071E+04   7.4016E+05  0.000E+00  0.000E+00  0.000E+00  4.06218E+01  4.741E-01  2.000E+01  2.000E+04 -1.704E+00
   1   12   19     1    19    7.4016E+05 -3.8920E+04   7.7908E+05  0.000E+00  0.000E+00  0.000E+00  4.01587E+01  4.883E-01  2.000E+01  2.000E+04 -1.946E+00
   1   13   20     1    20    7.7908E+05 -3.0017E+04   8.0910E+05  0.000E+00  0.000E+00  0.000E+00  3.96947E+01  5.015E-01  2.000E+01  2.000E+04 -1.501E+00
   1   14   21     1    21    8.0910E+05 -2.2790E+04   8.3189E+05  0.000E+00  0.000E+00  0.000E+00  3.92273E+01  5.114E-01  2.000E+01  2.000E+04 -1.140E+00
   1   14   22     1    22    8.3189E+05 -2.9711E+03   8.3486E+05  0.000E+00  0.000E+00  0.000E+00  3.87548E+01  5.162E-01  2.000E+01  2.000E+04 -1.486E-01
   1    9   30     2     1    5.0000E+04 -2.9601E+04   7.9601E+04  0.000E+00  0.000E+00  0.000E+00  4.02604E+01  1.354E-01  2.000E+01  2.000E+04 -1.480E+00
   1    9   29     2     2    7.9601E+04 -3.2027E+04   1.1163E+05  0.000E+00  0.000E+00  0.000E+00  4.00460E+01  1.710E-01  2.000E+01  2.000E+04 -1.601E+00
   1    9   28     2     3    1.1163E+05 -3.6310E+04   1.4794E+05  0.000E+00  0.000E+00  0.000E+00  3.98304E+01  2.054E-01  2.000E+01  2.000E+04 -1.816E+00
   1    9   27     2     4    1.4794E+05 -5.0820E+04   1.9876E+05  0.000E+00  0.000E+00  0.000E+00  3.96193E+01  2.443E-01  2.000E+01  2.000E+04 -2.541E+00
   1   10   26     2     5    1.9876E+05 -3.7177E+04   2.3593E+05  0.000E+00  0.000E+00  0.000E+00  3.94048E+01  2.798E-01  2.000E+01  2.000E+04 -1.859E+00
   1   11   25     2     6    2.3593E+05 -2.8742E+04   2.6468E+05  0.000E+00  0.000E+00  0.000E+00  3.91795E+01  3.045E-01  2.000E+01  2.000E+04 -1.437E+00
   1   12   24     2     7    2.6468E+05 -2.1780E+04   2.8646E+05  0.000E+00  0.000E+00  0.000E+00  3.89476E+01  3.226E-01  2.000E+01  2.000E+04 -1.089E+00
   1   13   23     2     8    2.8646E+05 -1.5806E+04   3.0226E+05  0.000E+00  0.000E+00  0.000E+00  3.87107E+01  3.357E-01  2.000E+01  2.000E+04 -7.903E-01
   1   14   22     2     9    3.0226E+05 -8.6887E+03   3.1095E+05  0.000E+00  0.000E+00  0.000E+00  3.84690E+01  3.440E-01  2.000E+01  2.000E+04 -4.344E-01
   1   14   22     3     1    1.1458E+06 -1.6542E+04   1.1624E+06  0.000E+00  0.000E+00  0.000E+00  3.80763E+01  5.208E-01  2.000E+01  2.000E+04 -8.271E-01
   1   15   23     3     2    1.1624E+06 -2.6700E+04   1.1891E+06  0.000E+00  0.000E+00  0.000E+00  3.71933E+01  5.266E-01  2.000E+01  2.000E+04 -1.335E+00
   1   15   24     3     3    1.1891E+06 -2.2362E+04   1.2114E+06  0.000E+00  0.000E+00  0.000E+00  3.63109E+01  5.332E-01  2.000E+01  2.000E+04 -1.118E+00
   1   15   25     3     4    1.2114E+06 -2.2094E+04   1.2335E+06  0.000E+00  0.000E+00  0.000E+00  3.54280E+01  5.391E-01  2.000E+01  2.000E+04 -1.105E+00
   1   15   26     3     5    1.2335E+06 -2.5525E+04   1.2590E+06  0.000E+00  0.000E+00  0.000E+00  3.45453E+01  5.453E-01  2.000E+01  2.000E+04 -1.276E+00
   1   16   27     3     6    1.2590E+06 -3.3255E+04   1.2923E+06  0.000E+00  0.000E+00  0.000E+00  3.36641E+01  5.530E-01  2.000E+01  2.000E+04 -1.663E+00
   1   17   28     3     7    1.2923E+06 -4.0268E+04   1.3326E+06  0.000E+00  0.000E+00  0.000E+00  3.27847E+01  5.625E-01  2.000E+01  2.000E+04 -2.013E+00
   1   18   29     3     8    1.3326E+06 -5.0722E+04   1.3833E+06  0.000E+00  0.000E+00  0.000E+00  3.19075E+01  5.741E-01  2.000E+01  2.000E+04 -2.536E+00
   1   18   30     3     9    1.3833E+06 -4.6718E+04   1.4300E+06  0.000E+00  0.000E+00  0.000E+00  3.10309E+01  5.864E-01  2.000E+01  2.000E+04 -2.336E+00



1
              HEAD IN LAYER   1 AT END OF TIME STEP   1 IN STRESS PERIOD    1
  ---------------------------------------------------------------------------

          1      2      3      4      5      6      7      8      9     10
         11     12     13     14     15     16     17     18     19     20
         21     22     23     24     25     26     27     28     29     30
 .........................................................................
   1  ****** ****** ****** ****** ****** ****** ****** ****** ****** ******
      ****** ****** ****** ****** ****** ****** ****** ****** ****** ******
      ****** ****** ****** ****** ****** ****** ****** ****** ****** ******
   2  ****** ****** ****** ****** ****** ****** ****** ****** ****** ******
      ****** ****** ****** ****** ****** ****** ****** ****** ****** ******
      ****** ****** ****** ****** ****** ****** ****** ****** ****** ******
   3  ****** ****** ****** ****** ****** ****** ****** ****** ****** ******
      ****** ****** ****** ****** ****** ****** ****** ****** ****** ******
      ****** ****** ****** ****** ****** ****** ****** ****** ****** ******
   4  ****** ****** ****** ****** ****** ****** ****** ****** ****** ******
      ****** ****** ****** ****** ****** ****** ****** ****** ****** ******
      ****** ****** ****** ****** ****** ****** ****** ****** ****** ******
   5  ****** ****** ****** ****** ****** ****** ****** ****** ****** ******
      ****** ****** ****** ****** ****** ****** ****** ****** ****** ******
      ****** ****** ****** ****** ****** ****** ****** ****** ****** ******
   6  ****** ****** ****** ****** ****** ****** ****** ****** ****** ******
      ****** ****** ****** ****** ****** ****** ****** ****** ****** ******
      ****** ****** ****** ****** ****** ****** ****** ****** ****** ******
   7  ****** ****** ****** ****** ****** ****** ****** ****** ****** ******
      ****** ****** ****** ****** ****** ****** ****** ****** ****** ******
      ****** ****** ****** ****** ****** ****** ****** ****** ****** ******
   8  ****** ****** ****** ****** ****** ****** ****** ****** ****** ******
      ****** ****** ****** ****** ****** ****** ****** ****** ****** ******
      ****** ****** ****** ****** ****** ****** ****** ****** ****** ******
   9  ****** ****** ****** ****** ****** ****** ****** ****** ****** ******
      ****** ****** ****** ****** ****** ****** ****** ****** ****** ******
      ****** ****** ****** ****** ****** ****** ****** ****** ****** ******
  10  ****** ****** ****** ****** ****** ****** ****** ****** ****** ******
      ****** ****** ****** ****** ****** ****** ****** ****** ****** ******
      ****** ****** ****** ****** ****** ****** ****** ****** ****** ******
  11  ****** ****** ****** ****** ****** ****** ****** ****** ****** ******
      ****** ****** ****** ****** ****** ****** ****** ****** ****** ******
      ****** ****** ****** ****** ****** ****** ****** ****** ****** ******
  12  ****** ****** ****** ****** ****** ****** ****** ****** ****** ******
      ****** ****** ****** ****** ****** ****** ****** ****** ****** ******
      ****** ****** ****** ****** ****** ****** ****** ****** ****** ******
  13  ****** ****** ****** ****** ****** ****** ****** ****** ****** ******
      ****** ****** ****** ****** ****** ****** ****** ****** ****** ******
      ****** ****** ****** ****** ****** ****** ****** ****** ****** ******
  14  ****** ****** ****** ****** ****** ****** ****** ****** ****** ******
      ****** ****** ****** ****** ****** ****** ****** ****** ****** ******
      ****** ****** ****** ****** ****** ****** ****** ****** ****** ******
  15  ****** ****** ****** ****** ****** ****** ****** ****** ****** ******
      ****** ****** ****** ****** ****** ****** ****** ****** ****** ******
      ****** ****** ****** ****** ****** ****** ****** ****** ****** ******
  16  ****** ****** ****** ****** ****** ****** ****** ****** ****** ******
      ****** ****** ****** ****** ****** ****** ****** ****** ****** ******
      ****** ****** ****** ****** ****** ****** ****** ****** ****** ******
  17  ****** ****** ****** ****** ****** ****** ****** ****** ****** ******
      ****** ****** ****** ****** ****** ****** ****** ****** ****** ******
      ****** ****** ****** ****** ****** ****** ****** ****** ****** ******
  18  ****** ****** ****** ****** ****** ****** ****** ****** ****** ******
      ****** ****** ****** ****** ****** ****** ****** ****** ****** ******
      ****** ****** ****** ****** ****** ****** ****** ****** ****** ******
  19  ****** ****** ****** ****** ****** ****** ****** ****** ****** ******
      ****** ****** ****** ****** ****** ****** ****** ****** ****** ******
      ****** ****** ****** ****** ****** ****** ****** ****** ****** ******
  20  ****** ****** ****** ****** ****** ****** ****** ****** ****** ******
      ****** ****** ****** ****** ****** ****** ****** ****** ****** ******
      ****** ****** ****** ****** ****** ****** ****** ****** ****** ******
  21  ****** ****** ****** ****** ****** ****** ****** ****** ****** ******
      ****** ****** ****** ****** ****** ****** ****** ****** ****** ******
      ****** ****** ****** ****** ****** ****** ****** ****** ****** ******
  22  ****** ****** ****** ****** ****** ****** ****** ****** ****** ******
      ****** ****** ****** ****** ****** ****** ****** ****** ****** ******
      ****** ****** ****** ****** ****** ****** ****** ****** ****** ******
  23  ****** ****** ****** ****** ****** ****** ****** ****** ****** ******
      ****** ****** ****** ****** ****** ****** ****** ****** ****** ******
      ****** ****** ****** ****** ****** ****** ****** ****** ****** ******
  24  ****** ****** ****** ****** ****** ****** ****** ****** ****** ******
      ****** ****** ****** ****** ****** ****** ****** ****** ****** ******
      ****** ****** ****** ****** ****** ****** ****** ****** ****** ******
  25  ****** ****** ****** ****** ****** ****** ****** ****** ****** ******
      ****** ****** ****** ****** ****** ****** ****** ****** ****** ******
      ****** ****** ****** ****** ****** ****** ****** ****** ****** ******

 HEAD WILL BE SAVED ON UNIT   51 AT END OF TIME STEP    1, STRESS PERIOD    1
1
  VOLUMETRIC BUDGET FOR ENTIRE MODEL AT END OF TIME STEP    1, STRESS PERIOD   1
  ------------------------------------------------------------------------------

     CUMULATIVE VOLUMES      L**3       RATES FOR THIS TIME STEP      L**3/T
     ------------------                 ------------------------

           IN:                                      IN:
           ---                                      ---
             STORAGE =    19276335.8121               STORAGE =      209525.3893
       CONSTANT HEAD =   102487052.2953         CONSTANT HEAD =     1113989.6989
               WELLS =           0.0000                 WELLS =           0.0000
            RECHARGE =     1269600.0000              RECHARGE =       13800.0000
      STREAM LEAKAGE =           0.0000        STREAM LEAKAGE =           0.0000

            TOTAL IN =   123032988.1074              TOTAL IN =     1337315.0881

          OUT:                                     OUT:
          ----                                     ----
             STORAGE =           0.0000               STORAGE =           0.0000
       CONSTANT HEAD =           0.0000         CONSTANT HEAD =           0.0000
               WELLS =     5273471.5777                 WELLS =       57320.3432
            RECHARGE =           0.0000              RECHARGE =           0.0000
      STREAM LEAKAGE =   117759518.3756        STREAM LEAKAGE =     1279994.7650

           TOTAL OUT =   123032989.9533             TOTAL OUT =     1337315.1082

            IN - OUT =          -1.8459              IN - OUT =      -2.0064E-02

 PERCENT DISCREPANCY =          -0.00     PERCENT DISCREPANCY =          -0.00






         TIME SUMMARY AT END OF TIME STEP    1 IN STRESS PERIOD    1
                    SECONDS     MINUTES      HOURS       DAYS        YEARS
                    -----------------------------------------------------------
   TIME STEP LENGTH 7.94880E+06 1.32480E+05  2208.0      92.000     0.25188    
 STRESS PERIOD TIME 7.94880E+06 1.32480E+05  2208.0      92.000     0.25188    
         TOTAL TIME 7.94880E+06 1.32480E+05  2208.0      92.000     0.25188    
1
1
                            STRESS PERIOD NO.    2, LENGTH =   91.00000    
                            -----------------------------------------------

                              NUMBER OF TIME STEPS =     1

                               MULTIPLIER FOR DELT =     1.500

                            INITIAL TIME STEP SIZE =   91.00000    

 WELL NO.  LAYER   ROW   COL   STRESS RATE         
 --------------------------------------------------
      1      1     10     10      -7320.    
      2      1      9     14     -0.2268E+05
      3      1      2     13     -0.5000E+05

      3 WELLS

                 RECHARGE =  2.000000E-03

 REUSING STREAM SEGMENT DATA FROM LAST STRESS PERIOD
 
 SOLVING FOR HEAD 


     6 CALLS TO PCG ROUTINE FOR TIME STEP   1 IN STRESS PERIOD    2
    25 TOTAL ITERATIONS

 OUTPUT CONTROL FOR STRESS PERIOD    2   TIME STEP    1
    SAVE BUDGET
    SAVE HEAD FOR ALL LAYERS
    PRINT HEAD FOR ALL LAYERS
 UBDSV2 SAVING "STREAMFLOW OUT  " ON UNIT  50 AT TIME STEP  1, STRESS PERIOD   2



 STREAM LISTING     PERIOD      2   STEP        1

 LAYER ROW COL. STREAM  RCH.  FLOW INTO     FLOW TO   FLOW OUT OF   OVRLND.     DIRECT     STREAM       STREAM     STREAM     STREAM   STREAMBED  STREAMBED
                SEG.NO.  NO.  STRM. RCH.    AQUIFER    STRM. RCH.    RUNOFF     PRECIP       ET          HEAD       DEPTH      WIDTH   CONDCTNC.   GRADIENT

   1   13    1     1     1    1.0000E+05 -2.8014E+04   1.2801E+05  0.000E+00  0.000E+00  0.000E+00  4.84179E+01  1.565E-01  2.000E+01  2.000E+04 -1.401E+00
   1   13    2     1     2    1.2801E+05 -3.7678E+04   1.6569E+05  0.000E+00  0.000E+00  0.000E+00  4.79663E+01  1.822E-01  2.000E+01  2.000E+04 -1.884E+00
   1   14    3     1     3    1.6569E+05 -3.3220E+04   1.9891E+05  0.000E+00  0.000E+00  0.000E+00  4.75142E+01  2.074E-01  2.000E+01  2.000E+04 -1.661E+00
   1   15    4     1     4    1.9891E+05 -3.2512E+04   2.3142E+05  0.000E+00  0.000E+00  0.000E+00  4.70586E+01  2.291E-01  2.000E+01  2.000E+04 -1.626E+00
   1   16    5     1     5    2.3142E+05 -3.4153E+04   2.6558E+05  0.000E+00  0.000E+00  0.000E+00  4.66020E+01  2.498E-01  2.000E+01  2.000E+04 -1.708E+00
   1   16    6     1     6    2.6558E+05 -2.9715E+04   2.9529E+05  0.000E+00  0.000E+00  0.000E+00  4.61435E+01  2.685E-01  2.000E+01  2.000E+04 -1.486E+00
   1   16    7     1     7    2.9529E+05 -2.9444E+04   3.2474E+05  0.000E+00  0.000E+00  0.000E+00  4.56829E+01  2.852E-01  2.000E+01  2.000E+04 -1.472E+00
   1   16    8     1     8    3.2474E+05 -2.9552E+04   3.5429E+05  0.000E+00  0.000E+00  0.000E+00  4.52216E+01  3.012E-01  2.000E+01  2.000E+04 -1.478E+00
   1   16    9     1     9    3.5429E+05 -2.9578E+04   3.8387E+05  0.000E+00  0.000E+00  0.000E+00  4.47598E+01  3.167E-01  2.000E+01  2.000E+04 -1.479E+00
   1   16   10     1    10    3.8387E+05 -2.9588E+04   4.1345E+05  0.000E+00  0.000E+00  0.000E+00  4.42976E+01  3.317E-01  2.000E+01  2.000E+04 -1.479E+00
   1   16   11     1    11    4.1345E+05 -3.0243E+04   4.4370E+05  0.000E+00  0.000E+00  0.000E+00  4.38350E+01  3.464E-01  2.000E+01  2.000E+04 -1.512E+00
   1   16   12     1    12    4.4370E+05 -3.5959E+04   4.7966E+05  0.000E+00  0.000E+00  0.000E+00  4.33735E+01  3.622E-01  2.000E+01  2.000E+04 -1.798E+00
   1   15   13     1    13    4.7966E+05 -3.4180E+04   5.1384E+05  0.000E+00  0.000E+00  0.000E+00  4.29125E+01  3.784E-01  2.000E+01  2.000E+04 -1.709E+00
   1   14   14     1    14    5.1384E+05 -3.4197E+04   5.4803E+05  0.000E+00  0.000E+00  0.000E+00  4.24507E+01  3.939E-01  2.000E+01  2.000E+04 -1.710E+00
   1   13   15     1    15    5.4803E+05 -3.5744E+04   5.8378E+05  0.000E+00  0.000E+00  0.000E+00  4.19888E+01  4.092E-01  2.000E+01  2.000E+04 -1.787E+00
   1   12   16     1    16    5.8378E+05 -4.1102E+04   6.2488E+05  0.000E+00  0.000E+00  0.000E+00  4.15280E+01  4.257E-01  2.000E+01  2.000E+04 -2.055E+00
   1   12   17     1    17    6.2488E+05 -3.2863E+04   6.5774E+05  0.000E+00  0.000E+00  0.000E+00  4.10661E+01  4.411E-01  2.000E+01  2.000E+04 -1.643E+00
   1   12   18     1    18    6.5774E+05 -3.1776E+04   6.8952E+05  0.000E+00  0.000E+00  0.000E+00  4.06021E+01  4.543E-01  2.000E+01  2.000E+04 -1.589E+00
   1   12   19     1    19    6.8952E+05 -3.6132E+04   7.2565E+05  0.000E+00  0.000E+00  0.000E+00  4.01384E+01  4.679E-01  2.000E+01  2.000E+04 -1.807E+00
   1   13   20     1    20    7.2565E+05 -2.6981E+04   7.5263E+05  0.000E+00  0.000E+00  0.000E+00  3.96735E+01  4.804E-01  2.000E+01  2.000E+04 -1.349E+00
   1   14   21     1    21    7.5263E+05 -2.0115E+04   7.7275E+05  0.000E+00  0.000E+00  0.000E+00  3.92054E+01  4.895E-01  2.000E+01  2.000E+04 -1.006E+00
   1   14   22     1    22    7.7275E+05 -1.9276E+03   7.7467E+05  0.000E+00  0.000E+00  0.000E+00  3.87323E+01  4.937E-01  2.000E+01  2.000E+04 -9.638E-02
   1    9   30     2     1    5.0000E+04 -2.6961E+04   7.6961E+04  0.000E+00  0.000E+00  0.000E+00  4.02587E+01  1.337E-01  2.000E+01  2.000E+04 -1.348E+00
   1    9   29     2     2    7.6961E+04 -2.9417E+04   1.0638E+05  0.000E+00  0.000E+00  0.000E+00  4.00417E+01  1.667E-01  2.000E+01  2.000E+04 -1.471E+00
   1    9   28     2     3    1.0638E+05 -3.3693E+04   1.4007E+05  0.000E+00  0.000E+00  0.000E+00  3.98241E+01  1.991E-01  2.000E+01  2.000E+04 -1.685E+00
   1    9   27     2     4    1.4007E+05 -4.7836E+04   1.8791E+05  0.000E+00  0.000E+00  0.000E+00  3.96113E+01  2.363E-01  2.000E+01  2.000E+04 -2.392E+00
   1   10   26     2     5    1.8791E+05 -3.3802E+04   2.2171E+05  0.000E+00  0.000E+00  0.000E+00  3.93950E+01  2.700E-01  2.000E+01  2.000E+04 -1.690E+00
   1   11   25     2     6    2.2171E+05 -2.5409E+04   2.4712E+05  0.000E+00  0.000E+00  0.000E+00  3.91678E+01  2.928E-01  2.000E+01  2.000E+04 -1.270E+00
   1   12   24     2     7    2.4712E+05 -1.8781E+04   2.6590E+05  0.000E+00  0.000E+00  0.000E+00  3.89341E+01  3.091E-01  2.000E+01  2.000E+04 -9.390E-01
   1   13   23     2     8    2.6590E+05 -1.3382E+04   2.7928E+05  0.000E+00  0.000E+00  0.000E+00  3.86955E+01  3.205E-01  2.000E+01  2.000E+04 -6.691E-01
   1   14   22     2     9    2.7928E+05 -7.5174E+03   2.8680E+05  0.000E+00  0.000E+00  0.000E+00  3.84529E+01  3.279E-01  2.000E+01  2.000E+04 -3.759E-01
   1   14   22     3     1    1.0615E+06 -1.5515E+04   1.0770E+06  0.000E+00  0.000E+00  0.000E+00  3.80530E+01  4.974E-01  2.000E+01  2.000E+04 -7.757E-01
   1   15   23     3     2    1.0770E+06 -2.4187E+04   1.1012E+06  0.000E+00  0.000E+00  0.000E+00  3.71696E+01  5.030E-01  2.000E+01  2.000E+04 -1.209E+00
   1   15   24     3     3    1.1012E+06 -2.0131E+04   1.1213E+06  0.000E+00  0.000E+00  0.000E+00  3.62869E+01  5.091E-01  2.000E+01  2.000E+04 -1.007E+00
   1   15   25     3     4    1.1213E+06 -1.9724E+04   1.1410E+06  0.000E+00  0.000E+00  0.000E+00  3.54034E+01  5.145E-01  2.000E+01  2.000E+04 -9.862E-01
   1   15   26     3     5    1.1410E+06 -2.2546E+04   1.1636E+06  0.000E+00  0.000E+00  0.000E+00  3.45203E+01  5.203E-01  2.000E+01  2.000E+04 -1.127E+00
   1   16   27     3     6    1.1636E+06 -2.9829E+04   1.1934E+06  0.000E+00  0.000E+00  0.000E+00  3.36385E+01  5.273E-01  2.000E+01  2.000E+04 -1.491E+00
   1   17   28     3     7    1.1934E+06 -3.6906E+04   1.2303E+06  0.000E+00  0.000E+00  0.000E+00  3.27585E+01  5.363E-01  2.000E+01  2.000E+04 -1.845E+00
   1   18   29     3     8    1.2303E+06 -4.7862E+04   1.2782E+06  0.000E+00  0.000E+00  0.000E+00  3.18808E+01  5.474E-01  2.000E+01  2.000E+04 -2.393E+00
   1   18   30     3     9    1.2782E+06 -4.4190E+04   1.3224E+06  0.000E+00  0.000E+00  0.000E+00  3.10038E+01  5.594E-01  2.000E+01  2.000E+04 -2.210E+00



1
              HEAD IN LAYER   1 AT END OF TIME STEP   1 IN STRESS PERIOD    2
  ---------------------------------------------------------------------------

          1      2      3      4      5      6      7      8      9     10
         11     12     13     14     15     16     17     18     19     20
         21     22     23     24     25     26     27     28     29     30
 .........................................................................
   1  ****** ****** ****** ****** ****** ****** ****** ****** ****** ******
      ****** ****** ****** ****** ****** ****** ****** ****** ****** ******
      ****** ****** ****** ****** ****** ****** ****** ****** ****** ******
   2  ****** ****** ****** ****** ****** ****** ****** ****** ****** ******
      ****** ****** ****** ****** ****** ****** ****** ****** ****** ******
      ****** ****** ****** ****** ****** ****** ****** ****** ****** ******
   3  ****** ****** ****** ****** ****** ****** ****** ****** ****** ******
      ****** ****** ****** ****** ****** ****** ****** ****** ****** ******
      ****** ****** ****** ****** ****** ****** ****** ****** ****** ******
   4  ****** ****** ****** ****** ****** ****** ****** ****** ****** ******
      ****** ****** ****** ****** ****** ****** ****** ****** ****** ******
      ****** ****** ****** ****** ****** ****** ****** ****** ****** ******
   5  ****** ****** ****** ****** ****** ****** ****** ****** ****** ******
      ****** ****** ****** ****** ****** ****** ****** ****** ****** ******
      ****** ****** ****** ****** ****** ****** ****** ****** ****** ******
   6  ****** ****** ****** ****** ****** ****** ****** ****** ****** ******
      ****** ****** ****** ****** ****** ****** ****** ****** ****** ******
      ****** ****** ****** ****** ****** ****** ****** ****** ****** ******
   7  ****** ****** ****** ****** ****** ****** ****** ****** ****** ******
      ****** ****** ****** ****** ****** ****** ****** ****** ****** ******
      ****** ****** ****** ****** ****** ****** ****** ****** ****** ******
   8  ****** ****** ****** ****** ****** ****** ****** ****** ****** ******
      ****** ****** ****** ****** ****** ****** ****** ****** ****** ******
      ****** ****** ****** ****** ****** ****** ****** ****** ****** ******
   9  ****** ****** ****** ****** ****** ****** ****** ****** ****** ******
      ****** ****** ****** ****** ****** ****** ****** ****** ****** ******
      ****** ****** ****** ****** ****** ****** ****** ****** ****** ******
  10  ****** ****** ****** ****** ****** ****** ****** ****** ****** ******
      ****** ****** ****** ****** ****** ****** ****** ****** ****** ******
      ****** ****** ****** ****** ****** ****** ****** ****** ****** ******
  11  ****** ****** ****** ****** ****** ****** ****** ****** ****** ******
      ****** ****** ****** ****** ****** ****** ****** ****** ****** ******
      ****** ****** ****** ****** ****** ****** ****** ****** ****** ******
  12  ****** ****** ****** ****** ****** ****** ****** ****** ****** ******
      ****** ****** ****** ****** ****** ****** ****** ****** ****** ******
      ****** ****** ****** ****** ****** ****** ****** ****** ****** ******
  13  ****** ****** ****** ****** ****** ****** ****** ****** ****** ******
      ****** ****** ****** ****** ****** ****** ****** ****** ****** ******
      ****** ****** ****** ****** ****** ****** ****** ****** ****** ******
  14  ****** ****** ****** ****** ****** ****** ****** ****** ****** ******
      ****** ****** ****** ****** ****** ****** ****** ****** ****** ******
      ****** ****** ****** ****** ****** ****** ****** ****** ****** ******
  15  ****** ****** ****** ****** ****** ****** ****** ****** ****** ******
      ****** ****** ****** ****** ****** ****** ****** ****** ****** ******
      ****** ****** ****** ****** ****** ****** ****** ****** ****** ******
  16  ****** ****** ****** ****** ****** ****** ****** ****** ****** ******
      ****** ****** ****** ****** ****** ****** ****** ****** ****** ******
      ****** ****** ****** ****** ****** ****** ****** ****** ****** ******
  17  ****** ****** ****** ****** ****** ****** ****** ****** ****** ******
      ****** ****** ****** ****** ****** ****** ****** ****** ****** ******
      ****** ****** ****** ****** ****** ****** ****** ****** ****** ******
  18  ****** ****** ****** ****** ****** ****** ****** ****** ****** ******
      ****** ****** ****** ****** ****** ****** ****** ****** ****** ******
      ****** ****** ****** ****** ****** ****** ****** ****** ****** ******
  19  ****** ****** ****** ****** ****** ****** ****** ****** ****** ******
      ****** ****** ****** ****** ****** ****** ****** ****** ****** ******
      ****** ****** ****** ****** ****** ****** ****** ****** ****** ******
  20  ****** ****** ****** ****** ****** ****** ****** ****** ****** ******
      ****** ****** ****** ****** ****** ****** ****** ****** ****** ******
      ****** ****** ****** ****** ****** ****** ****** ****** ****** ******
  21  ****** ****** ****** ****** ****** ****** ****** ****** ****** ******
      ****** ****** ****** ****** ****** ****** ****** ****** ****** ******
      ****** ****** ****** ****** ****** ****** ****** ****** ****** ******
  22  ****** ****** ****** ****** ****** ****** ****** ****** ****** ******
      ****** ****** ****** ****** ****** ****** ****** ****** ****** ******
      ****** ****** ****** ****** ****** ****** ****** ****** ****** ******
  23  ****** ****** ****** ****** ****** ****** ****** ****** ****** ******
      ****** ****** ****** ****** ****** ****** ****** ****** ****** ******
      ****** ****** ****** ****** ****** ****** ****** ****** ****** ******
  24  ****** ****** ****** ****** ****** ****** ****** ****** ****** ******
      ****** ****** ****** ****** ****** ****** ****** ****** ****** ******
      ****** ****** ****** ****** ****** ****** ****** ****** ****** ******
  25  ****** ****** ****** ****** ****** ****** ****** ****** ****** ******
      ****** ****** ****** ****** ****** ****** ****** ****** ****** ******
      ****** ****** ****** ****** ****** ****** ****** ****** ****** ******

 HEAD WILL BE SAVED ON UNIT   51 AT END OF TIME STEP    1, STRESS PERIOD    2
1
  VOLUMETRIC BUDGET FOR ENTIRE MODEL AT END OF TIME STEP    1, STRESS PERIOD   2
  ------------------------------------------------------------------------------

     CUMULATIVE VOLUMES      L**3       RATES FOR THIS TIME STEP      L**3/T
     ------------------                 ------------------------

           IN:                                      IN:
           ---                                      ---
             STORAGE =    19893108.0762               STORAGE =        6777.7172
       CONSTANT HEAD =   210821647.5978         CONSTANT HEAD =     1190490.0583
               WELLS =           0.0000                 WELLS =           0.0000
            RECHARGE =     6292800.0000              RECHARGE =       55200.0000
      STREAM LEAKAGE =           0.0000        STREAM LEAKAGE =           0.0000

            TOTAL IN =   237007555.6740              TOTAL IN =     1252467.7755

          OUT:                                     OUT:
          ----                                     ----
             STORAGE =        9575.9777               STORAGE =         105.2305
       CONSTANT HEAD =           0.0000         CONSTANT HEAD =           0.0000
               WELLS =    12553471.5777                 WELLS =       80000.0000
            RECHARGE =           0.0000              RECHARGE =           0.0000
      STREAM LEAKAGE =   224444511.5440        STREAM LEAKAGE =     1172362.5623

           TOTAL OUT =   237007559.0995             TOTAL OUT =     1252467.7928

            IN - OUT =          -3.4255              IN - OUT =      -1.7358E-02

 PERCENT DISCREPANCY =          -0.00     PERCENT DISCREPANCY =          -0.00






         TIME SUMMARY AT END OF TIME STEP    1 IN STRESS PERIOD    2
                    SECONDS     MINUTES      HOURS       DAYS        YEARS
                    -----------------------------------------------------------
   TIME STEP LENGTH 7.86240E+06 1.31040E+05  2184.0      91.000     0.24914    
 STRESS PERIOD TIME 7.86240E+06 1.31040E+05  2184.0      91.000     0.24914    
         TOTAL TIME 1.58112E+07 2.63520E+05  4392.0      183.00     0.50103    
1
1
                            STRESS PERIOD NO.    3, LENGTH =   91.00000    
                            -----------------------------------------------

                              NUMBER OF TIME STEPS =     1

                               MULTIPLIER FOR DELT =     1.500

                            INITIAL TIME STEP SIZE =   91.00000    

 WELL NO.  LAYER   ROW   COL   STRESS RATE         
 --------------------------------------------------
      1      1     10     10      -7320.    
      2      1      9     14     -0.2622E+05

      2 WELLS

                 RECHARGE =   0.00000    

 REUSING STREAM SEGMENT DATA FROM LAST STRESS PERIOD
 
 SOLVING FOR HEAD 


     6 CALLS TO PCG ROUTINE FOR TIME STEP   1 IN STRESS PERIOD    3
    23 TOTAL ITERATIONS

 OUTPUT CONTROL FOR STRESS PERIOD    3   TIME STEP    1
    SAVE BUDGET
    SAVE HEAD FOR ALL LAYERS
    PRINT HEAD FOR ALL LAYERS
 UBDSV2 SAVING "STREAMFLOW OUT  " ON UNIT  50 AT TIME STEP  1, STRESS PERIOD   3



 STREAM LISTING     PERIOD      3   STEP        1

 LAYER ROW COL. STREAM  RCH.  FLOW INTO     FLOW TO   FLOW OUT OF   OVRLND.     DIRECT     STREAM       STREAM     STREAM     STREAM   STREAMBED  STREAMBED
                SEG.NO.  NO.  STRM. RCH.    AQUIFER    STRM. RCH.    RUNOFF     PRECIP       ET          HEAD       DEPTH      WIDTH   CONDCTNC.   GRADIENT

   1   13    1     1     1    1.0000E+05 -2.7070E+04   1.2707E+05  0.000E+00  0.000E+00  0.000E+00  4.84175E+01  1.561E-01  2.000E+01  2.000E+04 -1.354E+00
   1   13    2     1     2    1.2707E+05 -3.6558E+04   1.6363E+05  0.000E+00  0.000E+00  0.000E+00  4.79651E+01  1.810E-01  2.000E+01  2.000E+04 -1.828E+00
   1   14    3     1     3    1.6363E+05 -3.2116E+04   1.9574E+05  0.000E+00  0.000E+00  0.000E+00  4.75124E+01  2.056E-01  2.000E+01  2.000E+04 -1.606E+00
   1   15    4     1     4    1.9574E+05 -3.1443E+04   2.2719E+05  0.000E+00  0.000E+00  0.000E+00  4.70563E+01  2.267E-01  2.000E+01  2.000E+04 -1.572E+00
   1   16    5     1     5    2.2719E+05 -3.3178E+04   2.6037E+05  0.000E+00  0.000E+00  0.000E+00  4.65992E+01  2.469E-01  2.000E+01  2.000E+04 -1.659E+00
   1   16    6     1     6    2.6037E+05 -2.8877E+04   2.8924E+05  0.000E+00  0.000E+00  0.000E+00  4.61403E+01  2.653E-01  2.000E+01  2.000E+04 -1.444E+00
   1   16    7     1     7    2.8924E+05 -2.8619E+04   3.1786E+05  0.000E+00  0.000E+00  0.000E+00  4.56793E+01  2.816E-01  2.000E+01  2.000E+04 -1.431E+00
   1   16    8     1     8    3.1786E+05 -2.8728E+04   3.4659E+05  0.000E+00  0.000E+00  0.000E+00  4.52177E+01  2.973E-01  2.000E+01  2.000E+04 -1.436E+00
   1   16    9     1     9    3.4659E+05 -2.8755E+04   3.7535E+05  0.000E+00  0.000E+00  0.000E+00  4.47556E+01  3.125E-01  2.000E+01  2.000E+04 -1.438E+00
   1   16   10     1    10    3.7535E+05 -2.8766E+04   4.0411E+05  0.000E+00  0.000E+00  0.000E+00  4.42931E+01  3.272E-01  2.000E+01  2.000E+04 -1.438E+00
   1   16   11     1    11    4.0411E+05 -2.9403E+04   4.3351E+05  0.000E+00  0.000E+00  0.000E+00  4.38303E+01  3.416E-01  2.000E+01  2.000E+04 -1.470E+00
   1   16   12     1    12    4.3351E+05 -3.4966E+04   4.6848E+05  0.000E+00  0.000E+00  0.000E+00  4.33685E+01  3.571E-01  2.000E+01  2.000E+04 -1.748E+00
   1   15   13     1    13    4.6848E+05 -3.3095E+04   5.0157E+05  0.000E+00  0.000E+00  0.000E+00  4.29072E+01  3.731E-01  2.000E+01  2.000E+04 -1.655E+00
   1   14   14     1    14    5.0157E+05 -3.3078E+04   5.3465E+05  0.000E+00  0.000E+00  0.000E+00  4.24449E+01  3.881E-01  2.000E+01  2.000E+04 -1.654E+00
   1   13   15     1    15    5.3465E+05 -3.4632E+04   5.6928E+05  0.000E+00  0.000E+00  0.000E+00  4.19827E+01  4.032E-01  2.000E+01  2.000E+04 -1.732E+00
   1   12   16     1    16    5.6928E+05 -4.0058E+04   6.0934E+05  0.000E+00  0.000E+00  0.000E+00  4.15216E+01  4.193E-01  2.000E+01  2.000E+04 -2.003E+00
   1   12   17     1    17    6.0934E+05 -3.2048E+04   6.4139E+05  0.000E+00  0.000E+00  0.000E+00  4.10595E+01  4.345E-01  2.000E+01  2.000E+04 -1.602E+00
   1   12   18     1    18    6.4139E+05 -3.1009E+04   6.7240E+05  0.000E+00  0.000E+00  0.000E+00  4.05953E+01  4.475E-01  2.000E+01  2.000E+04 -1.550E+00
   1   12   19     1    19    6.7240E+05 -3.5299E+04   7.0770E+05  0.000E+00  0.000E+00  0.000E+00  4.01314E+01  4.609E-01  2.000E+01  2.000E+04 -1.765E+00
   1   13   20     1    20    7.0770E+05 -2.6158E+04   7.3386E+05  0.000E+00  0.000E+00  0.000E+00  3.96663E+01  4.732E-01  2.000E+01  2.000E+04 -1.308E+00
   1   14   21     1    21    7.3386E+05 -1.9380E+04   7.5324E+05  0.000E+00  0.000E+00  0.000E+00  3.91980E+01  4.821E-01  2.000E+01  2.000E+04 -9.690E-01
   1   14   22     1    22    7.5324E+05 -1.6730E+03   7.5491E+05  0.000E+00  0.000E+00  0.000E+00  3.87248E+01  4.862E-01  2.000E+01  2.000E+04 -8.365E-02
   1    9   30     2     1    5.0000E+04 -2.6307E+04   7.6307E+04  0.000E+00  0.000E+00  0.000E+00  4.02583E+01  1.333E-01  2.000E+01  2.000E+04 -1.315E+00
   1    9   29     2     2    7.6307E+04 -2.8766E+04   1.0507E+05  0.000E+00  0.000E+00  0.000E+00  4.00406E+01  1.656E-01  2.000E+01  2.000E+04 -1.438E+00
   1    9   28     2     3    1.0507E+05 -3.3024E+04   1.3810E+05  0.000E+00  0.000E+00  0.000E+00  3.98225E+01  1.975E-01  2.000E+01  2.000E+04 -1.651E+00
   1    9   27     2     4    1.3810E+05 -4.7029E+04   1.8513E+05  0.000E+00  0.000E+00  0.000E+00  3.96092E+01  2.342E-01  2.000E+01  2.000E+04 -2.351E+00
   1   10   26     2     5    1.8513E+05 -3.2964E+04   2.1809E+05  0.000E+00  0.000E+00  0.000E+00  3.93925E+01  2.675E-01  2.000E+01  2.000E+04 -1.648E+00
   1   11   25     2     6    2.1809E+05 -2.4606E+04   2.4270E+05  0.000E+00  0.000E+00  0.000E+00  3.91648E+01  2.898E-01  2.000E+01  2.000E+04 -1.230E+00
   1   12   24     2     7    2.4270E+05 -1.8066E+04   2.6076E+05  0.000E+00  0.000E+00  0.000E+00  3.89306E+01  3.056E-01  2.000E+01  2.000E+04 -9.033E-01
   1   13   23     2     8    2.6076E+05 -1.2802E+04   2.7356E+05  0.000E+00  0.000E+00  0.000E+00  3.86917E+01  3.167E-01  2.000E+01  2.000E+04 -6.401E-01
   1   14   22     2     9    2.7356E+05 -7.1937E+03   2.8076E+05  0.000E+00  0.000E+00  0.000E+00  3.84488E+01  3.238E-01  2.000E+01  2.000E+04 -3.597E-01
   1   14   22     3     1    1.0357E+06 -1.5254E+04   1.0509E+06  0.000E+00  0.000E+00  0.000E+00  3.80457E+01  4.902E-01  2.000E+01  2.000E+04 -7.627E-01
   1   15   23     3     2    1.0509E+06 -2.3492E+04   1.0744E+06  0.000E+00  0.000E+00  0.000E+00  3.71623E+01  4.956E-01  2.000E+01  2.000E+04 -1.175E+00
   1   15   24     3     3    1.0744E+06 -1.9561E+04   1.0940E+06  0.000E+00  0.000E+00  0.000E+00  3.62794E+01  5.016E-01  2.000E+01  2.000E+04 -9.781E-01
   1   15   25     3     4    1.0940E+06 -1.9159E+04   1.1131E+06  0.000E+00  0.000E+00  0.000E+00  3.53959E+01  5.070E-01  2.000E+01  2.000E+04 -9.579E-01
   1   15   26     3     5    1.1131E+06 -2.1884E+04   1.1350E+06  0.000E+00  0.000E+00  0.000E+00  3.45126E+01  5.126E-01  2.000E+01  2.000E+04 -1.094E+00
   1   16   27     3     6    1.1350E+06 -2.9026E+04   1.1640E+06  0.000E+00  0.000E+00  0.000E+00  3.36306E+01  5.195E-01  2.000E+01  2.000E+04 -1.451E+00
   1   17   28     3     7    1.1640E+06 -3.6085E+04   1.2001E+06  0.000E+00  0.000E+00  0.000E+00  3.27505E+01  5.283E-01  2.000E+01  2.000E+04 -1.804E+00
   1   18   29     3     8    1.2001E+06 -4.7096E+04   1.2472E+06  0.000E+00  0.000E+00  0.000E+00  3.18727E+01  5.394E-01  2.000E+01  2.000E+04 -2.355E+00
   1   18   30     3     9    1.2472E+06 -4.3553E+04   1.2908E+06  0.000E+00  0.000E+00  0.000E+00  3.09957E+01  5.513E-01  2.000E+01  2.000E+04 -2.178E+00



1
              HEAD IN LAYER   1 AT END OF TIME STEP   1 IN STRESS PERIOD    3
  ---------------------------------------------------------------------------

          1      2      3      4      5      6      7      8      9     10
         11     12     13     14     15     16     17     18     19     20
         21     22     23     24     25     26     27     28     29     30
 .........................................................................
   1  ****** ****** ****** ****** ****** ****** ****** ****** ****** ******
      ****** ****** ****** ****** ****** ****** ****** ****** ****** ******
      ****** ****** ****** ****** ****** ****** ****** ****** ****** ******
   2  ****** ****** ****** ****** ****** ****** ****** ****** ****** ******
      ****** ****** ****** ****** ****** ****** ****** ****** ****** ******
      ****** ****** ****** ****** ****** ****** ****** ****** ****** ******
   3  ****** ****** ****** ****** ****** ****** ****** ****** ****** ******
      ****** ****** ****** ****** ****** ****** ****** ****** ****** ******
      ****** ****** ****** ****** ****** ****** ****** ****** ****** ******
   4  ****** ****** ****** ****** ****** ****** ****** ****** ****** ******
      ****** ****** ****** ****** ****** ****** ****** ****** ****** ******
      ****** ****** ****** ****** ****** ****** ****** ****** ****** ******
   5  ****** ****** ****** ****** ****** ****** ****** ****** ****** ******
      ****** ****** ****** ****** ****** ****** ****** ****** ****** ******
      ****** ****** ****** ****** ****** ****** ****** ****** ****** ******
   6  ****** ****** ****** ****** ****** ****** ****** ****** ****** ******
      ****** ****** ****** ****** ****** ****** ****** ****** ****** ******
      ****** ****** ****** ****** ****** ****** ****** ****** ****** ******
   7  ****** ****** ****** ****** ****** ****** ****** ****** ****** ******
      ****** ****** ****** ****** ****** ****** ****** ****** ****** ******
      ****** ****** ****** ****** ****** ****** ****** ****** ****** ******
   8  ****** ****** ****** ****** ****** ****** ****** ****** ****** ******
      ****** ****** ****** ****** ****** ****** ****** ****** ****** ******
      ****** ****** ****** ****** ****** ****** ****** ****** ****** ******
   9  ****** ****** ****** ****** ****** ****** ****** ****** ****** ******
      ****** ****** ****** ****** ****** ****** ****** ****** ****** ******
      ****** ****** ****** ****** ****** ****** ****** ****** ****** ******
  10  ****** ****** ****** ****** ****** ****** ****** ****** ****** ******
      ****** ****** ****** ****** ****** ****** ****** ****** ****** ******
      ****** ****** ****** ****** ****** ****** ****** ****** ****** ******
  11  ****** ****** ****** ****** ****** ****** ****** ****** ****** ******
      ****** ****** ****** ****** ****** ****** ****** ****** ****** ******
      ****** ****** ****** ****** ****** ****** ****** ****** ****** ******
  12  ****** ****** ****** ****** ****** ****** ****** ****** ****** ******
      ****** ****** ****** ****** ****** ****** ****** ****** ****** ******
      ****** ****** ****** ****** ****** ****** ****** ****** ****** ******
  13  ****** ****** ****** ****** ****** ****** ****** ****** ****** ******
      ****** ****** ****** ****** ****** ****** ****** ****** ****** ******
      ****** ****** ****** ****** ****** ****** ****** ****** ****** ******
  14  ****** ****** ****** ****** ****** ****** ****** ****** ****** ******
      ****** ****** ****** ****** ****** ****** ****** ****** ****** ******
      ****** ****** ****** ****** ****** ****** ****** ****** ****** ******
  15  ****** ****** ****** ****** ****** ****** ****** ****** ****** ******
      ****** ****** ****** ****** ****** ****** ****** ****** ****** ******
      ****** ****** ****** ****** ****** ****** ****** ****** ****** ******
  16  ****** ****** ****** ****** ****** ****** ****** ****** ****** ******
      ****** ****** ****** ****** ****** ****** ****** ****** ****** ******
      ****** ****** ****** ****** ****** ****** ****** ****** ****** ******
  17  ****** ****** ****** ****** ****** ****** ****** ****** ****** ******
      ****** ****** ****** ****** ****** ****** ****** ****** ****** ******
      ****** ****** ****** ****** ****** ****** ****** ****** ****** ******
  18  ****** ****** ****** ****** ****** ****** ****** ****** ****** ******
      ****** ****** ****** ****** ****** ****** ****** ****** ****** ******
      ****** ****** ****** ****** ****** ****** ****** ****** ****** ******
  19  ****** ****** ****** ****** ****** ****** ****** ****** ****** ******
      ****** ****** ****** ****** ****** ****** ****** ****** ****** ******
      ****** ****** ****** ****** ****** ****** ****** ****** ****** ******
  20  ****** ****** ****** ****** ****** ****** ****** ****** ****** ******
      ****** ****** ****** ****** ****** ****** ****** ****** ****** ******
      ****** ****** ****** ****** ****** ****** ****** ****** ****** ******
  21  ****** ****** ****** ****** ****** ****** ****** ****** ****** ******
      ****** ****** ****** ****** ****** ****** ****** ****** ****** ******
      ****** ****** ****** ****** ****** ****** ****** ****** ****** ******
  22  ****** ****** ****** ****** ****** ****** ****** ****** ****** ******
      ****** ****** ****** ****** ****** ****** ****** ****** ****** ******
      ****** ****** ****** ****** ****** ****** ****** ****** ****** ******
  23  ****** ****** ****** ****** ****** ****** ****** ****** ****** ******
      ****** ****** ****** ****** ****** ****** ****** ****** ****** ******
      ****** ****** ****** ****** ****** ****** ****** ****** ****** ******
  24  ****** ****** ****** ****** ****** ****** ****** ****** ****** ******
      ****** ****** ****** ****** ****** ****** ****** ****** ****** ******
      ****** ****** ****** ****** ****** ****** ****** ****** ****** ******
  25  ****** ****** ****** ****** ****** ****** ****** ****** ****** ******
      ****** ****** ****** ****** ****** ****** ****** ****** ****** ******
      ****** ****** ****** ****** ****** ****** ****** ****** ****** ******

 HEAD WILL BE SAVED ON UNIT   51 AT END OF TIME STEP    1, STRESS PERIOD    3
1
  VOLUMETRIC BUDGET FOR ENTIRE MODEL AT END OF TIME STEP    1, STRESS PERIOD   3
  ------------------------------------------------------------------------------

     CUMULATIVE VOLUMES      L**3       RATES FOR THIS TIME STEP      L**3/T
     ------------------                 ------------------------

           IN:                                      IN:
           ---                                      ---
             STORAGE =    20111825.3978               STORAGE =        2403.4871
       CONSTANT HEAD =   317498813.3710         CONSTANT HEAD =     1172276.5470
               WELLS =           0.0000                 WELLS =           0.0000
            RECHARGE =     6292800.0000              RECHARGE =           0.0000
      STREAM LEAKAGE =           0.0000        STREAM LEAKAGE =           0.0000

            TOTAL IN =   343903438.7688              TOTAL IN =     1174680.0340

          OUT:                                     OUT:
          ----                                     ----
             STORAGE =       43190.7191               STORAGE =         369.3928
       CONSTANT HEAD =           0.0000         CONSTANT HEAD =           0.0000
               WELLS =    15605230.6636                 WELLS =       33535.8141
            RECHARGE =           0.0000              RECHARGE =           0.0000
      STREAM LEAKAGE =   328255023.5046        STREAM LEAKAGE =     1140774.8567

           TOTAL OUT =   343903444.8872             TOTAL OUT =     1174680.0636

            IN - OUT =          -6.1184              IN - OUT =      -2.9593E-02

 PERCENT DISCREPANCY =          -0.00     PERCENT DISCREPANCY =          -0.00






         TIME SUMMARY AT END OF TIME STEP    1 IN STRESS PERIOD    3
                    SECONDS     MINUTES      HOURS       DAYS        YEARS
                    -----------------------------------------------------------
   TIME STEP LENGTH 7.86240E+06 1.31040E+05  2184.0      91.000     0.24914    
 STRESS PERIOD TIME 7.86240E+06 1.31040E+05  2184.0      91.000     0.24914    
         TOTAL TIME 2.36736E+07 3.94560E+05  6576.0      274.00     0.75017    
1
1
                            STRESS PERIOD NO.    4, LENGTH =   91.00000    
                            -----------------------------------------------

                              NUMBER OF TIME STEPS =     1

                               MULTIPLIER FOR DELT =     1.500

                            INITIAL TIME STEP SIZE =   91.00000    

 WELL NO.  LAYER   ROW   COL   STRESS RATE         
 --------------------------------------------------
      1      1     10     10      -7320.    
      2      1      9     14     -0.2108E+05
      3      1      2     13     -0.5250E+05

      3 WELLS

                 RECHARGE =  1.000000E-03

 REUSING STREAM SEGMENT DATA FROM LAST STRESS PERIOD
 
 SOLVING FOR HEAD 


     5 CALLS TO PCG ROUTINE FOR TIME STEP   1 IN STRESS PERIOD    4
    20 TOTAL ITERATIONS

 OUTPUT CONTROL FOR STRESS PERIOD    4   TIME STEP    1
    SAVE BUDGET
    SAVE HEAD FOR ALL LAYERS
    PRINT HEAD FOR ALL LAYERS
 UBDSV2 SAVING "STREAMFLOW OUT  " ON UNIT  50 AT TIME STEP  1, STRESS PERIOD   4



 STREAM LISTING     PERIOD      4   STEP        1

 LAYER ROW COL. STREAM  RCH.  FLOW INTO     FLOW TO   FLOW OUT OF   OVRLND.     DIRECT     STREAM       STREAM     STREAM     STREAM   STREAMBED  STREAMBED
                SEG.NO.  NO.  STRM. RCH.    AQUIFER    STRM. RCH.    RUNOFF     PRECIP       ET          HEAD       DEPTH      WIDTH   CONDCTNC.   GRADIENT

   1   13    1     1     1    1.0000E+05 -2.7394E+04   1.2739E+05  0.000E+00  0.000E+00  0.000E+00  4.84176E+01  1.562E-01  2.000E+01  2.000E+04 -1.370E+00
   1   13    2     1     2    1.2739E+05 -3.6933E+04   1.6433E+05  0.000E+00  0.000E+00  0.000E+00  4.79655E+01  1.814E-01  2.000E+01  2.000E+04 -1.847E+00
   1   14    3     1     3    1.6433E+05 -3.2508E+04   1.9684E+05  0.000E+00  0.000E+00  0.000E+00  4.75130E+01  2.062E-01  2.000E+01  2.000E+04 -1.625E+00
   1   15    4     1     4    1.9684E+05 -3.1837E+04   2.2867E+05  0.000E+00  0.000E+00  0.000E+00  4.70571E+01  2.275E-01  2.000E+01  2.000E+04 -1.592E+00
   1   16    5     1     5    2.2867E+05 -3.3553E+04   2.6223E+05  0.000E+00  0.000E+00  0.000E+00  4.66002E+01  2.479E-01  2.000E+01  2.000E+04 -1.678E+00
   1   16    6     1     6    2.6223E+05 -2.9196E+04   2.9142E+05  0.000E+00  0.000E+00  0.000E+00  4.61415E+01  2.665E-01  2.000E+01  2.000E+04 -1.460E+00
   1   16    7     1     7    2.9142E+05 -2.8933E+04   3.2035E+05  0.000E+00  0.000E+00  0.000E+00  4.56806E+01  2.829E-01  2.000E+01  2.000E+04 -1.447E+00
   1   16    8     1     8    3.2035E+05 -2.9043E+04   3.4940E+05  0.000E+00  0.000E+00  0.000E+00  4.52192E+01  2.987E-01  2.000E+01  2.000E+04 -1.452E+00
   1   16    9     1     9    3.4940E+05 -2.9074E+04   3.7847E+05  0.000E+00  0.000E+00  0.000E+00  4.47572E+01  3.140E-01  2.000E+01  2.000E+04 -1.454E+00
   1   16   10     1    10    3.7847E+05 -2.9090E+04   4.0756E+05  0.000E+00  0.000E+00  0.000E+00  4.42947E+01  3.288E-01  2.000E+01  2.000E+04 -1.454E+00
   1   16   11     1    11    4.0756E+05 -2.9740E+04   4.3730E+05  0.000E+00  0.000E+00  0.000E+00  4.38320E+01  3.434E-01  2.000E+01  2.000E+04 -1.487E+00
   1   16   12     1    12    4.3730E+05 -3.5368E+04   4.7267E+05  0.000E+00  0.000E+00  0.000E+00  4.33704E+01  3.590E-01  2.000E+01  2.000E+04 -1.768E+00
   1   15   13     1    13    4.7267E+05 -3.3548E+04   5.0622E+05  0.000E+00  0.000E+00  0.000E+00  4.29092E+01  3.751E-01  2.000E+01  2.000E+04 -1.677E+00
   1   14   14     1    14    5.0622E+05 -3.3579E+04   5.3980E+05  0.000E+00  0.000E+00  0.000E+00  4.24471E+01  3.903E-01  2.000E+01  2.000E+04 -1.679E+00
   1   13   15     1    15    5.3980E+05 -3.5180E+04   5.7498E+05  0.000E+00  0.000E+00  0.000E+00  4.19851E+01  4.055E-01  2.000E+01  2.000E+04 -1.759E+00
   1   12   16     1    16    5.7498E+05 -4.0608E+04   6.1558E+05  0.000E+00  0.000E+00  0.000E+00  4.15241E+01  4.218E-01  2.000E+01  2.000E+04 -2.030E+00
   1   12   17     1    17    6.1558E+05 -3.2427E+04   6.4801E+05  0.000E+00  0.000E+00  0.000E+00  4.10622E+01  4.372E-01  2.000E+01  2.000E+04 -1.621E+00
   1   12   18     1    18    6.4801E+05 -3.1332E+04   6.7934E+05  0.000E+00  0.000E+00  0.000E+00  4.05980E+01  4.503E-01  2.000E+01  2.000E+04 -1.567E+00
   1   12   19     1    19    6.7934E+05 -3.5628E+04   7.1497E+05  0.000E+00  0.000E+00  0.000E+00  4.01342E+01  4.638E-01  2.000E+01  2.000E+04 -1.781E+00
   1   13   20     1    20    7.1497E+05 -2.6485E+04   7.4146E+05  0.000E+00  0.000E+00  0.000E+00  3.96693E+01  4.761E-01  2.000E+01  2.000E+04 -1.324E+00
   1   14   21     1    21    7.4146E+05 -1.9674E+04   7.6113E+05  0.000E+00  0.000E+00  0.000E+00  3.92010E+01  4.851E-01  2.000E+01  2.000E+04 -9.837E-01
   1   14   22     1    22    7.6113E+05 -1.7766E+03   7.6291E+05  0.000E+00  0.000E+00  0.000E+00  3.87279E+01  4.892E-01  2.000E+01  2.000E+04 -8.883E-02
   1    9   30     2     1    5.0000E+04 -2.6577E+04   7.6577E+04  0.000E+00  0.000E+00  0.000E+00  4.02585E+01  1.335E-01  2.000E+01  2.000E+04 -1.329E+00
   1    9   29     2     2    7.6577E+04 -2.9034E+04   1.0561E+05  0.000E+00  0.000E+00  0.000E+00  4.00411E+01  1.661E-01  2.000E+01  2.000E+04 -1.452E+00
   1    9   28     2     3    1.0561E+05 -3.3296E+04   1.3891E+05  0.000E+00  0.000E+00  0.000E+00  3.98231E+01  1.981E-01  2.000E+01  2.000E+04 -1.665E+00
   1    9   27     2     4    1.3891E+05 -4.7348E+04   1.8626E+05  0.000E+00  0.000E+00  0.000E+00  3.96101E+01  2.351E-01  2.000E+01  2.000E+04 -2.367E+00
   1   10   26     2     5    1.8626E+05 -3.3296E+04   2.1955E+05  0.000E+00  0.000E+00  0.000E+00  3.93935E+01  2.685E-01  2.000E+01  2.000E+04 -1.665E+00
   1   11   25     2     6    2.1955E+05 -2.4923E+04   2.4447E+05  0.000E+00  0.000E+00  0.000E+00  3.91660E+01  2.910E-01  2.000E+01  2.000E+04 -1.246E+00
   1   12   24     2     7    2.4447E+05 -1.8351E+04   2.6283E+05  0.000E+00  0.000E+00  0.000E+00  3.89320E+01  3.070E-01  2.000E+01  2.000E+04 -9.176E-01
   1   13   23     2     8    2.6283E+05 -1.3037E+04   2.7586E+05  0.000E+00  0.000E+00  0.000E+00  3.86932E+01  3.182E-01  2.000E+01  2.000E+04 -6.519E-01
   1   14   22     2     9    2.7586E+05 -7.3256E+03   2.8319E+05  0.000E+00  0.000E+00  0.000E+00  3.84504E+01  3.254E-01  2.000E+01  2.000E+04 -3.663E-01
   1   14   22     3     1    1.0461E+06 -1.5360E+04   1.0615E+06  0.000E+00  0.000E+00  0.000E+00  3.80487E+01  4.931E-01  2.000E+01  2.000E+04 -7.680E-01
   1   15   23     3     2    1.0615E+06 -2.3774E+04   1.0852E+06  0.000E+00  0.000E+00  0.000E+00  3.71653E+01  4.986E-01  2.000E+01  2.000E+04 -1.189E+00
   1   15   24     3     3    1.0852E+06 -1.9797E+04   1.1050E+06  0.000E+00  0.000E+00  0.000E+00  3.62824E+01  5.046E-01  2.000E+01  2.000E+04 -9.898E-01
   1   15   25     3     4    1.1050E+06 -1.9394E+04   1.1244E+06  0.000E+00  0.000E+00  0.000E+00  3.53989E+01  5.100E-01  2.000E+01  2.000E+04 -9.697E-01
   1   15   26     3     5    1.1244E+06 -2.2159E+04   1.1466E+06  0.000E+00  0.000E+00  0.000E+00  3.45157E+01  5.157E-01  2.000E+01  2.000E+04 -1.108E+00
   1   16   27     3     6    1.1466E+06 -2.9358E+04   1.1759E+06  0.000E+00  0.000E+00  0.000E+00  3.36338E+01  5.227E-01  2.000E+01  2.000E+04 -1.468E+00
   1   17   28     3     7    1.1759E+06 -3.6425E+04   1.2124E+06  0.000E+00  0.000E+00  0.000E+00  3.27538E+01  5.315E-01  2.000E+01  2.000E+04 -1.821E+00
   1   18   29     3     8    1.2124E+06 -4.7415E+04   1.2598E+06  0.000E+00  0.000E+00  0.000E+00  3.18760E+01  5.427E-01  2.000E+01  2.000E+04 -2.371E+00
   1   18   30     3     9    1.2598E+06 -4.3820E+04   1.3036E+06  0.000E+00  0.000E+00  0.000E+00  3.09990E+01  5.546E-01  2.000E+01  2.000E+04 -2.191E+00



1
              HEAD IN LAYER   1 AT END OF TIME STEP   1 IN STRESS PERIOD    4
  ---------------------------------------------------------------------------

          1      2      3      4      5      6      7      8      9     10
         11     12     13     14     15     16     17     18     19     20
         21     22     23     24     25     26     27     28     29     30
 .........................................................................
   1  ****** ****** ****** ****** ****** ****** ****** ****** ****** ******
      ****** ****** ****** ****** ****** ****** ****** ****** ****** ******
      ****** ****** ****** ****** ****** ****** ****** ****** ****** ******
   2  ****** ****** ****** ****** ****** ****** ****** ****** ****** ******
      ****** ****** ****** ****** ****** ****** ****** ****** ****** ******
      ****** ****** ****** ****** ****** ****** ****** ****** ****** ******
   3  ****** ****** ****** ****** ****** ****** ****** ****** ****** ******
      ****** ****** ****** ****** ****** ****** ****** ****** ****** ******
      ****** ****** ****** ****** ****** ****** ****** ****** ****** ******
   4  ****** ****** ****** ****** ****** ****** ****** ****** ****** ******
      ****** ****** ****** ****** ****** ****** ****** ****** ****** ******
      ****** ****** ****** ****** ****** ****** ****** ****** ****** ******
   5  ****** ****** ****** ****** ****** ****** ****** ****** ****** ******
      ****** ****** ****** ****** ****** ****** ****** ****** ****** ******
      ****** ****** ****** ****** ****** ****** ****** ****** ****** ******
   6  ****** ****** ****** ****** ****** ****** ****** ****** ****** ******
      ****** ****** ****** ****** ****** ****** ****** ****** ****** ******
      ****** ****** ****** ****** ****** ****** ****** ****** ****** ******
   7  ****** ****** ****** ****** ****** ****** ****** ****** ****** ******
      ****** ****** ****** ****** ****** ****** ****** ****** ****** ******
      ****** ****** ****** ****** ****** ****** ****** ****** ****** ******
   8  ****** ****** ****** ****** ****** ****** ****** ****** ****** ******
      ****** ****** ****** ****** ****** ****** ****** ****** ****** ******
      ****** ****** ****** ****** ****** ****** ****** ****** ****** ******
   9  ****** ****** ****** ****** ****** ****** ****** ****** ****** ******
      ****** ****** ****** ****** ****** ****** ****** ****** ****** ******
      ****** ****** ****** ****** ****** ****** ****** ****** ****** ******
  10  ****** ****** ****** ****** ****** ****** ****** ****** ****** ******
      ****** ****** ****** ****** ****** ****** ****** ****** ****** ******
      ****** ****** ****** ****** ****** ****** ****** ****** ****** ******
  11  ****** ****** ****** ****** ****** ****** ****** ****** ****** ******
      ****** ****** ****** ****** ****** ****** ****** ****** ****** ******
      ****** ****** ****** ****** ****** ****** ****** ****** ****** ******
  12  ****** ****** ****** ****** ****** ****** ****** ****** ****** ******
      ****** ****** ****** ****** ****** ****** ****** ****** ****** ******
      ****** ****** ****** ****** ****** ****** ****** ****** ****** ******
  13  ****** ****** ****** ****** ****** ****** ****** ****** ****** ******
      ****** ****** ****** ****** ****** ****** ****** ****** ****** ******
      ****** ****** ****** ****** ****** ****** ****** ****** ****** ******
  14  ****** ****** ****** ****** ****** ****** ****** ****** ****** ******
      ****** ****** ****** ****** ****** ****** ****** ****** ****** ******
      ****** ****** ****** ****** ****** ****** ****** ****** ****** ******
  15  ****** ****** ****** ****** ****** ****** ****** ****** ****** ******
      ****** ****** ****** ****** ****** ****** ****** ****** ****** ******
      ****** ****** ****** ****** ****** ****** ****** ****** ****** ******
  16  ****** ****** ****** ****** ****** ****** ****** ****** ****** ******
      ****** ****** ****** ****** ****** ****** ****** ****** ****** ******
      ****** ****** ****** ****** ****** ****** ****** ****** ****** ******
  17  ****** ****** ****** ****** ****** ****** ****** ****** ****** ******
      ****** ****** ****** ****** ****** ****** ****** ****** ****** ******
      ****** ****** ****** ****** ****** ****** ****** ****** ****** ******
  18  ****** ****** ****** ****** ****** ****** ****** ****** ****** ******
      ****** ****** ****** ****** ****** ****** ****** ****** ****** ******
      ****** ****** ****** ****** ****** ****** ****** ****** ****** ******
  19  ****** ****** ****** ****** ****** ****** ****** ****** ****** ******
      ****** ****** ****** ****** ****** ****** ****** ****** ****** ******
      ****** ****** ****** ****** ****** ****** ****** ****** ****** ******
  20  ****** ****** ****** ****** ****** ****** ****** ****** ****** ******
      ****** ****** ****** ****** ****** ****** ****** ****** ****** ******
      ****** ****** ****** ****** ****** ****** ****** ****** ****** ******
  21  ****** ****** ****** ****** ****** ****** ****** ****** ****** ******
      ****** ****** ****** ****** ****** ****** ****** ****** ****** ******
      ****** ****** ****** ****** ****** ****** ****** ****** ****** ******
  22  ****** ****** ****** ****** ****** ****** ****** ****** ****** ******
      ****** ****** ****** ****** ****** ****** ****** ****** ****** ******
      ****** ****** ****** ****** ****** ****** ****** ****** ****** ******
  23  ****** ****** ****** ****** ****** ****** ****** ****** ****** ******
      ****** ****** ****** ****** ****** ****** ****** ****** ****** ******
      ****** ****** ****** ****** ****** ****** ****** ****** ****** ******
  24  ****** ****** ****** ****** ****** ****** ****** ****** ****** ******
      ****** ****** ****** ****** ****** ****** ****** ****** ****** ******
      ****** ****** ****** ****** ****** ****** ****** ****** ****** ******
  25  ****** ****** ****** ****** ****** ****** ****** ****** ****** ******
      ****** ****** ****** ****** ****** ****** ****** ****** ****** ******
      ****** ****** ****** ****** ****** ****** ****** ****** ****** ******

 HEAD WILL BE SAVED ON UNIT   51 AT END OF TIME STEP    1, STRESS PERIOD    4
1
  VOLUMETRIC BUDGET FOR ENTIRE MODEL AT END OF TIME STEP    1, STRESS PERIOD   4
  ------------------------------------------------------------------------------

     CUMULATIVE VOLUMES      L**3       RATES FOR THIS TIME STEP      L**3/T
     ------------------                 ------------------------

           IN:                                      IN:
           ---                                      ---
             STORAGE =    20160486.1694               STORAGE =         534.7338
       CONSTANT HEAD =   427355041.9055         CONSTANT HEAD =     1207211.3026
               WELLS =           0.0000                 WELLS =           0.0000
            RECHARGE =     8804400.0000              RECHARGE =       27600.0000
      STREAM LEAKAGE =           0.0000        STREAM LEAKAGE =           0.0000

            TOTAL IN =   456319928.0749              TOTAL IN =     1235346.0363

          OUT:                                     OUT:
          ----                                     ----
             STORAGE =      119900.6742               STORAGE =         842.9665
       CONSTANT HEAD =           0.0000         CONSTANT HEAD =           0.0000
               WELLS =    22967501.1037                 WELLS =       80904.0708
            RECHARGE =           0.0000              RECHARGE =           0.0000
      STREAM LEAKAGE =   433232530.0680        STREAM LEAKAGE =     1153598.9732

           TOTAL OUT =   456319931.8458             TOTAL OUT =     1235346.0105

            IN - OUT =          -3.7709              IN - OUT =       2.5797E-02

 PERCENT DISCREPANCY =          -0.00     PERCENT DISCREPANCY =           0.00






         TIME SUMMARY AT END OF TIME STEP    1 IN STRESS PERIOD    4
                    SECONDS     MINUTES      HOURS       DAYS        YEARS
                    -----------------------------------------------------------
   TIME STEP LENGTH 7.86240E+06 1.31040E+05  2184.0      91.000     0.24914    
 STRESS PERIOD TIME 7.86240E+06 1.31040E+05  2184.0      91.000     0.24914    
         TOTAL TIME 3.15360E+07 5.25600E+05  8760.0      365.00     0.99932    
1
1
                            STRESS PERIOD NO.    5, LENGTH =   92.00000    
                            -----------------------------------------------

                              NUMBER OF TIME STEPS =     1

                               MULTIPLIER FOR DELT =     1.500

                            INITIAL TIME STEP SIZE =   92.00000    

 WELL NO.  LAYER   ROW   COL   STRESS RATE         
 --------------------------------------------------
      1      1     10     10      -7320.    
      2      1      9     14     -0.5000E+05

      2 WELLS

                 RECHARGE =  5.000000E-04

 REUSING STREAM SEGMENT DATA FROM LAST STRESS PERIOD
 
 SOLVING FOR HEAD 


     6 CALLS TO PCG ROUTINE FOR TIME STEP   1 IN STRESS PERIOD    5
    22 TOTAL ITERATIONS

 OUTPUT CONTROL FOR STRESS PERIOD    5   TIME STEP    1
    SAVE BUDGET
    SAVE HEAD FOR ALL LAYERS
    PRINT HEAD FOR ALL LAYERS
 UBDSV2 SAVING "STREAMFLOW OUT  " ON UNIT  50 AT TIME STEP  1, STRESS PERIOD   5



 STREAM LISTING     PERIOD      5   STEP        1

 LAYER ROW COL. STREAM  RCH.  FLOW INTO     FLOW TO   FLOW OUT OF   OVRLND.     DIRECT     STREAM       STREAM     STREAM     STREAM   STREAMBED  STREAMBED
                SEG.NO.  NO.  STRM. RCH.    AQUIFER    STRM. RCH.    RUNOFF     PRECIP       ET          HEAD       DEPTH      WIDTH   CONDCTNC.   GRADIENT

   1   13    1     1     1    1.0000E+05 -2.7055E+04   1.2705E+05  0.000E+00  0.000E+00  0.000E+00  4.84175E+01  1.561E-01  2.000E+01  2.000E+04 -1.353E+00
   1   13    2     1     2    1.2705E+05 -3.6489E+04   1.6354E+05  0.000E+00  0.000E+00  0.000E+00  4.79651E+01  1.810E-01  2.000E+01  2.000E+04 -1.824E+00
   1   14    3     1     3    1.6354E+05 -3.2080E+04   1.9562E+05  0.000E+00  0.000E+00  0.000E+00  4.75124E+01  2.055E-01  2.000E+01  2.000E+04 -1.604E+00
   1   15    4     1     4    1.9562E+05 -3.1434E+04   2.2706E+05  0.000E+00  0.000E+00  0.000E+00  4.70562E+01  2.266E-01  2.000E+01  2.000E+04 -1.572E+00
   1   16    5     1     5    2.2706E+05 -3.3230E+04   2.6029E+05  0.000E+00  0.000E+00  0.000E+00  4.65991E+01  2.468E-01  2.000E+01  2.000E+04 -1.662E+00
   1   16    6     1     6    2.6029E+05 -2.8864E+04   2.8915E+05  0.000E+00  0.000E+00  0.000E+00  4.61403E+01  2.653E-01  2.000E+01  2.000E+04 -1.443E+00
   1   16    7     1     7    2.8915E+05 -2.8558E+04   3.1771E+05  0.000E+00  0.000E+00  0.000E+00  4.56793E+01  2.816E-01  2.000E+01  2.000E+04 -1.428E+00
   1   16    8     1     8    3.1771E+05 -2.8620E+04   3.4633E+05  0.000E+00  0.000E+00  0.000E+00  4.52176E+01  2.972E-01  2.000E+01  2.000E+04 -1.431E+00
   1   16    9     1     9    3.4633E+05 -2.8603E+04   3.7493E+05  0.000E+00  0.000E+00  0.000E+00  4.47555E+01  3.123E-01  2.000E+01  2.000E+04 -1.430E+00
   1   16   10     1    10    3.7493E+05 -2.8578E+04   4.0351E+05  0.000E+00  0.000E+00  0.000E+00  4.42928E+01  3.269E-01  2.000E+01  2.000E+04 -1.429E+00
   1   16   11     1    11    4.0351E+05 -2.9202E+04   4.3271E+05  0.000E+00  0.000E+00  0.000E+00  4.38299E+01  3.413E-01  2.000E+01  2.000E+04 -1.460E+00
   1   16   12     1    12    4.3271E+05 -3.4789E+04   4.6750E+05  0.000E+00  0.000E+00  0.000E+00  4.33681E+01  3.567E-01  2.000E+01  2.000E+04 -1.739E+00
   1   15   13     1    13    4.6750E+05 -3.2551E+04   5.0005E+05  0.000E+00  0.000E+00  0.000E+00  4.29066E+01  3.725E-01  2.000E+01  2.000E+04 -1.628E+00
   1   14   14     1    14    5.0005E+05 -3.2070E+04   5.3212E+05  0.000E+00  0.000E+00  0.000E+00  4.24440E+01  3.872E-01  2.000E+01  2.000E+04 -1.603E+00
   1   13   15     1    15    5.3212E+05 -3.3033E+04   5.6516E+05  0.000E+00  0.000E+00  0.000E+00  4.19812E+01  4.017E-01  2.000E+01  2.000E+04 -1.652E+00
   1   12   16     1    16    5.6516E+05 -3.7878E+04   6.0303E+05  0.000E+00  0.000E+00  0.000E+00  4.15193E+01  4.171E-01  2.000E+01  2.000E+04 -1.894E+00
   1   12   17     1    17    6.0303E+05 -3.0881E+04   6.3392E+05  0.000E+00  0.000E+00  0.000E+00  4.10566E+01  4.316E-01  2.000E+01  2.000E+04 -1.544E+00
   1   12   18     1    18    6.3392E+05 -3.0274E+04   6.6419E+05  0.000E+00  0.000E+00  0.000E+00  4.05920E+01  4.443E-01  2.000E+01  2.000E+04 -1.514E+00
   1   12   19     1    19    6.6419E+05 -3.4766E+04   6.9896E+05  0.000E+00  0.000E+00  0.000E+00  4.01280E+01  4.575E-01  2.000E+01  2.000E+04 -1.738E+00
   1   13   20     1    20    6.9896E+05 -2.6016E+04   7.2497E+05  0.000E+00  0.000E+00  0.000E+00  3.96629E+01  4.697E-01  2.000E+01  2.000E+04 -1.301E+00
   1   14   21     1    21    7.2497E+05 -1.9410E+04   7.4438E+05  0.000E+00  0.000E+00  0.000E+00  3.91945E+01  4.786E-01  2.000E+01  2.000E+04 -9.705E-01
   1   14   22     1    22    7.4438E+05 -1.7187E+03   7.4610E+05  0.000E+00  0.000E+00  0.000E+00  3.87214E+01  4.827E-01  2.000E+01  2.000E+04 -8.593E-02
   1    9   30     2     1    5.0000E+04 -2.6410E+04   7.6410E+04  0.000E+00  0.000E+00  0.000E+00  4.02584E+01  1.334E-01  2.000E+01  2.000E+04 -1.320E+00
   1    9   29     2     2    7.6410E+04 -2.8862E+04   1.0527E+05  0.000E+00  0.000E+00  0.000E+00  4.00408E+01  1.658E-01  2.000E+01  2.000E+04 -1.443E+00
   1    9   28     2     3    1.0527E+05 -3.3105E+04   1.3838E+05  0.000E+00  0.000E+00  0.000E+00  3.98227E+01  1.977E-01  2.000E+01  2.000E+04 -1.655E+00
   1    9   27     2     4    1.3838E+05 -4.7080E+04   1.8546E+05  0.000E+00  0.000E+00  0.000E+00  3.96095E+01  2.345E-01  2.000E+01  2.000E+04 -2.354E+00
   1   10   26     2     5    1.8546E+05 -3.2996E+04   2.1845E+05  0.000E+00  0.000E+00  0.000E+00  3.93927E+01  2.677E-01  2.000E+01  2.000E+04 -1.650E+00
   1   11   25     2     6    2.1845E+05 -2.4606E+04   2.4306E+05  0.000E+00  0.000E+00  0.000E+00  3.91650E+01  2.900E-01  2.000E+01  2.000E+04 -1.230E+00
   1   12   24     2     7    2.4306E+05 -1.8042E+04   2.6110E+05  0.000E+00  0.000E+00  0.000E+00  3.89308E+01  3.058E-01  2.000E+01  2.000E+04 -9.021E-01
   1   13   23     2     8    2.6110E+05 -1.2773E+04   2.7387E+05  0.000E+00  0.000E+00  0.000E+00  3.86919E+01  3.169E-01  2.000E+01  2.000E+04 -6.386E-01
   1   14   22     2     9    2.7387E+05 -7.1668E+03   2.8104E+05  0.000E+00  0.000E+00  0.000E+00  3.84490E+01  3.240E-01  2.000E+01  2.000E+04 -3.583E-01
   1   14   22     3     1    1.0271E+06 -1.5280E+04   1.0424E+06  0.000E+00  0.000E+00  0.000E+00  3.80433E+01  4.878E-01  2.000E+01  2.000E+04 -7.640E-01
   1   15   23     3     2    1.0424E+06 -2.3604E+04   1.0660E+06  0.000E+00  0.000E+00  0.000E+00  3.71599E+01  4.932E-01  2.000E+01  2.000E+04 -1.180E+00
   1   15   24     3     3    1.0660E+06 -1.9664E+04   1.0857E+06  0.000E+00  0.000E+00  0.000E+00  3.62771E+01  4.993E-01  2.000E+01  2.000E+04 -9.832E-01
   1   15   25     3     4    1.0857E+06 -1.9266E+04   1.1050E+06  0.000E+00  0.000E+00  0.000E+00  3.53936E+01  5.047E-01  2.000E+01  2.000E+04 -9.633E-01
   1   15   26     3     5    1.1050E+06 -2.2014E+04   1.1270E+06  0.000E+00  0.000E+00  0.000E+00  3.45104E+01  5.104E-01  2.000E+01  2.000E+04 -1.101E+00
   1   16   27     3     6    1.1270E+06 -2.9186E+04   1.1562E+06  0.000E+00  0.000E+00  0.000E+00  3.36285E+01  5.174E-01  2.000E+01  2.000E+04 -1.459E+00
   1   17   28     3     7    1.1562E+06 -3.6251E+04   1.1924E+06  0.000E+00  0.000E+00  0.000E+00  3.27484E+01  5.262E-01  2.000E+01  2.000E+04 -1.813E+00
   1   18   29     3     8    1.1924E+06 -4.7254E+04   1.2397E+06  0.000E+00  0.000E+00  0.000E+00  3.18707E+01  5.374E-01  2.000E+01  2.000E+04 -2.363E+00
   1   18   30     3     9    1.2397E+06 -4.3685E+04   1.2833E+06  0.000E+00  0.000E+00  0.000E+00  3.09938E+01  5.493E-01  2.000E+01  2.000E+04 -2.184E+00



1
              HEAD IN LAYER   1 AT END OF TIME STEP   1 IN STRESS PERIOD    5
  ---------------------------------------------------------------------------

          1      2      3      4      5      6      7      8      9     10
         11     12     13     14     15     16     17     18     19     20
         21     22     23     24     25     26     27     28     29     30
 .........................................................................
   1  ****** ****** ****** ****** ****** ****** ****** ****** ****** ******
      ****** ****** ****** ****** ****** ****** ****** ****** ****** ******
      ****** ****** ****** ****** ****** ****** ****** ****** ****** ******
   2  ****** ****** ****** ****** ****** ****** ****** ****** ****** ******
      ****** ****** ****** ****** ****** ****** ****** ****** ****** ******
      ****** ****** ****** ****** ****** ****** ****** ****** ****** ******
   3  ****** ****** ****** ****** ****** ****** ****** ****** ****** ******
      ****** ****** ****** ****** ****** ****** ****** ****** ****** ******
      ****** ****** ****** ****** ****** ****** ****** ****** ****** ******
   4  ****** ****** ****** ****** ****** ****** ****** ****** ****** ******
      ****** ****** ****** ****** ****** ****** ****** ****** ****** ******
      ****** ****** ****** ****** ****** ****** ****** ****** ****** ******
   5  ****** ****** ****** ****** ****** ****** ****** ****** ****** ******
      ****** ****** ****** ****** ****** ****** ****** ****** ****** ******
      ****** ****** ****** ****** ****** ****** ****** ****** ****** ******
   6  ****** ****** ****** ****** ****** ****** ****** ****** ****** ******
      ****** ****** ****** ****** ****** ****** ****** ****** ****** ******
      ****** ****** ****** ****** ****** ****** ****** ****** ****** ******
   7  ****** ****** ****** ****** ****** ****** ****** ****** ****** ******
      ****** ****** ****** ****** ****** ****** ****** ****** ****** ******
      ****** ****** ****** ****** ****** ****** ****** ****** ****** ******
   8  ****** ****** ****** ****** ****** ****** ****** ****** ****** ******
      ****** ****** ****** ****** ****** ****** ****** ****** ****** ******
      ****** ****** ****** ****** ****** ****** ****** ****** ****** ******
   9  ****** ****** ****** ****** ****** ****** ****** ****** ****** ******
      ****** ****** ****** ****** ****** ****** ****** ****** ****** ******
      ****** ****** ****** ****** ****** ****** ****** ****** ****** ******
  10  ****** ****** ****** ****** ****** ****** ****** ****** ****** ******
      ****** ****** ****** ****** ****** ****** ****** ****** ****** ******
      ****** ****** ****** ****** ****** ****** ****** ****** ****** ******
  11  ****** ****** ****** ****** ****** ****** ****** ****** ****** ******
      ****** ****** ****** ****** ****** ****** ****** ****** ****** ******
      ****** ****** ****** ****** ****** ****** ****** ****** ****** ******
  12  ****** ****** ****** ****** ****** ****** ****** ****** ****** ******
      ****** ****** ****** ****** ****** ****** ****** ****** ****** ******
      ****** ****** ****** ****** ****** ****** ****** ****** ****** ******
  13  ****** ****** ****** ****** ****** ****** ****** ****** ****** ******
      ****** ****** ****** ****** ****** ****** ****** ****** ****** ******
      ****** ****** ****** ****** ****** ****** ****** ****** ****** ******
  14  ****** ****** ****** ****** ****** ****** ****** ****** ****** ******
      ****** ****** ****** ****** ****** ****** ****** ****** ****** ******
      ****** ****** ****** ****** ****** ****** ****** ****** ****** ******
  15  ****** ****** ****** ****** ****** ****** ****** ****** ****** ******
      ****** ****** ****** ****** ****** ****** ****** ****** ****** ******
      ****** ****** ****** ****** ****** ****** ****** ****** ****** ******
  16  ****** ****** ****** ****** ****** ****** ****** ****** ****** ******
      ****** ****** ****** ****** ****** ****** ****** ****** ****** ******
      ****** ****** ****** ****** ****** ****** ****** ****** ****** ******
  17  ****** ****** ****** ****** ****** ****** ****** ****** ****** ******
      ****** ****** ****** ****** ****** ****** ****** ****** ****** ******
      ****** ****** ****** ****** ****** ****** ****** ****** ****** ******
  18  ****** ****** ****** ****** ****** ****** ****** ****** ****** ******
      ****** ****** ****** ****** ****** ****** ****** ****** ****** ******
      ****** ****** ****** ****** ****** ****** ****** ****** ****** ******
  19  ****** ****** ****** ****** ****** ****** ****** ****** ****** ******
      ****** ****** ****** ****** ****** ****** ****** ****** ****** ******
      ****** ****** ****** ****** ****** ****** ****** ****** ****** ******
  20  ****** ****** ****** ****** ****** ****** ****** ****** ****** ******
      ****** ****** ****** ****** ****** ****** ****** ****** ****** ******
      ****** ****** ****** ****** ****** ****** ****** ****** ****** ******
  21  ****** ****** ****** ****** ****** ****** ****** ****** ****** ******
      ****** ****** ****** ****** ****** ****** ****** ****** ****** ******
      ****** ****** ****** ****** ****** ****** ****** ****** ****** ******
  22  ****** ****** ****** ****** ****** ****** ****** ****** ****** ******
      ****** ****** ****** ****** ****** ****** ****** ****** ****** ******
      ****** ****** ****** ****** ****** ****** ****** ****** ****** ******
  23  ****** ****** ****** ****** ****** ****** ****** ****** ****** ******
      ****** ****** ****** ****** ****** ****** ****** ****** ****** ******
      ****** ****** ****** ****** ****** ****** ****** ****** ****** ******
  24  ****** ****** ****** ****** ****** ****** ****** ****** ****** ******
      ****** ****** ****** ****** ****** ****** ****** ****** ****** ******
      ****** ****** ****** ****** ****** ****** ****** ****** ****** ******
  25  ****** ****** ****** ****** ****** ****** ****** ****** ****** ******
      ****** ****** ****** ****** ****** ****** ****** ****** ****** ******
      ****** ****** ****** ****** ****** ****** ****** ****** ****** ******

 HEAD WILL BE SAVED ON UNIT   51 AT END OF TIME STEP    1, STRESS PERIOD    5
1
  VOLUMETRIC BUDGET FOR ENTIRE MODEL AT END OF TIME STEP    1, STRESS PERIOD   5
  ------------------------------------------------------------------------------

     CUMULATIVE VOLUMES      L**3       RATES FOR THIS TIME STEP      L**3/T
     ------------------                 ------------------------

           IN:                                      IN:
           ---                                      ---
             STORAGE =    20339362.7170               STORAGE =        1944.3103
       CONSTANT HEAD =   535476040.2969         CONSTANT HEAD =     1175228.2434
               WELLS =           0.0000                 WELLS =           0.0000
            RECHARGE =    10074000.0000              RECHARGE =       13800.0000
      STREAM LEAKAGE =           0.0000        STREAM LEAKAGE =           0.0000

            TOTAL IN =   565889403.0140              TOTAL IN =     1190972.5537

          OUT:                                     OUT:
          ----                                     ----
             STORAGE =      148421.9186               STORAGE =         310.0135
       CONSTANT HEAD =           0.0000         CONSTANT HEAD =           0.0000
               WELLS =    28240972.6814                 WELLS =       57320.3432
            RECHARGE =           0.0000              RECHARGE =           0.0000
      STREAM LEAKAGE =   537500013.4116        STREAM LEAKAGE =     1133342.2103

           TOTAL OUT =   565889408.0116             TOTAL OUT =     1190972.5670

            IN - OUT =          -4.9976              IN - OUT =      -1.3334E-02

 PERCENT DISCREPANCY =          -0.00     PERCENT DISCREPANCY =          -0.00






         TIME SUMMARY AT END OF TIME STEP    1 IN STRESS PERIOD    5
                    SECONDS     MINUTES      HOURS       DAYS        YEARS
                    -----------------------------------------------------------
   TIME STEP LENGTH 7.94880E+06 1.32480E+05  2208.0      92.000     0.25188    
 STRESS PERIOD TIME 7.94880E+06 1.32480E+05  2208.0      92.000     0.25188    
         TOTAL TIME 3.94848E+07 6.58080E+05  10968.      457.00      1.2512    
1
1
                            STRESS PERIOD NO.    6, LENGTH =   91.00000    
                            -----------------------------------------------

                              NUMBER OF TIME STEPS =     1

                               MULTIPLIER FOR DELT =     1.500

                            INITIAL TIME STEP SIZE =   91.00000    

 WELL NO.  LAYER   ROW   COL   STRESS RATE         
 --------------------------------------------------
      1      1     10     10      -7320.    
      2      1      9     14     -0.2268E+05
      3      1      2     13     -0.5000E+05

      3 WELLS

                 RECHARGE =  2.000000E-03

 REUSING STREAM SEGMENT DATA FROM LAST STRESS PERIOD
 
 SOLVING FOR HEAD 


     6 CALLS TO PCG ROUTINE FOR TIME STEP   1 IN STRESS PERIOD    6
    23 TOTAL ITERATIONS

 OUTPUT CONTROL FOR STRESS PERIOD    6   TIME STEP    1
    SAVE BUDGET
    SAVE HEAD FOR ALL LAYERS
    PRINT HEAD FOR ALL LAYERS
 UBDSV2 SAVING "STREAMFLOW OUT  " ON UNIT  50 AT TIME STEP  1, STRESS PERIOD   6



 STREAM LISTING     PERIOD      6   STEP        1

 LAYER ROW COL. STREAM  RCH.  FLOW INTO     FLOW TO   FLOW OUT OF   OVRLND.     DIRECT     STREAM       STREAM     STREAM     STREAM   STREAMBED  STREAMBED
                SEG.NO.  NO.  STRM. RCH.    AQUIFER    STRM. RCH.    RUNOFF     PRECIP       ET          HEAD       DEPTH      WIDTH   CONDCTNC.   GRADIENT

   1   13    1     1     1    1.0000E+05 -2.7809E+04   1.2781E+05  0.000E+00  0.000E+00  0.000E+00  4.84178E+01  1.564E-01  2.000E+01  2.000E+04 -1.390E+00
   1   13    2     1     2    1.2781E+05 -3.7422E+04   1.6523E+05  0.000E+00  0.000E+00  0.000E+00  4.79660E+01  1.819E-01  2.000E+01  2.000E+04 -1.871E+00
   1   14    3     1     3    1.6523E+05 -3.2992E+04   1.9822E+05  0.000E+00  0.000E+00  0.000E+00  4.75138E+01  2.070E-01  2.000E+01  2.000E+04 -1.650E+00
   1   15    4     1     4    1.9822E+05 -3.2306E+04   2.3053E+05  0.000E+00  0.000E+00  0.000E+00  4.70581E+01  2.286E-01  2.000E+01  2.000E+04 -1.615E+00
   1   16    5     1     5    2.3053E+05 -3.3985E+04   2.6451E+05  0.000E+00  0.000E+00  0.000E+00  4.66014E+01  2.492E-01  2.000E+01  2.000E+04 -1.699E+00
   1   16    6     1     6    2.6451E+05 -2.9563E+04   2.9408E+05  0.000E+00  0.000E+00  0.000E+00  4.61429E+01  2.679E-01  2.000E+01  2.000E+04 -1.478E+00
   1   16    7     1     7    2.9408E+05 -2.9290E+04   3.2337E+05  0.000E+00  0.000E+00  0.000E+00  4.56822E+01  2.845E-01  2.000E+01  2.000E+04 -1.465E+00
   1   16    8     1     8    3.2337E+05 -2.9396E+04   3.5276E+05  0.000E+00  0.000E+00  0.000E+00  4.52209E+01  3.004E-01  2.000E+01  2.000E+04 -1.470E+00
   1   16    9     1     9    3.5276E+05 -2.9422E+04   3.8218E+05  0.000E+00  0.000E+00  0.000E+00  4.47590E+01  3.158E-01  2.000E+01  2.000E+04 -1.471E+00
   1   16   10     1    10    3.8218E+05 -2.9433E+04   4.1162E+05  0.000E+00  0.000E+00  0.000E+00  4.42967E+01  3.308E-01  2.000E+01  2.000E+04 -1.472E+00
   1   16   11     1    11    4.1162E+05 -3.0088E+04   4.4171E+05  0.000E+00  0.000E+00  0.000E+00  4.38341E+01  3.454E-01  2.000E+01  2.000E+04 -1.504E+00
   1   16   12     1    12    4.4171E+05 -3.5782E+04   4.7749E+05  0.000E+00  0.000E+00  0.000E+00  4.33726E+01  3.612E-01  2.000E+01  2.000E+04 -1.789E+00
   1   15   13     1    13    4.7749E+05 -3.3967E+04   5.1146E+05  0.000E+00  0.000E+00  0.000E+00  4.29115E+01  3.774E-01  2.000E+01  2.000E+04 -1.698E+00
   1   14   14     1    14    5.1146E+05 -3.3969E+04   5.4542E+05  0.000E+00  0.000E+00  0.000E+00  4.24496E+01  3.928E-01  2.000E+01  2.000E+04 -1.698E+00
   1   13   15     1    15    5.4542E+05 -3.5513E+04   5.8094E+05  0.000E+00  0.000E+00  0.000E+00  4.19876E+01  4.080E-01  2.000E+01  2.000E+04 -1.776E+00
   1   12   16     1    16    5.8094E+05 -4.0872E+04   6.2181E+05  0.000E+00  0.000E+00  0.000E+00  4.15267E+01  4.244E-01  2.000E+01  2.000E+04 -2.044E+00
   1   12   17     1    17    6.2181E+05 -3.2692E+04   6.5450E+05  0.000E+00  0.000E+00  0.000E+00  4.10648E+01  4.398E-01  2.000E+01  2.000E+04 -1.635E+00
   1   12   18     1    18    6.5450E+05 -3.1620E+04   6.8612E+05  0.000E+00  0.000E+00  0.000E+00  4.06007E+01  4.530E-01  2.000E+01  2.000E+04 -1.581E+00
   1   12   19     1    19    6.8612E+05 -3.5967E+04   7.2209E+05  0.000E+00  0.000E+00  0.000E+00  4.01370E+01  4.666E-01  2.000E+01  2.000E+04 -1.798E+00
   1   13   20     1    20    7.2209E+05 -2.6840E+04   7.4893E+05  0.000E+00  0.000E+00  0.000E+00  3.96721E+01  4.789E-01  2.000E+01  2.000E+04 -1.342E+00
   1   14   21     1    21    7.4893E+05 -1.9998E+04   7.6892E+05  0.000E+00  0.000E+00  0.000E+00  3.92039E+01  4.880E-01  2.000E+01  2.000E+04 -9.999E-01
   1   14   22     1    22    7.6892E+05 -1.8934E+03   7.7082E+05  0.000E+00  0.000E+00  0.000E+00  3.87309E+01  4.922E-01  2.000E+01  2.000E+04 -9.467E-02
   1    9   30     2     1    5.0000E+04 -2.6875E+04   7.6875E+04  0.000E+00  0.000E+00  0.000E+00  4.02587E+01  1.337E-01  2.000E+01  2.000E+04 -1.344E+00
   1    9   29     2     2    7.6875E+04 -2.9331E+04   1.0621E+05  0.000E+00  0.000E+00  0.000E+00  4.00415E+01  1.665E-01  2.000E+01  2.000E+04 -1.467E+00
   1    9   28     2     3    1.0621E+05 -3.3601E+04   1.3981E+05  0.000E+00  0.000E+00  0.000E+00  3.98239E+01  1.989E-01  2.000E+01  2.000E+04 -1.680E+00
   1    9   27     2     4    1.3981E+05 -4.7716E+04   1.8752E+05  0.000E+00  0.000E+00  0.000E+00  3.96110E+01  2.360E-01  2.000E+01  2.000E+04 -2.386E+00
   1   10   26     2     5    1.8752E+05 -3.3674E+04   2.2120E+05  0.000E+00  0.000E+00  0.000E+00  3.93947E+01  2.697E-01  2.000E+01  2.000E+04 -1.684E+00
   1   11   25     2     6    2.2120E+05 -2.5284E+04   2.4648E+05  0.000E+00  0.000E+00  0.000E+00  3.91674E+01  2.924E-01  2.000E+01  2.000E+04 -1.264E+00
   1   12   24     2     7    2.4648E+05 -1.8671E+04   2.6515E+05  0.000E+00  0.000E+00  0.000E+00  3.89336E+01  3.086E-01  2.000E+01  2.000E+04 -9.335E-01
   1   13   23     2     8    2.6515E+05 -1.3296E+04   2.7845E+05  0.000E+00  0.000E+00  0.000E+00  3.86950E+01  3.200E-01  2.000E+01  2.000E+04 -6.648E-01
   1   14   22     2     9    2.7845E+05 -7.4658E+03   2.8591E+05  0.000E+00  0.000E+00  0.000E+00  3.84523E+01  3.273E-01  2.000E+01  2.000E+04 -3.733E-01
   1   14   22     3     1    1.0567E+06 -1.5478E+04   1.0722E+06  0.000E+00  0.000E+00  0.000E+00  3.80517E+01  4.961E-01  2.000E+01  2.000E+04 -7.739E-01
   1   15   23     3     2    1.0722E+06 -2.4085E+04   1.0963E+06  0.000E+00  0.000E+00  0.000E+00  3.71683E+01  5.016E-01  2.000E+01  2.000E+04 -1.204E+00
   1   15   24     3     3    1.0963E+06 -2.0055E+04   1.1163E+06  0.000E+00  0.000E+00  0.000E+00  3.62855E+01  5.077E-01  2.000E+01  2.000E+04 -1.003E+00
   1   15   25     3     4    1.1163E+06 -1.9650E+04   1.1360E+06  0.000E+00  0.000E+00  0.000E+00  3.54021E+01  5.132E-01  2.000E+01  2.000E+04 -9.825E-01
   1   15   26     3     5    1.1360E+06 -2.2458E+04   1.1585E+06  0.000E+00  0.000E+00  0.000E+00  3.45189E+01  5.189E-01  2.000E+01  2.000E+04 -1.123E+00
   1   16   27     3     6    1.1585E+06 -2.9720E+04   1.1882E+06  0.000E+00  0.000E+00  0.000E+00  3.36371E+01  5.260E-01  2.000E+01  2.000E+04 -1.486E+00
   1   17   28     3     7    1.1882E+06 -3.6796E+04   1.2250E+06  0.000E+00  0.000E+00  0.000E+00  3.27571E+01  5.349E-01  2.000E+01  2.000E+04 -1.840E+00
   1   18   29     3     8    1.2250E+06 -4.7764E+04   1.2727E+06  0.000E+00  0.000E+00  0.000E+00  3.18794E+01  5.460E-01  2.000E+01  2.000E+04 -2.388E+00
   1   18   30     3     9    1.2727E+06 -4.4111E+04   1.3168E+06  0.000E+00  0.000E+00  0.000E+00  3.10024E+01  5.580E-01  2.000E+01  2.000E+04 -2.206E+00



1
              HEAD IN LAYER   1 AT END OF TIME STEP   1 IN STRESS PERIOD    6
  ---------------------------------------------------------------------------

          1      2      3      4      5      6      7      8      9     10
         11     12     13     14     15     16     17     18     19     20
         21     22     23     24     25     26     27     28     29     30
 .........................................................................
   1  ****** ****** ****** ****** ****** ****** ****** ****** ****** ******
      ****** ****** ****** ****** ****** ****** ****** ****** ****** ******
      ****** ****** ****** ****** ****** ****** ****** ****** ****** ******
   2  ****** ****** ****** ****** ****** ****** ****** ****** ****** ******
      ****** ****** ****** ****** ****** ****** ****** ****** ****** ******
      ****** ****** ****** ****** ****** ****** ****** ****** ****** ******
   3  ****** ****** ****** ****** ****** ****** ****** ****** ****** ******
      ****** ****** ****** ****** ****** ****** ****** ****** ****** ******
      ****** ****** ****** ****** ****** ****** ****** ****** ****** ******
   4  ****** ****** ****** ****** ****** ****** ****** ****** ****** ******
      ****** ****** ****** ****** ****** ****** ****** ****** ****** ******
      ****** ****** ****** ****** ****** ****** ****** ****** ****** ******
   5  ****** ****** ****** ****** ****** ****** ****** ****** ****** ******
      ****** ****** ****** ****** ****** ****** ****** ****** ****** ******
      ****** ****** ****** ****** ****** ****** ****** ****** ****** ******
   6  ****** ****** ****** ****** ****** ****** ****** ****** ****** ******
      ****** ****** ****** ****** ****** ****** ****** ****** ****** ******
      ****** ****** ****** ****** ****** ****** ****** ****** ****** ******
   7  ****** ****** ****** ****** ****** ****** ****** ****** ****** ******
      ****** ****** ****** ****** ****** ****** ****** ****** ****** ******
      ****** ****** ****** ****** ****** ****** ****** ****** ****** ******
   8  ****** ****** ****** ****** ****** ****** ****** ****** ****** ******
      ****** ****** ****** ****** ****** ****** ****** ****** ****** ******
      ****** ****** ****** ****** ****** ****** ****** ****** ****** ******
   9  ****** ****** ****** ****** ****** ****** ****** ****** ****** ******
      ****** ****** ****** ****** ****** ****** ****** ****** ****** ******
      ****** ****** ****** ****** ****** ****** ****** ****** ****** ******
  10  ****** ****** ****** ****** ****** ****** ****** ****** ****** ******
      ****** ****** ****** ****** ****** ****** ****** ****** ****** ******
      ****** ****** ****** ****** ****** ****** ****** ****** ****** ******
  11  ****** ****** ****** ****** ****** ****** ****** ****** ****** ******
      ****** ****** ****** ****** ****** ****** ****** ****** ****** ******
      ****** ****** ****** ****** ****** ****** ****** ****** ****** ******
  12  ****** ****** ****** ****** ****** ****** ****** ****** ****** ******
      ****** ****** ****** ****** ****** ****** ****** ****** ****** ******
      ****** ****** ****** ****** ****** ****** ****** ****** ****** ******
  13  ****** ****** ****** ****** ****** ****** ****** ****** ****** ******
      ****** ****** ****** ****** ****** ****** ****** ****** ****** ******
      ****** ****** ****** ****** ****** ****** ****** ****** ****** ******
  14  ****** ****** ****** ****** ****** ****** ****** ****** ****** ******
      ****** ****** ****** ****** ****** ****** ****** ****** ****** ******
      ****** ****** ****** ****** ****** ****** ****** ****** ****** ******
  15  ****** ****** ****** ****** ****** ****** ****** ****** ****** ******
      ****** ****** ****** ****** ****** ****** ****** ****** ****** ******
      ****** ****** ****** ****** ****** ****** ****** ****** ****** ******
  16  ****** ****** ****** ****** ****** ****** ****** ****** ****** ******
      ****** ****** ****** ****** ****** ****** ****** ****** ****** ******
      ****** ****** ****** ****** ****** ****** ****** ****** ****** ******
  17  ****** ****** ****** ****** ****** ****** ****** ****** ****** ******
      ****** ****** ****** ****** ****** ****** ****** ****** ****** ******
      ****** ****** ****** ****** ****** ****** ****** ****** ****** ******
  18  ****** ****** ****** ****** ****** ****** ****** ****** ****** ******
      ****** ****** ****** ****** ****** ****** ****** ****** ****** ******
      ****** ****** ****** ****** ****** ****** ****** ****** ****** ******
  19  ****** ****** ****** ****** ****** ****** ****** ****** ****** ******
      ****** ****** ****** ****** ****** ****** ****** ****** ****** ******
      ****** ****** ****** ****** ****** ****** ****** ****** ****** ******
  20  ****** ****** ****** ****** ****** ****** ****** ****** ****** ******
      ****** ****** ****** ****** ****** ****** ****** ****** ****** ******
      ****** ****** ****** ****** ****** ****** ****** ****** ****** ******
  21  ****** ****** ****** ****** ****** ****** ****** ****** ****** ******
      ****** ****** ****** ****** ****** ****** ****** ****** ****** ******
      ****** ****** ****** ****** ****** ****** ****** ****** ****** ******
  22  ****** ****** ****** ****** ****** ****** ****** ****** ****** ******
      ****** ****** ****** ****** ****** ****** ****** ****** ****** ******
      ****** ****** ****** ****** ****** ****** ****** ****** ****** ******
  23  ****** ****** ****** ****** ****** ****** ****** ****** ****** ******
      ****** ****** ****** ****** ****** ****** ****** ****** ****** ******
      ****** ****** ****** ****** ****** ****** ****** ****** ****** ******
  24  ****** ****** ****** ****** ****** ****** ****** ****** ****** ******
      ****** ****** ****** ****** ****** ****** ****** ****** ****** ******
      ****** ****** ****** ****** ****** ****** ****** ****** ****** ******
  25  ****** ****** ****** ****** ****** ****** ****** ****** ****** ******
      ****** ****** ****** ****** ****** ****** ****** ****** ****** ******
      ****** ****** ****** ****** ****** ****** ****** ****** ****** ******

 HEAD WILL BE SAVED ON UNIT   51 AT END OF TIME STEP    1, STRESS PERIOD    6
1
  VOLUMETRIC BUDGET FOR ENTIRE MODEL AT END OF TIME STEP    1, STRESS PERIOD   6
  ------------------------------------------------------------------------------

     CUMULATIVE VOLUMES      L**3       RATES FOR THIS TIME STEP      L**3/T
     ------------------                 ------------------------

           IN:                                      IN:
           ---                                      ---
             STORAGE =    20363280.0135               STORAGE =         262.8274
       CONSTANT HEAD =   644170650.2148         CONSTANT HEAD =     1194446.2628
               WELLS =           0.0000                 WELLS =           0.0000
            RECHARGE =    15097200.0000              RECHARGE =       55200.0000
      STREAM LEAKAGE =           0.0000        STREAM LEAKAGE =           0.0000

            TOTAL IN =   679631130.2283              TOTAL IN =     1249909.0903

          OUT:                                     OUT:
          ----                                     ----
             STORAGE =      427064.9209               STORAGE =        3062.0110
       CONSTANT HEAD =           0.0000         CONSTANT HEAD =           0.0000
               WELLS =    35520972.6814                 WELLS =       80000.0000
            RECHARGE =           0.0000              RECHARGE =           0.0000
      STREAM LEAKAGE =   643683095.2828        STREAM LEAKAGE =     1166847.0535

           TOTAL OUT =   679631132.8852             TOTAL OUT =     1249909.0645

            IN - OUT =          -2.6569              IN - OUT =       2.5722E-02

 PERCENT DISCREPANCY =          -0.00     PERCENT DISCREPANCY =           0.00






         TIME SUMMARY AT END OF TIME STEP    1 IN STRESS PERIOD    6
                    SECONDS     MINUTES      HOURS       DAYS        YEARS
                    -----------------------------------------------------------
   TIME STEP LENGTH 7.86240E+06 1.31040E+05  2184.0      91.000     0.24914    
 STRESS PERIOD TIME 7.86240E+06 1.31040E+05  2184.0      91.000     0.24914    
         TOTAL TIME 4.73472E+07 7.89120E+05  13152.      548.00      1.5003    
1
1
                            STRESS PERIOD NO.    7, LENGTH =   91.00000    
                            -----------------------------------------------

                              NUMBER OF TIME STEPS =     1

                               MULTIPLIER FOR DELT =     1.500

                            INITIAL TIME STEP SIZE =   91.00000    

 WELL NO.  LAYER   ROW   COL   STRESS RATE         
 --------------------------------------------------
      1      1     10     10      -7320.    
      2      1      9     14     -0.2622E+05

      2 WELLS

                 RECHARGE =   0.00000    

 REUSING STREAM SEGMENT DATA FROM LAST STRESS PERIOD
 
 SOLVING FOR HEAD 


     6 CALLS TO PCG ROUTINE FOR TIME STEP   1 IN STRESS PERIOD    7
    22 TOTAL ITERATIONS

 OUTPUT CONTROL FOR STRESS PERIOD    7   TIME STEP    1
    SAVE BUDGET
    SAVE HEAD FOR ALL LAYERS
    PRINT HEAD FOR ALL LAYERS
 UBDSV2 SAVING "STREAMFLOW OUT  " ON UNIT  50 AT TIME STEP  1, STRESS PERIOD   7



 STREAM LISTING     PERIOD      7   STEP        1

 LAYER ROW COL. STREAM  RCH.  FLOW INTO     FLOW TO   FLOW OUT OF   OVRLND.     DIRECT     STREAM       STREAM     STREAM     STREAM   STREAMBED  STREAMBED
                SEG.NO.  NO.  STRM. RCH.    AQUIFER    STRM. RCH.    RUNOFF     PRECIP       ET          HEAD       DEPTH      WIDTH   CONDCTNC.   GRADIENT

   1   13    1     1     1    1.0000E+05 -2.7057E+04   1.2706E+05  0.000E+00  0.000E+00  0.000E+00  4.84175E+01  1.561E-01  2.000E+01  2.000E+04 -1.353E+00
   1   13    2     1     2    1.2706E+05 -3.6540E+04   1.6360E+05  0.000E+00  0.000E+00  0.000E+00  4.79651E+01  1.810E-01  2.000E+01  2.000E+04 -1.827E+00
   1   14    3     1     3    1.6360E+05 -3.2101E+04   1.9570E+05  0.000E+00  0.000E+00  0.000E+00  4.75124E+01  2.056E-01  2.000E+01  2.000E+04 -1.605E+00
   1   15    4     1     4    1.9570E+05 -3.1431E+04   2.2713E+05  0.000E+00  0.000E+00  0.000E+00  4.70562E+01  2.267E-01  2.000E+01  2.000E+04 -1.572E+00
   1   16    5     1     5    2.2713E+05 -3.3169E+04   2.6030E+05  0.000E+00  0.000E+00  0.000E+00  4.65991E+01  2.469E-01  2.000E+01  2.000E+04 -1.658E+00
   1   16    6     1     6    2.6030E+05 -2.8868E+04   2.8917E+05  0.000E+00  0.000E+00  0.000E+00  4.61403E+01  2.653E-01  2.000E+01  2.000E+04 -1.443E+00
   1   16    7     1     7    2.8917E+05 -2.8610E+04   3.1778E+05  0.000E+00  0.000E+00  0.000E+00  4.56793E+01  2.816E-01  2.000E+01  2.000E+04 -1.431E+00
   1   16    8     1     8    3.1778E+05 -2.8719E+04   3.4650E+05  0.000E+00  0.000E+00  0.000E+00  4.52177E+01  2.972E-01  2.000E+01  2.000E+04 -1.436E+00
   1   16    9     1     9    3.4650E+05 -2.8746E+04   3.7524E+05  0.000E+00  0.000E+00  0.000E+00  4.47556E+01  3.124E-01  2.000E+01  2.000E+04 -1.437E+00
   1   16   10     1    10    3.7524E+05 -2.8757E+04   4.0400E+05  0.000E+00  0.000E+00  0.000E+00  4.42930E+01  3.271E-01  2.000E+01  2.000E+04 -1.438E+00
   1   16   11     1    11    4.0400E+05 -2.9395E+04   4.3339E+05  0.000E+00  0.000E+00  0.000E+00  4.38302E+01  3.416E-01  2.000E+01  2.000E+04 -1.470E+00
   1   16   12     1    12    4.3339E+05 -3.4956E+04   4.6835E+05  0.000E+00  0.000E+00  0.000E+00  4.33684E+01  3.571E-01  2.000E+01  2.000E+04 -1.748E+00
   1   15   13     1    13    4.6835E+05 -3.3082E+04   5.0143E+05  0.000E+00  0.000E+00  0.000E+00  4.29071E+01  3.730E-01  2.000E+01  2.000E+04 -1.654E+00
   1   14   14     1    14    5.0143E+05 -3.3064E+04   5.3449E+05  0.000E+00  0.000E+00  0.000E+00  4.24449E+01  3.881E-01  2.000E+01  2.000E+04 -1.653E+00
   1   13   15     1    15    5.3449E+05 -3.4619E+04   5.6911E+05  0.000E+00  0.000E+00  0.000E+00  4.19826E+01  4.031E-01  2.000E+01  2.000E+04 -1.731E+00
   1   12   16     1    16    5.6911E+05 -4.0044E+04   6.0916E+05  0.000E+00  0.000E+00  0.000E+00  4.15215E+01  4.192E-01  2.000E+01  2.000E+04 -2.002E+00
   1   12   17     1    17    6.0916E+05 -3.2038E+04   6.4119E+05  0.000E+00  0.000E+00  0.000E+00  4.10594E+01  4.344E-01  2.000E+01  2.000E+04 -1.602E+00
   1   12   18     1    18    6.4119E+05 -3.1000E+04   6.7219E+05  0.000E+00  0.000E+00  0.000E+00  4.05952E+01  4.474E-01  2.000E+01  2.000E+04 -1.550E+00
   1   12   19     1    19    6.7219E+05 -3.5290E+04   7.0748E+05  0.000E+00  0.000E+00  0.000E+00  4.01313E+01  4.609E-01  2.000E+01  2.000E+04 -1.765E+00
   1   13   20     1    20    7.0748E+05 -2.6150E+04   7.3364E+05  0.000E+00  0.000E+00  0.000E+00  3.96663E+01  4.731E-01  2.000E+01  2.000E+04 -1.308E+00
   1   14   21     1    21    7.3364E+05 -1.9374E+04   7.5301E+05  0.000E+00  0.000E+00  0.000E+00  3.91979E+01  4.820E-01  2.000E+01  2.000E+04 -9.687E-01
   1   14   22     1    22    7.5301E+05 -1.6715E+03   7.5468E+05  0.000E+00  0.000E+00  0.000E+00  3.87247E+01  4.861E-01  2.000E+01  2.000E+04 -8.358E-02
   1    9   30     2     1    5.0000E+04 -2.6304E+04   7.6304E+04  0.000E+00  0.000E+00  0.000E+00  4.02583E+01  1.333E-01  2.000E+01  2.000E+04 -1.315E+00
   1    9   29     2     2    7.6304E+04 -2.8763E+04   1.0507E+05  0.000E+00  0.000E+00  0.000E+00  4.00406E+01  1.656E-01  2.000E+01  2.000E+04 -1.438E+00
   1    9   28     2     3    1.0507E+05 -3.3021E+04   1.3809E+05  0.000E+00  0.000E+00  0.000E+00  3.98225E+01  1.975E-01  2.000E+01  2.000E+04 -1.651E+00
   1    9   27     2     4    1.3809E+05 -4.7023E+04   1.8511E+05  0.000E+00  0.000E+00  0.000E+00  3.96092E+01  2.342E-01  2.000E+01  2.000E+04 -2.351E+00
   1   10   26     2     5    1.8511E+05 -3.2959E+04   2.1807E+05  0.000E+00  0.000E+00  0.000E+00  3.93925E+01  2.675E-01  2.000E+01  2.000E+04 -1.648E+00
   1   11   25     2     6    2.1807E+05 -2.4600E+04   2.4267E+05  0.000E+00  0.000E+00  0.000E+00  3.91648E+01  2.898E-01  2.000E+01  2.000E+04 -1.230E+00
   1   12   24     2     7    2.4267E+05 -1.8061E+04   2.6073E+05  0.000E+00  0.000E+00  0.000E+00  3.89306E+01  3.056E-01  2.000E+01  2.000E+04 -9.031E-01
   1   13   23     2     8    2.6073E+05 -1.2798E+04   2.7353E+05  0.000E+00  0.000E+00  0.000E+00  3.86917E+01  3.167E-01  2.000E+01  2.000E+04 -6.399E-01
   1   14   22     2     9    2.7353E+05 -7.1910E+03   2.8072E+05  0.000E+00  0.000E+00  0.000E+00  3.84487E+01  3.237E-01  2.000E+01  2.000E+04 -3.596E-01
   1   14   22     3     1    1.0354E+06 -1.5253E+04   1.0507E+06  0.000E+00  0.000E+00  0.000E+00  3.80456E+01  4.901E-01  2.000E+01  2.000E+04 -7.626E-01
   1   15   23     3     2    1.0507E+06 -2.3487E+04   1.0741E+06  0.000E+00  0.000E+00  0.000E+00  3.71622E+01  4.955E-01  2.000E+01  2.000E+04 -1.174E+00
   1   15   24     3     3    1.0741E+06 -1.9558E+04   1.0937E+06  0.000E+00  0.000E+00  0.000E+00  3.62793E+01  5.015E-01  2.000E+01  2.000E+04 -9.779E-01
   1   15   25     3     4    1.0937E+06 -1.9156E+04   1.1129E+06  0.000E+00  0.000E+00  0.000E+00  3.53958E+01  5.069E-01  2.000E+01  2.000E+04 -9.578E-01
   1   15   26     3     5    1.1129E+06 -2.1881E+04   1.1347E+06  0.000E+00  0.000E+00  0.000E+00  3.45125E+01  5.125E-01  2.000E+01  2.000E+04 -1.094E+00
   1   16   27     3     6    1.1347E+06 -2.9022E+04   1.1638E+06  0.000E+00  0.000E+00  0.000E+00  3.36306E+01  5.195E-01  2.000E+01  2.000E+04 -1.451E+00
   1   17   28     3     7    1.1638E+06 -3.6081E+04   1.1998E+06  0.000E+00  0.000E+00  0.000E+00  3.27505E+01  5.282E-01  2.000E+01  2.000E+04 -1.804E+00
   1   18   29     3     8    1.1998E+06 -4.7092E+04   1.2469E+06  0.000E+00  0.000E+00  0.000E+00  3.18726E+01  5.393E-01  2.000E+01  2.000E+04 -2.355E+00
   1   18   30     3     9    1.2469E+06 -4.3550E+04   1.2905E+06  0.000E+00  0.000E+00  0.000E+00  3.09957E+01  5.512E-01  2.000E+01  2.000E+04 -2.177E+00



1
              HEAD IN LAYER   1 AT END OF TIME STEP   1 IN STRESS PERIOD    7
  ---------------------------------------------------------------------------

          1      2      3      4      5      6      7      8      9     10
         11     12     13     14     15     16     17     18     19     20
         21     22     23     24     25     26     27     28     29     30
 .........................................................................
   1  ****** ****** ****** ****** ****** ****** ****** ****** ****** ******
      ****** ****** ****** ****** ****** ****** ****** ****** ****** ******
      ****** ****** ****** ****** ****** ****** ****** ****** ****** ******
   2  ****** ****** ****** ****** ****** ****** ****** ****** ****** ******
      ****** ****** ****** ****** ****** ****** ****** ****** ****** ******
      ****** ****** ****** ****** ****** ****** ****** ****** ****** ******
   3  ****** ****** ****** ****** ****** ****** ****** ****** ****** ******
      ****** ****** ****** ****** ****** ****** ****** ****** ****** ******
      ****** ****** ****** ****** ****** ****** ****** ****** ****** ******
   4  ****** ****** ****** ****** ****** ****** ****** ****** ****** ******
      ****** ****** ****** ****** ****** ****** ****** ****** ****** ******
      ****** ****** ****** ****** ****** ****** ****** ****** ****** ******
   5  ****** ****** ****** ****** ****** ****** ****** ****** ****** ******
      ****** ****** ****** ****** ****** ****** ****** ****** ****** ******
      ****** ****** ****** ****** ****** ****** ****** ****** ****** ******
   6  ****** ****** ****** ****** ****** ****** ****** ****** ****** ******
      ****** ****** ****** ****** ****** ****** ****** ****** ****** ******
      ****** ****** ****** ****** ****** ****** ****** ****** ****** ******
   7  ****** ****** ****** ****** ****** ****** ****** ****** ****** ******
      ****** ****** ****** ****** ****** ****** ****** ****** ****** ******
      ****** ****** ****** ****** ****** ****** ****** ****** ****** ******
   8  ****** ****** ****** ****** ****** ****** ****** ****** ****** ******
      ****** ****** ****** ****** ****** ****** ****** ****** ****** ******
      ****** ****** ****** ****** ****** ****** ****** ****** ****** ******
   9  ****** ****** ****** ****** ****** ****** ****** ****** ****** ******
      ****** ****** ****** ****** ****** ****** ****** ****** ****** ******
      ****** ****** ****** ****** ****** ****** ****** ****** ****** ******
  10  ****** ****** ****** ****** ****** ****** ****** ****** ****** ******
      ****** ****** ****** ****** ****** ****** ****** ****** ****** ******
      ****** ****** ****** ****** ****** ****** ****** ****** ****** ******
  11  ****** ****** ****** ****** ****** ****** ****** ****** ****** ******
      ****** ****** ****** ****** ****** ****** ****** ****** ****** ******
      ****** ****** ****** ****** ****** ****** ****** ****** ****** ******
  12  ****** ****** ****** ****** ****** ****** ****** ****** ****** ******
      ****** ****** ****** ****** ****** ****** ****** ****** ****** ******
      ****** ****** ****** ****** ****** ****** ****** ****** ****** ******
  13  ****** ****** ****** ****** ****** ****** ****** ****** ****** ******
      ****** ****** ****** ****** ****** ****** ****** ****** ****** ******
      ****** ****** ****** ****** ****** ****** ****** ****** ****** ******
  14  ****** ****** ****** ****** ****** ****** ****** ****** ****** ******
      ****** ****** ****** ****** ****** ****** ****** ****** ****** ******
      ****** ****** ****** ****** ****** ****** ****** ****** ****** ******
  15  ****** ****** ****** ****** ****** ****** ****** ****** ****** ******
      ****** ****** ****** ****** ****** ****** ****** ****** ****** ******
      ****** ****** ****** ****** ****** ****** ****** ****** ****** ******
  16  ****** ****** ****** ****** ****** ****** ****** ****** ****** ******
      ****** ****** ****** ****** ****** ****** ****** ****** ****** ******
      ****** ****** ****** ****** ****** ****** ****** ****** ****** ******
  17  ****** ****** ****** ****** ****** ****** ****** ****** ****** ******
      ****** ****** ****** ****** ****** ****** ****** ****** ****** ******
      ****** ****** ****** ****** ****** ****** ****** ****** ****** ******
  18  ****** ****** ****** ****** ****** ****** ****** ****** ****** ******
      ****** ****** ****** ****** ****** ****** ****** ****** ****** ******
      ****** ****** ****** ****** ****** ****** ****** ****** ****** ******
  19  ****** ****** ****** ****** ****** ****** ****** ****** ****** ******
      ****** ****** ****** ****** ****** ****** ****** ****** ****** ******
      ****** ****** ****** ****** ****** ****** ****** ****** ****** ******
  20  ****** ****** ****** ****** ****** ****** ****** ****** ****** ******
      ****** ****** ****** ****** ****** ****** ****** ****** ****** ******
      ****** ****** ****** ****** ****** ****** ****** ****** ****** ******
  21  ****** ****** ****** ****** ****** ****** ****** ****** ****** ******
      ****** ****** ****** ****** ****** ****** ****** ****** ****** ******
      ****** ****** ****** ****** ****** ****** ****** ****** ****** ******
  22  ****** ****** ****** ****** ****** ****** ****** ****** ****** ******
      ****** ****** ****** ****** ****** ****** ****** ****** ****** ******
      ****** ****** ****** ****** ****** ****** ****** ****** ****** ******
  23  ****** ****** ****** ****** ****** ****** ****** ****** ****** ******
      ****** ****** ****** ****** ****** ****** ****** ****** ****** ******
      ****** ****** ****** ****** ****** ****** ****** ****** ****** ******
  24  ****** ****** ****** ****** ****** ****** ****** ****** ****** ******
      ****** ****** ****** ****** ****** ****** ****** ****** ****** ******
      ****** ****** ****** ****** ****** ****** ****** ****** ****** ******
  25  ****** ****** ****** ****** ****** ****** ****** ****** ****** ******
      ****** ****** ****** ****** ****** ****** ****** ****** ****** ******
      ****** ****** ****** ****** ****** ****** ****** ****** ****** ******

 HEAD WILL BE SAVED ON UNIT   51 AT END OF TIME STEP    1, STRESS PERIOD    7
1
  VOLUMETRIC BUDGET FOR ENTIRE MODEL AT END OF TIME STEP    1, STRESS PERIOD   7
  ------------------------------------------------------------------------------

     CUMULATIVE VOLUMES      L**3       RATES FOR THIS TIME STEP      L**3/T
     ------------------                 ------------------------

           IN:                                      IN:
           ---                                      ---
             STORAGE =    20536362.7732               STORAGE =        1902.0083
       CONSTANT HEAD =   750870355.6004         CONSTANT HEAD =     1172524.2350
               WELLS =           0.0000                 WELLS =           0.0000
            RECHARGE =    15097200.0000              RECHARGE =           0.0000
      STREAM LEAKAGE =           0.0000        STREAM LEAKAGE =           0.0000

            TOTAL IN =   786503918.3736              TOTAL IN =     1174426.2434

          OUT:                                     OUT:
          ----                                     ----
             STORAGE =      464449.3918               STORAGE =         410.8184
       CONSTANT HEAD =           0.0000         CONSTANT HEAD =           0.0000
               WELLS =    38572731.7673                 WELLS =       33535.8141
            RECHARGE =           0.0000              RECHARGE =           0.0000
      STREAM LEAKAGE =   747466742.5436        STREAM LEAKAGE =     1140479.6402

           TOTAL OUT =   786503923.7026             TOTAL OUT =     1174426.2727

            IN - OUT =          -5.3291              IN - OUT =      -2.9365E-02

 PERCENT DISCREPANCY =          -0.00     PERCENT DISCREPANCY =          -0.00






         TIME SUMMARY AT END OF TIME STEP    1 IN STRESS PERIOD    7
                    SECONDS     MINUTES      HOURS       DAYS        YEARS
                    -----------------------------------------------------------
   TIME STEP LENGTH 7.86240E+06 1.31040E+05  2184.0      91.000     0.24914    
 STRESS PERIOD TIME 7.86240E+06 1.31040E+05  2184.0      91.000     0.24914    
         TOTAL TIME 5.52096E+07 9.20160E+05  15336.      639.00      1.7495    
1
1
                            STRESS PERIOD NO.    8, LENGTH =   91.00000    
                            -----------------------------------------------

                              NUMBER OF TIME STEPS =     1

                               MULTIPLIER FOR DELT =     1.500

                            INITIAL TIME STEP SIZE =   91.00000    

 WELL NO.  LAYER   ROW   COL   STRESS RATE         
 --------------------------------------------------
      1      1     10     10      -7320.    
      2      1      9     14     -0.2108E+05
      3      1      2     13     -0.5250E+05

      3 WELLS

                 RECHARGE =  1.000000E-03

 REUSING STREAM SEGMENT DATA FROM LAST STRESS PERIOD
 
 SOLVING FOR HEAD 


     5 CALLS TO PCG ROUTINE FOR TIME STEP   1 IN STRESS PERIOD    8
    20 TOTAL ITERATIONS

 OUTPUT CONTROL FOR STRESS PERIOD    8   TIME STEP    1
    SAVE BUDGET
    SAVE HEAD FOR ALL LAYERS
    PRINT HEAD FOR ALL LAYERS
 UBDSV2 SAVING "STREAMFLOW OUT  " ON UNIT  50 AT TIME STEP  1, STRESS PERIOD   8



 STREAM LISTING     PERIOD      8   STEP        1

 LAYER ROW COL. STREAM  RCH.  FLOW INTO     FLOW TO   FLOW OUT OF   OVRLND.     DIRECT     STREAM       STREAM     STREAM     STREAM   STREAMBED  STREAMBED
                SEG.NO.  NO.  STRM. RCH.    AQUIFER    STRM. RCH.    RUNOFF     PRECIP       ET          HEAD       DEPTH      WIDTH   CONDCTNC.   GRADIENT

   1   13    1     1     1    1.0000E+05 -2.7393E+04   1.2739E+05  0.000E+00  0.000E+00  0.000E+00  4.84176E+01  1.562E-01  2.000E+01  2.000E+04 -1.370E+00
   1   13    2     1     2    1.2739E+05 -3.6932E+04   1.6433E+05  0.000E+00  0.000E+00  0.000E+00  4.79655E+01  1.814E-01  2.000E+01  2.000E+04 -1.847E+00
   1   14    3     1     3    1.6433E+05 -3.2507E+04   1.9683E+05  0.000E+00  0.000E+00  0.000E+00  4.75130E+01  2.062E-01  2.000E+01  2.000E+04 -1.625E+00
   1   15    4     1     4    1.9683E+05 -3.1837E+04   2.2867E+05  0.000E+00  0.000E+00  0.000E+00  4.70571E+01  2.275E-01  2.000E+01  2.000E+04 -1.592E+00
   1   16    5     1     5    2.2867E+05 -3.3553E+04   2.6222E+05  0.000E+00  0.000E+00  0.000E+00  4.66002E+01  2.479E-01  2.000E+01  2.000E+04 -1.678E+00
   1   16    6     1     6    2.6222E+05 -2.9196E+04   2.9142E+05  0.000E+00  0.000E+00  0.000E+00  4.61415E+01  2.665E-01  2.000E+01  2.000E+04 -1.460E+00
   1   16    7     1     7    2.9142E+05 -2.8932E+04   3.2035E+05  0.000E+00  0.000E+00  0.000E+00  4.56806E+01  2.829E-01  2.000E+01  2.000E+04 -1.447E+00
   1   16    8     1     8    3.2035E+05 -2.9043E+04   3.4939E+05  0.000E+00  0.000E+00  0.000E+00  4.52192E+01  2.987E-01  2.000E+01  2.000E+04 -1.452E+00
   1   16    9     1     9    3.4939E+05 -2.9073E+04   3.7846E+05  0.000E+00  0.000E+00  0.000E+00  4.47572E+01  3.140E-01  2.000E+01  2.000E+04 -1.454E+00
   1   16   10     1    10    3.7846E+05 -2.9089E+04   4.0755E+05  0.000E+00  0.000E+00  0.000E+00  4.42947E+01  3.288E-01  2.000E+01  2.000E+04 -1.454E+00
   1   16   11     1    11    4.0755E+05 -2.9739E+04   4.3729E+05  0.000E+00  0.000E+00  0.000E+00  4.38320E+01  3.434E-01  2.000E+01  2.000E+04 -1.487E+00
   1   16   12     1    12    4.3729E+05 -3.5367E+04   4.7266E+05  0.000E+00  0.000E+00  0.000E+00  4.33704E+01  3.590E-01  2.000E+01  2.000E+04 -1.768E+00
   1   15   13     1    13    4.7266E+05 -3.3547E+04   5.0621E+05  0.000E+00  0.000E+00  0.000E+00  4.29092E+01  3.751E-01  2.000E+01  2.000E+04 -1.677E+00
   1   14   14     1    14    5.0621E+05 -3.3578E+04   5.3979E+05  0.000E+00  0.000E+00  0.000E+00  4.24471E+01  3.903E-01  2.000E+01  2.000E+04 -1.679E+00
   1   13   15     1    15    5.3979E+05 -3.5179E+04   5.7496E+05  0.000E+00  0.000E+00  0.000E+00  4.19851E+01  4.055E-01  2.000E+01  2.000E+04 -1.759E+00
   1   12   16     1    16    5.7496E+05 -4.0608E+04   6.1557E+05  0.000E+00  0.000E+00  0.000E+00  4.15241E+01  4.218E-01  2.000E+01  2.000E+04 -2.030E+00
   1   12   17     1    17    6.1557E+05 -3.2426E+04   6.4800E+05  0.000E+00  0.000E+00  0.000E+00  4.10622E+01  4.372E-01  2.000E+01  2.000E+04 -1.621E+00
   1   12   18     1    18    6.4800E+05 -3.1332E+04   6.7933E+05  0.000E+00  0.000E+00  0.000E+00  4.05980E+01  4.503E-01  2.000E+01  2.000E+04 -1.567E+00
   1   12   19     1    19    6.7933E+05 -3.5628E+04   7.1496E+05  0.000E+00  0.000E+00  0.000E+00  4.01342E+01  4.638E-01  2.000E+01  2.000E+04 -1.781E+00
   1   13   20     1    20    7.1496E+05 -2.6485E+04   7.4144E+05  0.000E+00  0.000E+00  0.000E+00  3.96693E+01  4.761E-01  2.000E+01  2.000E+04 -1.324E+00
   1   14   21     1    21    7.4144E+05 -1.9674E+04   7.6112E+05  0.000E+00  0.000E+00  0.000E+00  3.92010E+01  4.851E-01  2.000E+01  2.000E+04 -9.837E-01
   1   14   22     1    22    7.6112E+05 -1.7765E+03   7.6289E+05  0.000E+00  0.000E+00  0.000E+00  3.87279E+01  4.892E-01  2.000E+01  2.000E+04 -8.883E-02
   1    9   30     2     1    5.0000E+04 -2.6577E+04   7.6577E+04  0.000E+00  0.000E+00  0.000E+00  4.02585E+01  1.335E-01  2.000E+01  2.000E+04 -1.329E+00
   1    9   29     2     2    7.6577E+04 -2.9034E+04   1.0561E+05  0.000E+00  0.000E+00  0.000E+00  4.00411E+01  1.661E-01  2.000E+01  2.000E+04 -1.452E+00
   1    9   28     2     3    1.0561E+05 -3.3296E+04   1.3891E+05  0.000E+00  0.000E+00  0.000E+00  3.98231E+01  1.981E-01  2.000E+01  2.000E+04 -1.665E+00
   1    9   27     2     4    1.3891E+05 -4.7348E+04   1.8626E+05  0.000E+00  0.000E+00  0.000E+00  3.96101E+01  2.351E-01  2.000E+01  2.000E+04 -2.367E+00
   1   10   26     2     5    1.8626E+05 -3.3295E+04   2.1955E+05  0.000E+00  0.000E+00  0.000E+00  3.93935E+01  2.685E-01  2.000E+01  2.000E+04 -1.665E+00
   1   11   25     2     6    2.1955E+05 -2.4923E+04   2.4447E+05  0.000E+00  0.000E+00  0.000E+00  3.91660E+01  2.910E-01  2.000E+01  2.000E+04 -1.246E+00
   1   12   24     2     7    2.4447E+05 -1.8351E+04   2.6282E+05  0.000E+00  0.000E+00  0.000E+00  3.89320E+01  3.070E-01  2.000E+01  2.000E+04 -9.176E-01
   1   13   23     2     8    2.6282E+05 -1.3037E+04   2.7586E+05  0.000E+00  0.000E+00  0.000E+00  3.86932E+01  3.182E-01  2.000E+01  2.000E+04 -6.519E-01
   1   14   22     2     9    2.7586E+05 -7.3255E+03   2.8319E+05  0.000E+00  0.000E+00  0.000E+00  3.84504E+01  3.254E-01  2.000E+01  2.000E+04 -3.663E-01
   1   14   22     3     1    1.0461E+06 -1.5360E+04   1.0614E+06  0.000E+00  0.000E+00  0.000E+00  3.80487E+01  4.931E-01  2.000E+01  2.000E+04 -7.680E-01
   1   15   23     3     2    1.0614E+06 -2.3773E+04   1.0852E+06  0.000E+00  0.000E+00  0.000E+00  3.71653E+01  4.986E-01  2.000E+01  2.000E+04 -1.189E+00
   1   15   24     3     3    1.0852E+06 -1.9797E+04   1.1050E+06  0.000E+00  0.000E+00  0.000E+00  3.62824E+01  5.046E-01  2.000E+01  2.000E+04 -9.898E-01
   1   15   25     3     4    1.1050E+06 -1.9394E+04   1.1244E+06  0.000E+00  0.000E+00  0.000E+00  3.53989E+01  5.100E-01  2.000E+01  2.000E+04 -9.697E-01
   1   15   26     3     5    1.1244E+06 -2.2159E+04   1.1466E+06  0.000E+00  0.000E+00  0.000E+00  3.45157E+01  5.157E-01  2.000E+01  2.000E+04 -1.108E+00
   1   16   27     3     6    1.1466E+06 -2.9358E+04   1.1759E+06  0.000E+00  0.000E+00  0.000E+00  3.36338E+01  5.227E-01  2.000E+01  2.000E+04 -1.468E+00
   1   17   28     3     7    1.1759E+06 -3.6424E+04   1.2123E+06  0.000E+00  0.000E+00  0.000E+00  3.27538E+01  5.315E-01  2.000E+01  2.000E+04 -1.821E+00
   1   18   29     3     8    1.2123E+06 -4.7415E+04   1.2598E+06  0.000E+00  0.000E+00  0.000E+00  3.18760E+01  5.427E-01  2.000E+01  2.000E+04 -2.371E+00
   1   18   30     3     9    1.2598E+06 -4.3820E+04   1.3036E+06  0.000E+00  0.000E+00  0.000E+00  3.09990E+01  5.546E-01  2.000E+01  2.000E+04 -2.191E+00



1
              HEAD IN LAYER   1 AT END OF TIME STEP   1 IN STRESS PERIOD    8
  ---------------------------------------------------------------------------

          1      2      3      4      5      6      7      8      9     10
         11     12     13     14     15     16     17     18     19     20
         21     22     23     24     25     26     27     28     29     30
 .........................................................................
   1  ****** ****** ****** ****** ****** ****** ****** ****** ****** ******
      ****** ****** ****** ****** ****** ****** ****** ****** ****** ******
      ****** ****** ****** ****** ****** ****** ****** ****** ****** ******
   2  ****** ****** ****** ****** ****** ****** ****** ****** ****** ******
      ****** ****** ****** ****** ****** ****** ****** ****** ****** ******
      ****** ****** ****** ****** ****** ****** ****** ****** ****** ******
   3  ****** ****** ****** ****** ****** ****** ****** ****** ****** ******
      ****** ****** ****** ****** ****** ****** ****** ****** ****** ******
      ****** ****** ****** ****** ****** ****** ****** ****** ****** ******
   4  ****** ****** ****** ****** ****** ****** ****** ****** ****** ******
      ****** ****** ****** ****** ****** ****** ****** ****** ****** ******
      ****** ****** ****** ****** ****** ****** ****** ****** ****** ******
   5  ****** ****** ****** ****** ****** ****** ****** ****** ****** ******
      ****** ****** ****** ****** ****** ****** ****** ****** ****** ******
      ****** ****** ****** ****** ****** ****** ****** ****** ****** ******
   6  ****** ****** ****** ****** ****** ****** ****** ****** ****** ******
      ****** ****** ****** ****** ****** ****** ****** ****** ****** ******
      ****** ****** ****** ****** ****** ****** ****** ****** ****** ******
   7  ****** ****** ****** ****** ****** ****** ****** ****** ****** ******
      ****** ****** ****** ****** ****** ****** ****** ****** ****** ******
      ****** ****** ****** ****** ****** ****** ****** ****** ****** ******
   8  ****** ****** ****** ****** ****** ****** ****** ****** ****** ******
      ****** ****** ****** ****** ****** ****** ****** ****** ****** ******
      ****** ****** ****** ****** ****** ****** ****** ****** ****** ******
   9  ****** ****** ****** ****** ****** ****** ****** ****** ****** ******
      ****** ****** ****** ****** ****** ****** ****** ****** ****** ******
      ****** ****** ****** ****** ****** ****** ****** ****** ****** ******
  10  ****** ****** ****** ****** ****** ****** ****** ****** ****** ******
      ****** ****** ****** ****** ****** ****** ****** ****** ****** ******
      ****** ****** ****** ****** ****** ****** ****** ****** ****** ******
  11  ****** ****** ****** ****** ****** ****** ****** ****** ****** ******
      ****** ****** ****** ****** ****** ****** ****** ****** ****** ******
      ****** ****** ****** ****** ****** ****** ****** ****** ****** ******
  12  ****** ****** ****** ****** ****** ****** ****** ****** ****** ******
      ****** ****** ****** ****** ****** ****** ****** ****** ****** ******
      ****** ****** ****** ****** ****** ****** ****** ****** ****** ******
  13  ****** ****** ****** ****** ****** ****** ****** ****** ****** ******
      ****** ****** ****** ****** ****** ****** ****** ****** ****** ******
      ****** ****** ****** ****** ****** ****** ****** ****** ****** ******
  14  ****** ****** ****** ****** ****** ****** ****** ****** ****** ******
      ****** ****** ****** ****** ****** ****** ****** ****** ****** ******
      ****** ****** ****** ****** ****** ****** ****** ****** ****** ******
  15  ****** ****** ****** ****** ****** ****** ****** ****** ****** ******
      ****** ****** ****** ****** ****** ****** ****** ****** ****** ******
      ****** ****** ****** ****** ****** ****** ****** ****** ****** ******
  16  ****** ****** ****** ****** ****** ****** ****** ****** ****** ******
      ****** ****** ****** ****** ****** ****** ****** ****** ****** ******
      ****** ****** ****** ****** ****** ****** ****** ****** ****** ******
  17  ****** ****** ****** ****** ****** ****** ****** ****** ****** ******
      ****** ****** ****** ****** ****** ****** ****** ****** ****** ******
      ****** ****** ****** ****** ****** ****** ****** ****** ****** ******
  18  ****** ****** ****** ****** ****** ****** ****** ****** ****** ******
      ****** ****** ****** ****** ****** ****** ****** ****** ****** ******
      ****** ****** ****** ****** ****** ****** ****** ****** ****** ******
  19  ****** ****** ****** ****** ****** ****** ****** ****** ****** ******
      ****** ****** ****** ****** ****** ****** ****** ****** ****** ******
      ****** ****** ****** ****** ****** ****** ****** ****** ****** ******
  20  ****** ****** ****** ****** ****** ****** ****** ****** ****** ******
      ****** ****** ****** ****** ****** ****** ****** ****** ****** ******
      ****** ****** ****** ****** ****** ****** ****** ****** ****** ******
  21  ****** ****** ****** ****** ****** ****** ****** ****** ****** ******
      ****** ****** ****** ****** ****** ****** ****** ****** ****** ******
      ****** ****** ****** ****** ****** ****** ****** ****** ****** ******
  22  ****** ****** ****** ****** ****** ****** ****** ****** ****** ******
      ****** ****** ****** ****** ****** ****** ****** ****** ****** ******
      ****** ****** ****** ****** ****** ****** ****** ****** ****** ******
  23  ****** ****** ****** ****** ****** ****** ****** ****** ****** ******
      ****** ****** ****** ****** ****** ****** ****** ****** ****** ******
      ****** ****** ****** ****** ****** ****** ****** ****** ****** ******
  24  ****** ****** ****** ****** ****** ****** ****** ****** ****** ******
      ****** ****** ****** ****** ****** ****** ****** ****** ****** ******
      ****** ****** ****** ****** ****** ****** ****** ****** ****** ******
  25  ****** ****** ****** ****** ****** ****** ****** ****** ****** ******
      ****** ****** ****** ****** ****** ****** ****** ****** ****** ******
      ****** ****** ****** ****** ****** ****** ****** ****** ****** ******

 HEAD WILL BE SAVED ON UNIT   51 AT END OF TIME STEP    1, STRESS PERIOD    8
1
  VOLUMETRIC BUDGET FOR ENTIRE MODEL AT END OF TIME STEP    1, STRESS PERIOD   8
  ------------------------------------------------------------------------------

     CUMULATIVE VOLUMES      L**3       RATES FOR THIS TIME STEP      L**3/T
     ------------------                 ------------------------

           IN:                                      IN:
           ---                                      ---
             STORAGE =    20584503.8256               STORAGE =         529.0226
       CONSTANT HEAD =   860728023.1373         CONSTANT HEAD =     1207227.1158
               WELLS =           0.0000                 WELLS =           0.0000
            RECHARGE =    17608800.0000              RECHARGE =       27600.0000
      STREAM LEAKAGE =           0.0000        STREAM LEAKAGE =           0.0000

            TOTAL IN =   898921326.9630              TOTAL IN =     1235356.1383

          OUT:                                     OUT:
          ----                                     ----
             STORAGE =      543704.8394               STORAGE =         870.9390
       CONSTANT HEAD =           0.0000         CONSTANT HEAD =           0.0000
               WELLS =    45935002.2074                 WELLS =       80904.0708
            RECHARGE =           0.0000              RECHARGE =           0.0000
      STREAM LEAKAGE =   852442622.8014        STREAM LEAKAGE =     1153581.1017

           TOTAL OUT =   898921329.8482             TOTAL OUT =     1235356.1115

            IN - OUT =          -2.8852              IN - OUT =       2.6856E-02

 PERCENT DISCREPANCY =          -0.00     PERCENT DISCREPANCY =           0.00






         TIME SUMMARY AT END OF TIME STEP    1 IN STRESS PERIOD    8
                    SECONDS     MINUTES      HOURS       DAYS        YEARS
                    -----------------------------------------------------------
   TIME STEP LENGTH 7.86240E+06 1.31040E+05  2184.0      91.000     0.24914    
 STRESS PERIOD TIME 7.86240E+06 1.31040E+05  2184.0      91.000     0.24914    
         TOTAL TIME 6.30720E+07 1.05120E+06  17520.      730.00      1.9986    
1
1
                            STRESS PERIOD NO.    9, LENGTH =   92.00000    
                            -----------------------------------------------

                              NUMBER OF TIME STEPS =     1

                               MULTIPLIER FOR DELT =     1.500

                            INITIAL TIME STEP SIZE =   92.00000    

 WELL NO.  LAYER   ROW   COL   STRESS RATE         
 --------------------------------------------------
      1      1     10     10      -7320.    
      2      1      9     14     -0.5000E+05

      2 WELLS

                 RECHARGE =  5.000000E-04

 REUSING STREAM SEGMENT DATA FROM LAST STRESS PERIOD
 
 SOLVING FOR HEAD 


     6 CALLS TO PCG ROUTINE FOR TIME STEP   1 IN STRESS PERIOD    9
    22 TOTAL ITERATIONS

 OUTPUT CONTROL FOR STRESS PERIOD    9   TIME STEP    1
    SAVE BUDGET
    SAVE HEAD FOR ALL LAYERS
    PRINT HEAD FOR ALL LAYERS
 UBDSV2 SAVING "STREAMFLOW OUT  " ON UNIT  50 AT TIME STEP  1, STRESS PERIOD   9



 STREAM LISTING     PERIOD      9   STEP        1

 LAYER ROW COL. STREAM  RCH.  FLOW INTO     FLOW TO   FLOW OUT OF   OVRLND.     DIRECT     STREAM       STREAM     STREAM     STREAM   STREAMBED  STREAMBED
                SEG.NO.  NO.  STRM. RCH.    AQUIFER    STRM. RCH.    RUNOFF     PRECIP       ET          HEAD       DEPTH      WIDTH   CONDCTNC.   GRADIENT

   1   13    1     1     1    1.0000E+05 -2.7055E+04   1.2705E+05  0.000E+00  0.000E+00  0.000E+00  4.84175E+01  1.561E-01  2.000E+01  2.000E+04 -1.353E+00
   1   13    2     1     2    1.2705E+05 -3.6488E+04   1.6354E+05  0.000E+00  0.000E+00  0.000E+00  4.79651E+01  1.810E-01  2.000E+01  2.000E+04 -1.824E+00
   1   14    3     1     3    1.6354E+05 -3.2080E+04   1.9562E+05  0.000E+00  0.000E+00  0.000E+00  4.75124E+01  2.055E-01  2.000E+01  2.000E+04 -1.604E+00
   1   15    4     1     4    1.9562E+05 -3.1434E+04   2.2706E+05  0.000E+00  0.000E+00  0.000E+00  4.70562E+01  2.266E-01  2.000E+01  2.000E+04 -1.572E+00
   1   16    5     1     5    2.2706E+05 -3.3230E+04   2.6029E+05  0.000E+00  0.000E+00  0.000E+00  4.65991E+01  2.468E-01  2.000E+01  2.000E+04 -1.662E+00
   1   16    6     1     6    2.6029E+05 -2.8864E+04   2.8915E+05  0.000E+00  0.000E+00  0.000E+00  4.61403E+01  2.653E-01  2.000E+01  2.000E+04 -1.443E+00
   1   16    7     1     7    2.8915E+05 -2.8558E+04   3.1771E+05  0.000E+00  0.000E+00  0.000E+00  4.56793E+01  2.816E-01  2.000E+01  2.000E+04 -1.428E+00
   1   16    8     1     8    3.1771E+05 -2.8620E+04   3.4633E+05  0.000E+00  0.000E+00  0.000E+00  4.52176E+01  2.972E-01  2.000E+01  2.000E+04 -1.431E+00
   1   16    9     1     9    3.4633E+05 -2.8603E+04   3.7493E+05  0.000E+00  0.000E+00  0.000E+00  4.47555E+01  3.123E-01  2.000E+01  2.000E+04 -1.430E+00
   1   16   10     1    10    3.7493E+05 -2.8578E+04   4.0351E+05  0.000E+00  0.000E+00  0.000E+00  4.42928E+01  3.269E-01  2.000E+01  2.000E+04 -1.429E+00
   1   16   11     1    11    4.0351E+05 -2.9202E+04   4.3271E+05  0.000E+00  0.000E+00  0.000E+00  4.38299E+01  3.413E-01  2.000E+01  2.000E+04 -1.460E+00
   1   16   12     1    12    4.3271E+05 -3.4789E+04   4.6750E+05  0.000E+00  0.000E+00  0.000E+00  4.33681E+01  3.567E-01  2.000E+01  2.000E+04 -1.739E+00
   1   15   13     1    13    4.6750E+05 -3.2551E+04   5.0005E+05  0.000E+00  0.000E+00  0.000E+00  4.29066E+01  3.725E-01  2.000E+01  2.000E+04 -1.628E+00
   1   14   14     1    14    5.0005E+05 -3.2070E+04   5.3212E+05  0.000E+00  0.000E+00  0.000E+00  4.24440E+01  3.872E-01  2.000E+01  2.000E+04 -1.603E+00
   1   13   15     1    15    5.3212E+05 -3.3033E+04   5.6516E+05  0.000E+00  0.000E+00  0.000E+00  4.19812E+01  4.017E-01  2.000E+01  2.000E+04 -1.652E+00
   1   12   16     1    16    5.6516E+05 -3.7878E+04   6.0303E+05  0.000E+00  0.000E+00  0.000E+00  4.15193E+01  4.171E-01  2.000E+01  2.000E+04 -1.894E+00
   1   12   17     1    17    6.0303E+05 -3.0881E+04   6.3391E+05  0.000E+00  0.000E+00  0.000E+00  4.10566E+01  4.316E-01  2.000E+01  2.000E+04 -1.544E+00
   1   12   18     1    18    6.3391E+05 -3.0274E+04   6.6419E+05  0.000E+00  0.000E+00  0.000E+00  4.05920E+01  4.443E-01  2.000E+01  2.000E+04 -1.514E+00
   1   12   19     1    19    6.6419E+05 -3.4766E+04   6.9895E+05  0.000E+00  0.000E+00  0.000E+00  4.01280E+01  4.575E-01  2.000E+01  2.000E+04 -1.738E+00
   1   13   20     1    20    6.9895E+05 -2.6016E+04   7.2497E+05  0.000E+00  0.000E+00  0.000E+00  3.96629E+01  4.697E-01  2.000E+01  2.000E+04 -1.301E+00
   1   14   21     1    21    7.2497E+05 -1.9410E+04   7.4438E+05  0.000E+00  0.000E+00  0.000E+00  3.91945E+01  4.786E-01  2.000E+01  2.000E+04 -9.705E-01
   1   14   22     1    22    7.4438E+05 -1.7187E+03   7.4610E+05  0.000E+00  0.000E+00  0.000E+00  3.87214E+01  4.827E-01  2.000E+01  2.000E+04 -8.593E-02
   1    9   30     2     1    5.0000E+04 -2.6410E+04   7.6410E+04  0.000E+00  0.000E+00  0.000E+00  4.02584E+01  1.334E-01  2.000E+01  2.000E+04 -1.320E+00
   1    9   29     2     2    7.6410E+04 -2.8862E+04   1.0527E+05  0.000E+00  0.000E+00  0.000E+00  4.00408E+01  1.658E-01  2.000E+01  2.000E+04 -1.443E+00
   1    9   28     2     3    1.0527E+05 -3.3105E+04   1.3838E+05  0.000E+00  0.000E+00  0.000E+00  3.98227E+01  1.977E-01  2.000E+01  2.000E+04 -1.655E+00
   1    9   27     2     4    1.3838E+05 -4.7080E+04   1.8546E+05  0.000E+00  0.000E+00  0.000E+00  3.96095E+01  2.345E-01  2.000E+01  2.000E+04 -2.354E+00
   1   10   26     2     5    1.8546E+05 -3.2996E+04   2.1845E+05  0.000E+00  0.000E+00  0.000E+00  3.93927E+01  2.677E-01  2.000E+01  2.000E+04 -1.650E+00
   1   11   25     2     6    2.1845E+05 -2.4606E+04   2.4306E+05  0.000E+00  0.000E+00  0.000E+00  3.91650E+01  2.900E-01  2.000E+01  2.000E+04 -1.230E+00
   1   12   24     2     7    2.4306E+05 -1.8042E+04   2.6110E+05  0.000E+00  0.000E+00  0.000E+00  3.89308E+01  3.058E-01  2.000E+01  2.000E+04 -9.021E-01
   1   13   23     2     8    2.6110E+05 -1.2773E+04   2.7387E+05  0.000E+00  0.000E+00  0.000E+00  3.86919E+01  3.169E-01  2.000E+01  2.000E+04 -6.386E-01
   1   14   22     2     9    2.7387E+05 -7.1668E+03   2.8104E+05  0.000E+00  0.000E+00  0.000E+00  3.84490E+01  3.240E-01  2.000E+01  2.000E+04 -3.583E-01
   1   14   22     3     1    1.0271E+06 -1.5280E+04   1.0424E+06  0.000E+00  0.000E+00  0.000E+00  3.80433E+01  4.878E-01  2.000E+01  2.000E+04 -7.640E-01
   1   15   23     3     2    1.0424E+06 -2.3604E+04   1.0660E+06  0.000E+00  0.000E+00  0.000E+00  3.71599E+01  4.932E-01  2.000E+01  2.000E+04 -1.180E+00
   1   15   24     3     3    1.0660E+06 -1.9664E+04   1.0857E+06  0.000E+00  0.000E+00  0.000E+00  3.62771E+01  4.993E-01  2.000E+01  2.000E+04 -9.832E-01
   1   15   25     3     4    1.0857E+06 -1.9266E+04   1.1050E+06  0.000E+00  0.000E+00  0.000E+00  3.53936E+01  5.047E-01  2.000E+01  2.000E+04 -9.633E-01
   1   15   26     3     5    1.1050E+06 -2.2014E+04   1.1270E+06  0.000E+00  0.000E+00  0.000E+00  3.45104E+01  5.104E-01  2.000E+01  2.000E+04 -1.101E+00
   1   16   27     3     6    1.1270E+06 -2.9186E+04   1.1562E+06  0.000E+00  0.000E+00  0.000E+00  3.36285E+01  5.174E-01  2.000E+01  2.000E+04 -1.459E+00
   1   17   28     3     7    1.1562E+06 -3.6251E+04   1.1924E+06  0.000E+00  0.000E+00  0.000E+00  3.27484E+01  5.262E-01  2.000E+01  2.000E+04 -1.813E+00
   1   18   29     3     8    1.1924E+06 -4.7254E+04   1.2397E+06  0.000E+00  0.000E+00  0.000E+00  3.18707E+01  5.374E-01  2.000E+01  2.000E+04 -2.363E+00
   1   18   30     3     9    1.2397E+06 -4.3685E+04   1.2833E+06  0.000E+00  0.000E+00  0.000E+00  3.09938E+01  5.493E-01  2.000E+01  2.000E+04 -2.184E+00



1
              HEAD IN LAYER   1 AT END OF TIME STEP   1 IN STRESS PERIOD    9
  ---------------------------------------------------------------------------

          1      2      3      4      5      6      7      8      9     10
         11     12     13     14     15     16     17     18     19     20
         21     22     23     24     25     26     27     28     29     30
 .........................................................................
   1  ****** ****** ****** ****** ****** ****** ****** ****** ****** ******
      ****** ****** ****** ****** ****** ****** ****** ****** ****** ******
      ****** ****** ****** ****** ****** ****** ****** ****** ****** ******
   2  ****** ****** ****** ****** ****** ****** ****** ****** ****** ******
      ****** ****** ****** ****** ****** ****** ****** ****** ****** ******
      ****** ****** ****** ****** ****** ****** ****** ****** ****** ******
   3  ****** ****** ****** ****** ****** ****** ****** ****** ****** ******
      ****** ****** ****** ****** ****** ****** ****** ****** ****** ******
      ****** ****** ****** ****** ****** ****** ****** ****** ****** ******
   4  ****** ****** ****** ****** ****** ****** ****** ****** ****** ******
      ****** ****** ****** ****** ****** ****** ****** ****** ****** ******
      ****** ****** ****** ****** ****** ****** ****** ****** ****** ******
   5  ****** ****** ****** ****** ****** ****** ****** ****** ****** ******
      ****** ****** ****** ****** ****** ****** ****** ****** ****** ******
      ****** ****** ****** ****** ****** ****** ****** ****** ****** ******
   6  ****** ****** ****** ****** ****** ****** ****** ****** ****** ******
      ****** ****** ****** ****** ****** ****** ****** ****** ****** ******
      ****** ****** ****** ****** ****** ****** ****** ****** ****** ******
   7  ****** ****** ****** ****** ****** ****** ****** ****** ****** ******
      ****** ****** ****** ****** ****** ****** ****** ****** ****** ******
      ****** ****** ****** ****** ****** ****** ****** ****** ****** ******
   8  ****** ****** ****** ****** ****** ****** ****** ****** ****** ******
      ****** ****** ****** ****** ****** ****** ****** ****** ****** ******
      ****** ****** ****** ****** ****** ****** ****** ****** ****** ******
   9  ****** ****** ****** ****** ****** ****** ****** ****** ****** ******
      ****** ****** ****** ****** ****** ****** ****** ****** ****** ******
      ****** ****** ****** ****** ****** ****** ****** ****** ****** ******
  10  ****** ****** ****** ****** ****** ****** ****** ****** ****** ******
      ****** ****** ****** ****** ****** ****** ****** ****** ****** ******
      ****** ****** ****** ****** ****** ****** ****** ****** ****** ******
  11  ****** ****** ****** ****** ****** ****** ****** ****** ****** ******
      ****** ****** ****** ****** ****** ****** ****** ****** ****** ******
      ****** ****** ****** ****** ****** ****** ****** ****** ****** ******
  12  ****** ****** ****** ****** ****** ****** ****** ****** ****** ******
      ****** ****** ****** ****** ****** ****** ****** ****** ****** ******
      ****** ****** ****** ****** ****** ****** ****** ****** ****** ******
  13  ****** ****** ****** ****** ****** ****** ****** ****** ****** ******
      ****** ****** ****** ****** ****** ****** ****** ****** ****** ******
      ****** ****** ****** ****** ****** ****** ****** ****** ****** ******
  14  ****** ****** ****** ****** ****** ****** ****** ****** ****** ******
      ****** ****** ****** ****** ****** ****** ****** ****** ****** ******
      ****** ****** ****** ****** ****** ****** ****** ****** ****** ******
  15  ****** ****** ****** ****** ****** ****** ****** ****** ****** ******
      ****** ****** ****** ****** ****** ****** ****** ****** ****** ******
      ****** ****** ****** ****** ****** ****** ****** ****** ****** ******
  16  ****** ****** ****** ****** ****** ****** ****** ****** ****** ******
      ****** ****** ****** ****** ****** ****** ****** ****** ****** ******
      ****** ****** ****** ****** ****** ****** ****** ****** ****** ******
  17  ****** ****** ****** ****** ****** ****** ****** ****** ****** ******
      ****** ****** ****** ****** ****** ****** ****** ****** ****** ******
      ****** ****** ****** ****** ****** ****** ****** ****** ****** ******
  18  ****** ****** ****** ****** ****** ****** ****** ****** ****** ******
      ****** ****** ****** ****** ****** ****** ****** ****** ****** ******
      ****** ****** ****** ****** ****** ****** ****** ****** ****** ******
  19  ****** ****** ****** ****** ****** ****** ****** ****** ****** ******
      ****** ****** ****** ****** ****** ****** ****** ****** ****** ******
      ****** ****** ****** ****** ****** ****** ****** ****** ****** ******
  20  ****** ****** ****** ****** ****** ****** ****** ****** ****** ******
      ****** ****** ****** ****** ****** ****** ****** ****** ****** ******
      ****** ****** ****** ****** ****** ****** ****** ****** ****** ******
  21  ****** ****** ****** ****** ****** ****** ****** ****** ****** ******
      ****** ****** ****** ****** ****** ****** ****** ****** ****** ******
      ****** ****** ****** ****** ****** ****** ****** ****** ****** ******
  22  ****** ****** ****** ****** ****** ****** ****** ****** ****** ******
      ****** ****** ****** ****** ****** ****** ****** ****** ****** ******
      ****** ****** ****** ****** ****** ****** ****** ****** ****** ******
  23  ****** ****** ****** ****** ****** ****** ****** ****** ****** ******
      ****** ****** ****** ****** ****** ****** ****** ****** ****** ******
      ****** ****** ****** ****** ****** ****** ****** ****** ****** ******
  24  ****** ****** ****** ****** ****** ****** ****** ****** ****** ******
      ****** ****** ****** ****** ****** ****** ****** ****** ****** ******
      ****** ****** ****** ****** ****** ****** ****** ****** ****** ******
  25  ****** ****** ****** ****** ****** ****** ****** ****** ****** ******
      ****** ****** ****** ****** ****** ****** ****** ****** ****** ******
      ****** ****** ****** ****** ****** ****** ****** ****** ****** ******

 HEAD WILL BE SAVED ON UNIT   51 AT END OF TIME STEP    1, STRESS PERIOD    9
1
  VOLUMETRIC BUDGET FOR ENTIRE MODEL AT END OF TIME STEP    1, STRESS PERIOD   9
  ------------------------------------------------------------------------------

     CUMULATIVE VOLUMES      L**3       RATES FOR THIS TIME STEP      L**3/T
     ------------------                 ------------------------

           IN:                                      IN:
           ---                                      ---
             STORAGE =    20763192.3728               STORAGE =        1942.2668
       CONSTANT HEAD =   968849116.1009         CONSTANT HEAD =     1175229.2713
               WELLS =           0.0000                 WELLS =           0.0000
            RECHARGE =    18878400.0000              RECHARGE =       13800.0000
      STREAM LEAKAGE =           0.0000        STREAM LEAKAGE =           0.0000

            TOTAL IN =  1008490708.4737              TOTAL IN =     1190971.5382

          OUT:                                     OUT:
          ----                                     ----
             STORAGE =      572237.3963               STORAGE =         310.1365
       CONSTANT HEAD =           0.0000         CONSTANT HEAD =           0.0000
               WELLS =    51208473.7851                 WELLS =       57320.3432
            RECHARGE =           0.0000              RECHARGE =           0.0000
      STREAM LEAKAGE =   956710001.4000        STREAM LEAKAGE =     1133341.0717

           TOTAL OUT =  1008490712.5815             TOTAL OUT =     1190971.5514

            IN - OUT =          -4.1078              IN - OUT =      -1.3289E-02

 PERCENT DISCREPANCY =          -0.00     PERCENT DISCREPANCY =          -0.00






         TIME SUMMARY AT END OF TIME STEP    1 IN STRESS PERIOD    9
                    SECONDS     MINUTES      HOURS       DAYS        YEARS
                    -----------------------------------------------------------
   TIME STEP LENGTH 7.94880E+06 1.32480E+05  2208.0      92.000     0.25188    
 STRESS PERIOD TIME 7.94880E+06 1.32480E+05  2208.0      92.000     0.25188    
         TOTAL TIME 7.10208E+07 1.18368E+06  19728.      822.00      2.2505    
1
1
                            STRESS PERIOD NO.   10, LENGTH =   91.00000    
                            -----------------------------------------------

                              NUMBER OF TIME STEPS =     1

                               MULTIPLIER FOR DELT =     1.500

                            INITIAL TIME STEP SIZE =   91.00000    

 WELL NO.  LAYER   ROW   COL   STRESS RATE         
 --------------------------------------------------
      1      1     10     10      -7320.    
      2      1      9     14     -0.2268E+05
      3      1      2     13     -0.5000E+05

      3 WELLS

                 RECHARGE =  2.000000E-03

 REUSING STREAM SEGMENT DATA FROM LAST STRESS PERIOD
 
 SOLVING FOR HEAD 


     6 CALLS TO PCG ROUTINE FOR TIME STEP   1 IN STRESS PERIOD   10
    23 TOTAL ITERATIONS

 OUTPUT CONTROL FOR STRESS PERIOD   10   TIME STEP    1
    SAVE BUDGET
    SAVE HEAD FOR ALL LAYERS
    PRINT HEAD FOR ALL LAYERS
 UBDSV2 SAVING "STREAMFLOW OUT  " ON UNIT  50 AT TIME STEP  1, STRESS PERIOD  10



 STREAM LISTING     PERIOD     10   STEP        1

 LAYER ROW COL. STREAM  RCH.  FLOW INTO     FLOW TO   FLOW OUT OF   OVRLND.     DIRECT     STREAM       STREAM     STREAM     STREAM   STREAMBED  STREAMBED
                SEG.NO.  NO.  STRM. RCH.    AQUIFER    STRM. RCH.    RUNOFF     PRECIP       ET          HEAD       DEPTH      WIDTH   CONDCTNC.   GRADIENT

   1   13    1     1     1    1.0000E+05 -2.7809E+04   1.2781E+05  0.000E+00  0.000E+00  0.000E+00  4.84178E+01  1.564E-01  2.000E+01  2.000E+04 -1.390E+00
   1   13    2     1     2    1.2781E+05 -3.7422E+04   1.6523E+05  0.000E+00  0.000E+00  0.000E+00  4.79660E+01  1.819E-01  2.000E+01  2.000E+04 -1.871E+00
   1   14    3     1     3    1.6523E+05 -3.2992E+04   1.9822E+05  0.000E+00  0.000E+00  0.000E+00  4.75138E+01  2.070E-01  2.000E+01  2.000E+04 -1.650E+00
   1   15    4     1     4    1.9822E+05 -3.2306E+04   2.3053E+05  0.000E+00  0.000E+00  0.000E+00  4.70581E+01  2.286E-01  2.000E+01  2.000E+04 -1.615E+00
   1   16    5     1     5    2.3053E+05 -3.3985E+04   2.6451E+05  0.000E+00  0.000E+00  0.000E+00  4.66014E+01  2.492E-01  2.000E+01  2.000E+04 -1.699E+00
   1   16    6     1     6    2.6451E+05 -2.9563E+04   2.9408E+05  0.000E+00  0.000E+00  0.000E+00  4.61429E+01  2.679E-01  2.000E+01  2.000E+04 -1.478E+00
   1   16    7     1     7    2.9408E+05 -2.9290E+04   3.2337E+05  0.000E+00  0.000E+00  0.000E+00  4.56822E+01  2.845E-01  2.000E+01  2.000E+04 -1.465E+00
   1   16    8     1     8    3.2337E+05 -2.9396E+04   3.5276E+05  0.000E+00  0.000E+00  0.000E+00  4.52209E+01  3.004E-01  2.000E+01  2.000E+04 -1.470E+00
   1   16    9     1     9    3.5276E+05 -2.9422E+04   3.8218E+05  0.000E+00  0.000E+00  0.000E+00  4.47590E+01  3.158E-01  2.000E+01  2.000E+04 -1.471E+00
   1   16   10     1    10    3.8218E+05 -2.9433E+04   4.1162E+05  0.000E+00  0.000E+00  0.000E+00  4.42967E+01  3.308E-01  2.000E+01  2.000E+04 -1.472E+00
   1   16   11     1    11    4.1162E+05 -3.0088E+04   4.4171E+05  0.000E+00  0.000E+00  0.000E+00  4.38341E+01  3.454E-01  2.000E+01  2.000E+04 -1.504E+00
   1   16   12     1    12    4.4171E+05 -3.5782E+04   4.7749E+05  0.000E+00  0.000E+00  0.000E+00  4.33726E+01  3.612E-01  2.000E+01  2.000E+04 -1.789E+00
   1   15   13     1    13    4.7749E+05 -3.3967E+04   5.1146E+05  0.000E+00  0.000E+00  0.000E+00  4.29115E+01  3.774E-01  2.000E+01  2.000E+04 -1.698E+00
   1   14   14     1    14    5.1146E+05 -3.3969E+04   5.4542E+05  0.000E+00  0.000E+00  0.000E+00  4.24496E+01  3.928E-01  2.000E+01  2.000E+04 -1.698E+00
   1   13   15     1    15    5.4542E+05 -3.5513E+04   5.8094E+05  0.000E+00  0.000E+00  0.000E+00  4.19876E+01  4.080E-01  2.000E+01  2.000E+04 -1.776E+00
   1   12   16     1    16    5.8094E+05 -4.0872E+04   6.2181E+05  0.000E+00  0.000E+00  0.000E+00  4.15267E+01  4.244E-01  2.000E+01  2.000E+04 -2.044E+00
   1   12   17     1    17    6.2181E+05 -3.2692E+04   6.5450E+05  0.000E+00  0.000E+00  0.000E+00  4.10648E+01  4.398E-01  2.000E+01  2.000E+04 -1.635E+00
   1   12   18     1    18    6.5450E+05 -3.1620E+04   6.8612E+05  0.000E+00  0.000E+00  0.000E+00  4.06007E+01  4.530E-01  2.000E+01  2.000E+04 -1.581E+00
   1   12   19     1    19    6.8612E+05 -3.5967E+04   7.2209E+05  0.000E+00  0.000E+00  0.000E+00  4.01370E+01  4.666E-01  2.000E+01  2.000E+04 -1.798E+00
   1   13   20     1    20    7.2209E+05 -2.6840E+04   7.4893E+05  0.000E+00  0.000E+00  0.000E+00  3.96721E+01  4.789E-01  2.000E+01  2.000E+04 -1.342E+00
   1   14   21     1    21    7.4893E+05 -1.9998E+04   7.6892E+05  0.000E+00  0.000E+00  0.000E+00  3.92039E+01  4.880E-01  2.000E+01  2.000E+04 -9.999E-01
   1   14   22     1    22    7.6892E+05 -1.8934E+03   7.7082E+05  0.000E+00  0.000E+00  0.000E+00  3.87309E+01  4.922E-01  2.000E+01  2.000E+04 -9.467E-02
   1    9   30     2     1    5.0000E+04 -2.6875E+04   7.6875E+04  0.000E+00  0.000E+00  0.000E+00  4.02587E+01  1.337E-01  2.000E+01  2.000E+04 -1.344E+00
   1    9   29     2     2    7.6875E+04 -2.9331E+04   1.0621E+05  0.000E+00  0.000E+00  0.000E+00  4.00415E+01  1.665E-01  2.000E+01  2.000E+04 -1.467E+00
   1    9   28     2     3    1.0621E+05 -3.3601E+04   1.3981E+05  0.000E+00  0.000E+00  0.000E+00  3.98239E+01  1.989E-01  2.000E+01  2.000E+04 -1.680E+00
   1    9   27     2     4    1.3981E+05 -4.7716E+04   1.8752E+05  0.000E+00  0.000E+00  0.000E+00  3.96110E+01  2.360E-01  2.000E+01  2.000E+04 -2.386E+00
   1   10   26     2     5    1.8752E+05 -3.3674E+04   2.2120E+05  0.000E+00  0.000E+00  0.000E+00  3.93947E+01  2.697E-01  2.000E+01  2.000E+04 -1.684E+00
   1   11   25     2     6    2.2120E+05 -2.5284E+04   2.4648E+05  0.000E+00  0.000E+00  0.000E+00  3.91674E+01  2.924E-01  2.000E+01  2.000E+04 -1.264E+00
   1   12   24     2     7    2.4648E+05 -1.8671E+04   2.6515E+05  0.000E+00  0.000E+00  0.000E+00  3.89336E+01  3.086E-01  2.000E+01  2.000E+04 -9.335E-01
   1   13   23     2     8    2.6515E+05 -1.3296E+04   2.7845E+05  0.000E+00  0.000E+00  0.000E+00  3.86950E+01  3.200E-01  2.000E+01  2.000E+04 -6.648E-01
   1   14   22     2     9    2.7845E+05 -7.4658E+03   2.8591E+05  0.000E+00  0.000E+00  0.000E+00  3.84523E+01  3.273E-01  2.000E+01  2.000E+04 -3.733E-01
   1   14   22     3     1    1.0567E+06 -1.5478E+04   1.0722E+06  0.000E+00  0.000E+00  0.000E+00  3.80517E+01  4.961E-01  2.000E+01  2.000E+04 -7.739E-01
   1   15   23     3     2    1.0722E+06 -2.4085E+04   1.0963E+06  0.000E+00  0.000E+00  0.000E+00  3.71683E+01  5.016E-01  2.000E+01  2.000E+04 -1.204E+00
   1   15   24     3     3    1.0963E+06 -2.0055E+04   1.1163E+06  0.000E+00  0.000E+00  0.000E+00  3.62855E+01  5.077E-01  2.000E+01  2.000E+04 -1.003E+00
   1   15   25     3     4    1.1163E+06 -1.9650E+04   1.1360E+06  0.000E+00  0.000E+00  0.000E+00  3.54021E+01  5.132E-01  2.000E+01  2.000E+04 -9.825E-01
   1   15   26     3     5    1.1360E+06 -2.2458E+04   1.1585E+06  0.000E+00  0.000E+00  0.000E+00  3.45189E+01  5.189E-01  2.000E+01  2.000E+04 -1.123E+00
   1   16   27     3     6    1.1585E+06 -2.9720E+04   1.1882E+06  0.000E+00  0.000E+00  0.000E+00  3.36371E+01  5.260E-01  2.000E+01  2.000E+04 -1.486E+00
   1   17   28     3     7    1.1882E+06 -3.6796E+04   1.2250E+06  0.000E+00  0.000E+00  0.000E+00  3.27571E+01  5.349E-01  2.000E+01  2.000E+04 -1.840E+00
   1   18   29     3     8    1.2250E+06 -4.7764E+04   1.2727E+06  0.000E+00  0.000E+00  0.000E+00  3.18794E+01  5.460E-01  2.000E+01  2.000E+04 -2.388E+00
   1   18   30     3     9    1.2727E+06 -4.4111E+04   1.3168E+06  0.000E+00  0.000E+00  0.000E+00  3.10024E+01  5.580E-01  2.000E+01  2.000E+04 -2.206E+00



1
              HEAD IN LAYER   1 AT END OF TIME STEP   1 IN STRESS PERIOD   10
  ---------------------------------------------------------------------------

          1      2      3      4      5      6      7      8      9     10
         11     12     13     14     15     16     17     18     19     20
         21     22     23     24     25     26     27     28     29     30
 .........................................................................
   1  ****** ****** ****** ****** ****** ****** ****** ****** ****** ******
      ****** ****** ****** ****** ****** ****** ****** ****** ****** ******
      ****** ****** ****** ****** ****** ****** ****** ****** ****** ******
   2  ****** ****** ****** ****** ****** ****** ****** ****** ****** ******
      ****** ****** ****** ****** ****** ****** ****** ****** ****** ******
      ****** ****** ****** ****** ****** ****** ****** ****** ****** ******
   3  ****** ****** ****** ****** ****** ****** ****** ****** ****** ******
      ****** ****** ****** ****** ****** ****** ****** ****** ****** ******
      ****** ****** ****** ****** ****** ****** ****** ****** ****** ******
   4  ****** ****** ****** ****** ****** ****** ****** ****** ****** ******
      ****** ****** ****** ****** ****** ****** ****** ****** ****** ******
      ****** ****** ****** ****** ****** ****** ****** ****** ****** ******
   5  ****** ****** ****** ****** ****** ****** ****** ****** ****** ******
      ****** ****** ****** ****** ****** ****** ****** ****** ****** ******
      ****** ****** ****** ****** ****** ****** ****** ****** ****** ******
   6  ****** ****** ****** ****** ****** ****** ****** ****** ****** ******
      ****** ****** ****** ****** ****** ****** ****** ****** ****** ******
      ****** ****** ****** ****** ****** ****** ****** ****** ****** ******
   7  ****** ****** ****** ****** ****** ****** ****** ****** ****** ******
      ****** ****** ****** ****** ****** ****** ****** ****** ****** ******
      ****** ****** ****** ****** ****** ****** ****** ****** ****** ******
   8  ****** ****** ****** ****** ****** ****** ****** ****** ****** ******
      ****** ****** ****** ****** ****** ****** ****** ****** ****** ******
      ****** ****** ****** ****** ****** ****** ****** ****** ****** ******
   9  ****** ****** ****** ****** ****** ****** ****** ****** ****** ******
      ****** ****** ****** ****** ****** ****** ****** ****** ****** ******
      ****** ****** ****** ****** ****** ****** ****** ****** ****** ******
  10  ****** ****** ****** ****** ****** ****** ****** ****** ****** ******
      ****** ****** ****** ****** ****** ****** ****** ****** ****** ******
      ****** ****** ****** ****** ****** ****** ****** ****** ****** ******
  11  ****** ****** ****** ****** ****** ****** ****** ****** ****** ******
      ****** ****** ****** ****** ****** ****** ****** ****** ****** ******
      ****** ****** ****** ****** ****** ****** ****** ****** ****** ******
  12  ****** ****** ****** ****** ****** ****** ****** ****** ****** ******
      ****** ****** ****** ****** ****** ****** ****** ****** ****** ******
      ****** ****** ****** ****** ****** ****** ****** ****** ****** ******
  13  ****** ****** ****** ****** ****** ****** ****** ****** ****** ******
      ****** ****** ****** ****** ****** ****** ****** ****** ****** ******
      ****** ****** ****** ****** ****** ****** ****** ****** ****** ******
  14  ****** ****** ****** ****** ****** ****** ****** ****** ****** ******
      ****** ****** ****** ****** ****** ****** ****** ****** ****** ******
      ****** ****** ****** ****** ****** ****** ****** ****** ****** ******
  15  ****** ****** ****** ****** ****** ****** ****** ****** ****** ******
      ****** ****** ****** ****** ****** ****** ****** ****** ****** ******
      ****** ****** ****** ****** ****** ****** ****** ****** ****** ******
  16  ****** ****** ****** ****** ****** ****** ****** ****** ****** ******
      ****** ****** ****** ****** ****** ****** ****** ****** ****** ******
      ****** ****** ****** ****** ****** ****** ****** ****** ****** ******
  17  ****** ****** ****** ****** ****** ****** ****** ****** ****** ******
      ****** ****** ****** ****** ****** ****** ****** ****** ****** ******
      ****** ****** ****** ****** ****** ****** ****** ****** ****** ******
  18  ****** ****** ****** ****** ****** ****** ****** ****** ****** ******
      ****** ****** ****** ****** ****** ****** ****** ****** ****** ******
      ****** ****** ****** ****** ****** ****** ****** ****** ****** ******
  19  ****** ****** ****** ****** ****** ****** ****** ****** ****** ******
      ****** ****** ****** ****** ****** ****** ****** ****** ****** ******
      ****** ****** ****** ****** ****** ****** ****** ****** ****** ******
  20  ****** ****** ****** ****** ****** ****** ****** ****** ****** ******
      ****** ****** ****** ****** ****** ****** ****** ****** ****** ******
      ****** ****** ****** ****** ****** ****** ****** ****** ****** ******
  21  ****** ****** ****** ****** ****** ****** ****** ****** ****** ******
      ****** ****** ****** ****** ****** ****** ****** ****** ****** ******
      ****** ****** ****** ****** ****** ****** ****** ****** ****** ******
  22  ****** ****** ****** ****** ****** ****** ****** ****** ****** ******
      ****** ****** ****** ****** ****** ****** ****** ****** ****** ******
      ****** ****** ****** ****** ****** ****** ****** ****** ****** ******
  23  ****** ****** ****** ****** ****** ****** ****** ****** ****** ******
      ****** ****** ****** ****** ****** ****** ****** ****** ****** ******
      ****** ****** ****** ****** ****** ****** ****** ****** ****** ******
  24  ****** ****** ****** ****** ****** ****** ****** ****** ****** ******
      ****** ****** ****** ****** ****** ****** ****** ****** ****** ******
      ****** ****** ****** ****** ****** ****** ****** ****** ****** ******
  25  ****** ****** ****** ****** ****** ****** ****** ****** ****** ******
      ****** ****** ****** ****** ****** ****** ****** ****** ****** ******
      ****** ****** ****** ****** ****** ****** ****** ****** ****** ******

 HEAD WILL BE SAVED ON UNIT   51 AT END OF TIME STEP    1, STRESS PERIOD   10
1
  VOLUMETRIC BUDGET FOR ENTIRE MODEL AT END OF TIME STEP    1, STRESS PERIOD  10
  ------------------------------------------------------------------------------

     CUMULATIVE VOLUMES      L**3       RATES FOR THIS TIME STEP      L**3/T
     ------------------                 ------------------------

           IN:                                      IN:
           ---                                      ---
             STORAGE =    20787109.2031               STORAGE =         262.8223
       CONSTANT HEAD =  1077543732.3136         CONSTANT HEAD =     1194446.3320
               WELLS =           0.0000                 WELLS =           0.0000
            RECHARGE =    23901600.0000              RECHARGE =       55200.0000
      STREAM LEAKAGE =           0.0000        STREAM LEAKAGE =           0.0000

            TOTAL IN =  1122232441.5167              TOTAL IN =     1249909.1543

          OUT:                                     OUT:
          ----                                     ----
             STORAGE =      850893.1403               STORAGE =        3062.1510
       CONSTANT HEAD =           0.0000         CONSTANT HEAD =           0.0000
               WELLS =    58488473.7851                 WELLS =       80000.0000
            RECHARGE =           0.0000              RECHARGE =           0.0000
      STREAM LEAKAGE =  1062893076.3581        STREAM LEAKAGE =     1166846.9776

           TOTAL OUT =  1122232443.2836             TOTAL OUT =     1249909.1286

            IN - OUT =          -1.7669              IN - OUT =       2.5724E-02

 PERCENT DISCREPANCY =          -0.00     PERCENT DISCREPANCY =           0.00






         TIME SUMMARY AT END OF TIME STEP    1 IN STRESS PERIOD   10
                    SECONDS     MINUTES      HOURS       DAYS        YEARS
                    -----------------------------------------------------------
   TIME STEP LENGTH 7.86240E+06 1.31040E+05  2184.0      91.000     0.24914    
 STRESS PERIOD TIME 7.86240E+06 1.31040E+05  2184.0      91.000     0.24914    
         TOTAL TIME 7.88832E+07 1.31472E+06  21912.      913.00      2.4997    
1
1
                            STRESS PERIOD NO.   11, LENGTH =   91.00000    
                            -----------------------------------------------

                              NUMBER OF TIME STEPS =     1

                               MULTIPLIER FOR DELT =     1.500

                            INITIAL TIME STEP SIZE =   91.00000    

 WELL NO.  LAYER   ROW   COL   STRESS RATE         
 --------------------------------------------------
      1      1     10     10      -7320.    
      2      1      9     14     -0.2622E+05

      2 WELLS

                 RECHARGE =   0.00000    

 REUSING STREAM SEGMENT DATA FROM LAST STRESS PERIOD
 
 SOLVING FOR HEAD 


     6 CALLS TO PCG ROUTINE FOR TIME STEP   1 IN STRESS PERIOD   11
    22 TOTAL ITERATIONS

 OUTPUT CONTROL FOR STRESS PERIOD   11   TIME STEP    1
    SAVE BUDGET
    SAVE HEAD FOR ALL LAYERS
    PRINT HEAD FOR ALL LAYERS
 UBDSV2 SAVING "STREAMFLOW OUT  " ON UNIT  50 AT TIME STEP  1, STRESS PERIOD  11



 STREAM LISTING     PERIOD     11   STEP        1

 LAYER ROW COL. STREAM  RCH.  FLOW INTO     FLOW TO   FLOW OUT OF   OVRLND.     DIRECT     STREAM       STREAM     STREAM     STREAM   STREAMBED  STREAMBED
                SEG.NO.  NO.  STRM. RCH.    AQUIFER    STRM. RCH.    RUNOFF     PRECIP       ET          HEAD       DEPTH      WIDTH   CONDCTNC.   GRADIENT

   1   13    1     1     1    1.0000E+05 -2.7057E+04   1.2706E+05  0.000E+00  0.000E+00  0.000E+00  4.84175E+01  1.561E-01  2.000E+01  2.000E+04 -1.353E+00
   1   13    2     1     2    1.2706E+05 -3.6540E+04   1.6360E+05  0.000E+00  0.000E+00  0.000E+00  4.79651E+01  1.810E-01  2.000E+01  2.000E+04 -1.827E+00
   1   14    3     1     3    1.6360E+05 -3.2101E+04   1.9570E+05  0.000E+00  0.000E+00  0.000E+00  4.75124E+01  2.056E-01  2.000E+01  2.000E+04 -1.605E+00
   1   15    4     1     4    1.9570E+05 -3.1431E+04   2.2713E+05  0.000E+00  0.000E+00  0.000E+00  4.70562E+01  2.267E-01  2.000E+01  2.000E+04 -1.572E+00
   1   16    5     1     5    2.2713E+05 -3.3169E+04   2.6030E+05  0.000E+00  0.000E+00  0.000E+00  4.65991E+01  2.469E-01  2.000E+01  2.000E+04 -1.658E+00
   1   16    6     1     6    2.6030E+05 -2.8868E+04   2.8917E+05  0.000E+00  0.000E+00  0.000E+00  4.61403E+01  2.653E-01  2.000E+01  2.000E+04 -1.443E+00
   1   16    7     1     7    2.8917E+05 -2.8610E+04   3.1778E+05  0.000E+00  0.000E+00  0.000E+00  4.56793E+01  2.816E-01  2.000E+01  2.000E+04 -1.431E+00
   1   16    8     1     8    3.1778E+05 -2.8719E+04   3.4650E+05  0.000E+00  0.000E+00  0.000E+00  4.52177E+01  2.972E-01  2.000E+01  2.000E+04 -1.436E+00
   1   16    9     1     9    3.4650E+05 -2.8746E+04   3.7524E+05  0.000E+00  0.000E+00  0.000E+00  4.47556E+01  3.124E-01  2.000E+01  2.000E+04 -1.437E+00
   1   16   10     1    10    3.7524E+05 -2.8757E+04   4.0400E+05  0.000E+00  0.000E+00  0.000E+00  4.42930E+01  3.271E-01  2.000E+01  2.000E+04 -1.438E+00
   1   16   11     1    11    4.0400E+05 -2.9395E+04   4.3339E+05  0.000E+00  0.000E+00  0.000E+00  4.38302E+01  3.416E-01  2.000E+01  2.000E+04 -1.470E+00
   1   16   12     1    12    4.3339E+05 -3.4956E+04   4.6835E+05  0.000E+00  0.000E+00  0.000E+00  4.33684E+01  3.571E-01  2.000E+01  2.000E+04 -1.748E+00
   1   15   13     1    13    4.6835E+05 -3.3082E+04   5.0143E+05  0.000E+00  0.000E+00  0.000E+00  4.29071E+01  3.730E-01  2.000E+01  2.000E+04 -1.654E+00
   1   14   14     1    14    5.0143E+05 -3.3064E+04   5.3449E+05  0.000E+00  0.000E+00  0.000E+00  4.24449E+01  3.881E-01  2.000E+01  2.000E+04 -1.653E+00
   1   13   15     1    15    5.3449E+05 -3.4619E+04   5.6911E+05  0.000E+00  0.000E+00  0.000E+00  4.19826E+01  4.031E-01  2.000E+01  2.000E+04 -1.731E+00
   1   12   16     1    16    5.6911E+05 -4.0044E+04   6.0916E+05  0.000E+00  0.000E+00  0.000E+00  4.15215E+01  4.192E-01  2.000E+01  2.000E+04 -2.002E+00
   1   12   17     1    17    6.0916E+05 -3.2038E+04   6.4119E+05  0.000E+00  0.000E+00  0.000E+00  4.10594E+01  4.344E-01  2.000E+01  2.000E+04 -1.602E+00
   1   12   18     1    18    6.4119E+05 -3.1000E+04   6.7219E+05  0.000E+00  0.000E+00  0.000E+00  4.05952E+01  4.474E-01  2.000E+01  2.000E+04 -1.550E+00
   1   12   19     1    19    6.7219E+05 -3.5290E+04   7.0748E+05  0.000E+00  0.000E+00  0.000E+00  4.01313E+01  4.609E-01  2.000E+01  2.000E+04 -1.765E+00
   1   13   20     1    20    7.0748E+05 -2.6150E+04   7.3364E+05  0.000E+00  0.000E+00  0.000E+00  3.96663E+01  4.731E-01  2.000E+01  2.000E+04 -1.308E+00
   1   14   21     1    21    7.3364E+05 -1.9374E+04   7.5301E+05  0.000E+00  0.000E+00  0.000E+00  3.91979E+01  4.820E-01  2.000E+01  2.000E+04 -9.687E-01
   1   14   22     1    22    7.5301E+05 -1.6715E+03   7.5468E+05  0.000E+00  0.000E+00  0.000E+00  3.87247E+01  4.861E-01  2.000E+01  2.000E+04 -8.358E-02
   1    9   30     2     1    5.0000E+04 -2.6304E+04   7.6304E+04  0.000E+00  0.000E+00  0.000E+00  4.02583E+01  1.333E-01  2.000E+01  2.000E+04 -1.315E+00
   1    9   29     2     2    7.6304E+04 -2.8763E+04   1.0507E+05  0.000E+00  0.000E+00  0.000E+00  4.00406E+01  1.656E-01  2.000E+01  2.000E+04 -1.438E+00
   1    9   28     2     3    1.0507E+05 -3.3021E+04   1.3809E+05  0.000E+00  0.000E+00  0.000E+00  3.98225E+01  1.975E-01  2.000E+01  2.000E+04 -1.651E+00
   1    9   27     2     4    1.3809E+05 -4.7023E+04   1.8511E+05  0.000E+00  0.000E+00  0.000E+00  3.96092E+01  2.342E-01  2.000E+01  2.000E+04 -2.351E+00
   1   10   26     2     5    1.8511E+05 -3.2959E+04   2.1807E+05  0.000E+00  0.000E+00  0.000E+00  3.93925E+01  2.675E-01  2.000E+01  2.000E+04 -1.648E+00
   1   11   25     2     6    2.1807E+05 -2.4600E+04   2.4267E+05  0.000E+00  0.000E+00  0.000E+00  3.91648E+01  2.898E-01  2.000E+01  2.000E+04 -1.230E+00
   1   12   24     2     7    2.4267E+05 -1.8061E+04   2.6073E+05  0.000E+00  0.000E+00  0.000E+00  3.89306E+01  3.056E-01  2.000E+01  2.000E+04 -9.031E-01
   1   13   23     2     8    2.6073E+05 -1.2798E+04   2.7353E+05  0.000E+00  0.000E+00  0.000E+00  3.86917E+01  3.167E-01  2.000E+01  2.000E+04 -6.399E-01
   1   14   22     2     9    2.7353E+05 -7.1910E+03   2.8072E+05  0.000E+00  0.000E+00  0.000E+00  3.84487E+01  3.237E-01  2.000E+01  2.000E+04 -3.596E-01
   1   14   22     3     1    1.0354E+06 -1.5253E+04   1.0507E+06  0.000E+00  0.000E+00  0.000E+00  3.80456E+01  4.901E-01  2.000E+01  2.000E+04 -7.626E-01
   1   15   23     3     2    1.0507E+06 -2.3487E+04   1.0741E+06  0.000E+00  0.000E+00  0.000E+00  3.71622E+01  4.955E-01  2.000E+01  2.000E+04 -1.174E+00
   1   15   24     3     3    1.0741E+06 -1.9558E+04   1.0937E+06  0.000E+00  0.000E+00  0.000E+00  3.62793E+01  5.015E-01  2.000E+01  2.000E+04 -9.779E-01
   1   15   25     3     4    1.0937E+06 -1.9156E+04   1.1129E+06  0.000E+00  0.000E+00  0.000E+00  3.53958E+01  5.069E-01  2.000E+01  2.000E+04 -9.578E-01
   1   15   26     3     5    1.1129E+06 -2.1881E+04   1.1347E+06  0.000E+00  0.000E+00  0.000E+00  3.45125E+01  5.125E-01  2.000E+01  2.000E+04 -1.094E+00
   1   16   27     3     6    1.1347E+06 -2.9022E+04   1.1638E+06  0.000E+00  0.000E+00  0.000E+00  3.36306E+01  5.195E-01  2.000E+01  2.000E+04 -1.451E+00
   1   17   28     3     7    1.1638E+06 -3.6081E+04   1.1998E+06  0.000E+00  0.000E+00  0.000E+00  3.27505E+01  5.282E-01  2.000E+01  2.000E+04 -1.804E+00
   1   18   29     3     8    1.1998E+06 -4.7092E+04   1.2469E+06  0.000E+00  0.000E+00  0.000E+00  3.18726E+01  5.393E-01  2.000E+01  2.000E+04 -2.355E+00
   1   18   30     3     9    1.2469E+06 -4.3550E+04   1.2905E+06  0.000E+00  0.000E+00  0.000E+00  3.09957E+01  5.512E-01  2.000E+01  2.000E+04 -2.177E+00



1
              HEAD IN LAYER   1 AT END OF TIME STEP   1 IN STRESS PERIOD   11
  ---------------------------------------------------------------------------

          1      2      3      4      5      6      7      8      9     10
         11     12     13     14     15     16     17     18     19     20
         21     22     23     24     25     26     27     28     29     30
 .........................................................................
   1  ****** ****** ****** ****** ****** ****** ****** ****** ****** ******
      ****** ****** ****** ****** ****** ****** ****** ****** ****** ******
      ****** ****** ****** ****** ****** ****** ****** ****** ****** ******
   2  ****** ****** ****** ****** ****** ****** ****** ****** ****** ******
      ****** ****** ****** ****** ****** ****** ****** ****** ****** ******
      ****** ****** ****** ****** ****** ****** ****** ****** ****** ******
   3  ****** ****** ****** ****** ****** ****** ****** ****** ****** ******
      ****** ****** ****** ****** ****** ****** ****** ****** ****** ******
      ****** ****** ****** ****** ****** ****** ****** ****** ****** ******
   4  ****** ****** ****** ****** ****** ****** ****** ****** ****** ******
      ****** ****** ****** ****** ****** ****** ****** ****** ****** ******
      ****** ****** ****** ****** ****** ****** ****** ****** ****** ******
   5  ****** ****** ****** ****** ****** ****** ****** ****** ****** ******
      ****** ****** ****** ****** ****** ****** ****** ****** ****** ******
      ****** ****** ****** ****** ****** ****** ****** ****** ****** ******
   6  ****** ****** ****** ****** ****** ****** ****** ****** ****** ******
      ****** ****** ****** ****** ****** ****** ****** ****** ****** ******
      ****** ****** ****** ****** ****** ****** ****** ****** ****** ******
   7  ****** ****** ****** ****** ****** ****** ****** ****** ****** ******
      ****** ****** ****** ****** ****** ****** ****** ****** ****** ******
      ****** ****** ****** ****** ****** ****** ****** ****** ****** ******
   8  ****** ****** ****** ****** ****** ****** ****** ****** ****** ******
      ****** ****** ****** ****** ****** ****** ****** ****** ****** ******
      ****** ****** ****** ****** ****** ****** ****** ****** ****** ******
   9  ****** ****** ****** ****** ****** ****** ****** ****** ****** ******
      ****** ****** ****** ****** ****** ****** ****** ****** ****** ******
      ****** ****** ****** ****** ****** ****** ****** ****** ****** ******
  10  ****** ****** ****** ****** ****** ****** ****** ****** ****** ******
      ****** ****** ****** ****** ****** ****** ****** ****** ****** ******
      ****** ****** ****** ****** ****** ****** ****** ****** ****** ******
  11  ****** ****** ****** ****** ****** ****** ****** ****** ****** ******
      ****** ****** ****** ****** ****** ****** ****** ****** ****** ******
      ****** ****** ****** ****** ****** ****** ****** ****** ****** ******
  12  ****** ****** ****** ****** ****** ****** ****** ****** ****** ******
      ****** ****** ****** ****** ****** ****** ****** ****** ****** ******
      ****** ****** ****** ****** ****** ****** ****** ****** ****** ******
  13  ****** ****** ****** ****** ****** ****** ****** ****** ****** ******
      ****** ****** ****** ****** ****** ****** ****** ****** ****** ******
      ****** ****** ****** ****** ****** ****** ****** ****** ****** ******
  14  ****** ****** ****** ****** ****** ****** ****** ****** ****** ******
      ****** ****** ****** ****** ****** ****** ****** ****** ****** ******
      ****** ****** ****** ****** ****** ****** ****** ****** ****** ******
  15  ****** ****** ****** ****** ****** ****** ****** ****** ****** ******
      ****** ****** ****** ****** ****** ****** ****** ****** ****** ******
      ****** ****** ****** ****** ****** ****** ****** ****** ****** ******
  16  ****** ****** ****** ****** ****** ****** ****** ****** ****** ******
      ****** ****** ****** ****** ****** ****** ****** ****** ****** ******
      ****** ****** ****** ****** ****** ****** ****** ****** ****** ******
  17  ****** ****** ****** ****** ****** ****** ****** ****** ****** ******
      ****** ****** ****** ****** ****** ****** ****** ****** ****** ******
      ****** ****** ****** ****** ****** ****** ****** ****** ****** ******
  18  ****** ****** ****** ****** ****** ****** ****** ****** ****** ******
      ****** ****** ****** ****** ****** ****** ****** ****** ****** ******
      ****** ****** ****** ****** ****** ****** ****** ****** ****** ******
  19  ****** ****** ****** ****** ****** ****** ****** ****** ****** ******
      ****** ****** ****** ****** ****** ****** ****** ****** ****** ******
      ****** ****** ****** ****** ****** ****** ****** ****** ****** ******
  20  ****** ****** ****** ****** ****** ****** ****** ****** ****** ******
      ****** ****** ****** ****** ****** ****** ****** ****** ****** ******
      ****** ****** ****** ****** ****** ****** ****** ****** ****** ******
  21  ****** ****** ****** ****** ****** ****** ****** ****** ****** ******
      ****** ****** ****** ****** ****** ****** ****** ****** ****** ******
      ****** ****** ****** ****** ****** ****** ****** ****** ****** ******
  22  ****** ****** ****** ****** ****** ****** ****** ****** ****** ******
      ****** ****** ****** ****** ****** ****** ****** ****** ****** ******
      ****** ****** ****** ****** ****** ****** ****** ****** ****** ******
  23  ****** ****** ****** ****** ****** ****** ****** ****** ****** ******
      ****** ****** ****** ****** ****** ****** ****** ****** ****** ******
      ****** ****** ****** ****** ****** ****** ****** ****** ****** ******
  24  ****** ****** ****** ****** ****** ****** ****** ****** ****** ******
      ****** ****** ****** ****** ****** ****** ****** ****** ****** ******
      ****** ****** ****** ****** ****** ****** ****** ****** ****** ******
  25  ****** ****** ****** ****** ****** ****** ****** ****** ****** ******
      ****** ****** ****** ****** ****** ****** ****** ****** ****** ******
      ****** ****** ****** ****** ****** ****** ****** ****** ****** ******

 HEAD WILL BE SAVED ON UNIT   51 AT END OF TIME STEP    1, STRESS PERIOD   11
1
  VOLUMETRIC BUDGET FOR ENTIRE MODEL AT END OF TIME STEP    1, STRESS PERIOD  11
  ------------------------------------------------------------------------------

     CUMULATIVE VOLUMES      L**3       RATES FOR THIS TIME STEP      L**3/T
     ------------------                 ------------------------

           IN:                                      IN:
           ---                                      ---
             STORAGE =    20960191.1718               STORAGE =        1901.9997
       CONSTANT HEAD =  1184243438.1305         CONSTANT HEAD =     1172524.2397
               WELLS =           0.0000                 WELLS =           0.0000
            RECHARGE =    23901600.0000              RECHARGE =           0.0000
      STREAM LEAKAGE =           0.0000        STREAM LEAKAGE =           0.0000

            TOTAL IN =  1229105229.3023              TOTAL IN =     1174426.2394

          OUT:                                     OUT:
          ----                                     ----
             STORAGE =      888277.7231               STORAGE =         410.8196
       CONSTANT HEAD =           0.0000         CONSTANT HEAD =           0.0000
               WELLS =    61540232.8709                 WELLS =       33535.8141
            RECHARGE =           0.0000              RECHARGE =           0.0000
      STREAM LEAKAGE =  1166676723.1473        STREAM LEAKAGE =     1140479.6350

           TOTAL OUT =  1229105233.7413             TOTAL OUT =     1174426.2688

            IN - OUT =          -4.4390              IN - OUT =      -2.9364E-02

 PERCENT DISCREPANCY =          -0.00     PERCENT DISCREPANCY =          -0.00






         TIME SUMMARY AT END OF TIME STEP    1 IN STRESS PERIOD   11
                    SECONDS     MINUTES      HOURS       DAYS        YEARS
                    -----------------------------------------------------------
   TIME STEP LENGTH 7.86240E+06 1.31040E+05  2184.0      91.000     0.24914    
 STRESS PERIOD TIME 7.86240E+06 1.31040E+05  2184.0      91.000     0.24914    
         TOTAL TIME 8.67456E+07 1.44576E+06  24096.      1004.0      2.7488    
1
1
                            STRESS PERIOD NO.   12, LENGTH =   91.00000    
                            -----------------------------------------------

                              NUMBER OF TIME STEPS =     1

                               MULTIPLIER FOR DELT =     1.500

                            INITIAL TIME STEP SIZE =   91.00000    

 WELL NO.  LAYER   ROW   COL   STRESS RATE         
 --------------------------------------------------
      1      1     10     10      -7320.    
      2      1      9     14     -0.2108E+05
      3      1      2     13     -0.5250E+05

      3 WELLS

                 RECHARGE =  1.000000E-03

 REUSING STREAM SEGMENT DATA FROM LAST STRESS PERIOD
 
 SOLVING FOR HEAD 


     5 CALLS TO PCG ROUTINE FOR TIME STEP   1 IN STRESS PERIOD   12
    20 TOTAL ITERATIONS

 OUTPUT CONTROL FOR STRESS PERIOD   12   TIME STEP    1
    SAVE BUDGET
    SAVE HEAD FOR ALL LAYERS
    PRINT HEAD FOR ALL LAYERS
 UBDSV2 SAVING "STREAMFLOW OUT  " ON UNIT  50 AT TIME STEP  1, STRESS PERIOD  12



 STREAM LISTING     PERIOD     12   STEP        1

 LAYER ROW COL. STREAM  RCH.  FLOW INTO     FLOW TO   FLOW OUT OF   OVRLND.     DIRECT     STREAM       STREAM     STREAM     STREAM   STREAMBED  STREAMBED
                SEG.NO.  NO.  STRM. RCH.    AQUIFER    STRM. RCH.    RUNOFF     PRECIP       ET          HEAD       DEPTH      WIDTH   CONDCTNC.   GRADIENT

   1   13    1     1     1    1.0000E+05 -2.7393E+04   1.2739E+05  0.000E+00  0.000E+00  0.000E+00  4.84176E+01  1.562E-01  2.000E+01  2.000E+04 -1.370E+00
   1   13    2     1     2    1.2739E+05 -3.6932E+04   1.6433E+05  0.000E+00  0.000E+00  0.000E+00  4.79655E+01  1.814E-01  2.000E+01  2.000E+04 -1.847E+00
   1   14    3     1     3    1.6433E+05 -3.2507E+04   1.9683E+05  0.000E+00  0.000E+00  0.000E+00  4.75130E+01  2.062E-01  2.000E+01  2.000E+04 -1.625E+00
   1   15    4     1     4    1.9683E+05 -3.1837E+04   2.2867E+05  0.000E+00  0.000E+00  0.000E+00  4.70571E+01  2.275E-01  2.000E+01  2.000E+04 -1.592E+00
   1   16    5     1     5    2.2867E+05 -3.3553E+04   2.6222E+05  0.000E+00  0.000E+00  0.000E+00  4.66002E+01  2.479E-01  2.000E+01  2.000E+04 -1.678E+00
   1   16    6     1     6    2.6222E+05 -2.9196E+04   2.9142E+05  0.000E+00  0.000E+00  0.000E+00  4.61415E+01  2.665E-01  2.000E+01  2.000E+04 -1.460E+00
   1   16    7     1     7    2.9142E+05 -2.8932E+04   3.2035E+05  0.000E+00  0.000E+00  0.000E+00  4.56806E+01  2.829E-01  2.000E+01  2.000E+04 -1.447E+00
   1   16    8     1     8    3.2035E+05 -2.9043E+04   3.4939E+05  0.000E+00  0.000E+00  0.000E+00  4.52192E+01  2.987E-01  2.000E+01  2.000E+04 -1.452E+00
   1   16    9     1     9    3.4939E+05 -2.9073E+04   3.7846E+05  0.000E+00  0.000E+00  0.000E+00  4.47572E+01  3.140E-01  2.000E+01  2.000E+04 -1.454E+00
   1   16   10     1    10    3.7846E+05 -2.9089E+04   4.0755E+05  0.000E+00  0.000E+00  0.000E+00  4.42947E+01  3.288E-01  2.000E+01  2.000E+04 -1.454E+00
   1   16   11     1    11    4.0755E+05 -2.9739E+04   4.3729E+05  0.000E+00  0.000E+00  0.000E+00  4.38320E+01  3.434E-01  2.000E+01  2.000E+04 -1.487E+00
   1   16   12     1    12    4.3729E+05 -3.5367E+04   4.7266E+05  0.000E+00  0.000E+00  0.000E+00  4.33704E+01  3.590E-01  2.000E+01  2.000E+04 -1.768E+00
   1   15   13     1    13    4.7266E+05 -3.3547E+04   5.0621E+05  0.000E+00  0.000E+00  0.000E+00  4.29092E+01  3.751E-01  2.000E+01  2.000E+04 -1.677E+00
   1   14   14     1    14    5.0621E+05 -3.3578E+04   5.3979E+05  0.000E+00  0.000E+00  0.000E+00  4.24471E+01  3.903E-01  2.000E+01  2.000E+04 -1.679E+00
   1   13   15     1    15    5.3979E+05 -3.5179E+04   5.7496E+05  0.000E+00  0.000E+00  0.000E+00  4.19851E+01  4.055E-01  2.000E+01  2.000E+04 -1.759E+00
   1   12   16     1    16    5.7496E+05 -4.0608E+04   6.1557E+05  0.000E+00  0.000E+00  0.000E+00  4.15241E+01  4.218E-01  2.000E+01  2.000E+04 -2.030E+00
   1   12   17     1    17    6.1557E+05 -3.2426E+04   6.4800E+05  0.000E+00  0.000E+00  0.000E+00  4.10622E+01  4.372E-01  2.000E+01  2.000E+04 -1.621E+00
   1   12   18     1    18    6.4800E+05 -3.1332E+04   6.7933E+05  0.000E+00  0.000E+00  0.000E+00  4.05980E+01  4.503E-01  2.000E+01  2.000E+04 -1.567E+00
   1   12   19     1    19    6.7933E+05 -3.5628E+04   7.1496E+05  0.000E+00  0.000E+00  0.000E+00  4.01342E+01  4.638E-01  2.000E+01  2.000E+04 -1.781E+00
   1   13   20     1    20    7.1496E+05 -2.6485E+04   7.4144E+05  0.000E+00  0.000E+00  0.000E+00  3.96693E+01  4.761E-01  2.000E+01  2.000E+04 -1.324E+00
   1   14   21     1    21    7.4144E+05 -1.9674E+04   7.6112E+05  0.000E+00  0.000E+00  0.000E+00  3.92010E+01  4.851E-01  2.000E+01  2.000E+04 -9.837E-01
   1   14   22     1    22    7.6112E+05 -1.7765E+03   7.6289E+05  0.000E+00  0.000E+00  0.000E+00  3.87279E+01  4.892E-01  2.000E+01  2.000E+04 -8.883E-02
   1    9   30     2     1    5.0000E+04 -2.6577E+04   7.6577E+04  0.000E+00  0.000E+00  0.000E+00  4.02585E+01  1.335E-01  2.000E+01  2.000E+04 -1.329E+00
   1    9   29     2     2    7.6577E+04 -2.9034E+04   1.0561E+05  0.000E+00  0.000E+00  0.000E+00  4.00411E+01  1.661E-01  2.000E+01  2.000E+04 -1.452E+00
   1    9   28     2     3    1.0561E+05 -3.3296E+04   1.3891E+05  0.000E+00  0.000E+00  0.000E+00  3.98231E+01  1.981E-01  2.000E+01  2.000E+04 -1.665E+00
   1    9   27     2     4    1.3891E+05 -4.7348E+04   1.8626E+05  0.000E+00  0.000E+00  0.000E+00  3.96101E+01  2.351E-01  2.000E+01  2.000E+04 -2.367E+00
   1   10   26     2     5    1.8626E+05 -3.3295E+04   2.1955E+05  0.000E+00  0.000E+00  0.000E+00  3.93935E+01  2.685E-01  2.000E+01  2.000E+04 -1.665E+00
   1   11   25     2     6    2.1955E+05 -2.4923E+04   2.4447E+05  0.000E+00  0.000E+00  0.000E+00  3.91660E+01  2.910E-01  2.000E+01  2.000E+04 -1.246E+00
   1   12   24     2     7    2.4447E+05 -1.8351E+04   2.6282E+05  0.000E+00  0.000E+00  0.000E+00  3.89320E+01  3.070E-01  2.000E+01  2.000E+04 -9.176E-01
   1   13   23     2     8    2.6282E+05 -1.3037E+04   2.7586E+05  0.000E+00  0.000E+00  0.000E+00  3.86932E+01  3.182E-01  2.000E+01  2.000E+04 -6.519E-01
   1   14   22     2     9    2.7586E+05 -7.3255E+03   2.8319E+05  0.000E+00  0.000E+00  0.000E+00  3.84504E+01  3.254E-01  2.000E+01  2.000E+04 -3.663E-01
   1   14   22     3     1    1.0461E+06 -1.5360E+04   1.0614E+06  0.000E+00  0.000E+00  0.000E+00  3.80487E+01  4.931E-01  2.000E+01  2.000E+04 -7.680E-01
   1   15   23     3     2    1.0614E+06 -2.3773E+04   1.0852E+06  0.000E+00  0.000E+00  0.000E+00  3.71653E+01  4.986E-01  2.000E+01  2.000E+04 -1.189E+00
   1   15   24     3     3    1.0852E+06 -1.9797E+04   1.1050E+06  0.000E+00  0.000E+00  0.000E+00  3.62824E+01  5.046E-01  2.000E+01  2.000E+04 -9.898E-01
   1   15   25     3     4    1.1050E+06 -1.9394E+04   1.1244E+06  0.000E+00  0.000E+00  0.000E+00  3.53989E+01  5.100E-01  2.000E+01  2.000E+04 -9.697E-01
   1   15   26     3     5    1.1244E+06 -2.2159E+04   1.1466E+06  0.000E+00  0.000E+00  0.000E+00  3.45157E+01  5.157E-01  2.000E+01  2.000E+04 -1.108E+00
   1   16   27     3     6    1.1466E+06 -2.9358E+04   1.1759E+06  0.000E+00  0.000E+00  0.000E+00  3.36338E+01  5.227E-01  2.000E+01  2.000E+04 -1.468E+00
   1   17   28     3     7    1.1759E+06 -3.6424E+04   1.2123E+06  0.000E+00  0.000E+00  0.000E+00  3.27538E+01  5.315E-01  2.000E+01  2.000E+04 -1.821E+00
   1   18   29     3     8    1.2123E+06 -4.7415E+04   1.2598E+06  0.000E+00  0.000E+00  0.000E+00  3.18760E+01  5.427E-01  2.000E+01  2.000E+04 -2.371E+00
   1   18   30     3     9    1.2598E+06 -4.3820E+04   1.3036E+06  0.000E+00  0.000E+00  0.000E+00  3.09990E+01  5.546E-01  2.000E+01  2.000E+04 -2.191E+00



1
              HEAD IN LAYER   1 AT END OF TIME STEP   1 IN STRESS PERIOD   12
  ---------------------------------------------------------------------------

          1      2      3      4      5      6      7      8      9     10
         11     12     13     14     15     16     17     18     19     20
         21     22     23     24     25     26     27     28     29     30
 .........................................................................
   1  ****** ****** ****** ****** ****** ****** ****** ****** ****** ******
      ****** ****** ****** ****** ****** ****** ****** ****** ****** ******
      ****** ****** ****** ****** ****** ****** ****** ****** ****** ******
   2  ****** ****** ****** ****** ****** ****** ****** ****** ****** ******
      ****** ****** ****** ****** ****** ****** ****** ****** ****** ******
      ****** ****** ****** ****** ****** ****** ****** ****** ****** ******
   3  ****** ****** ****** ****** ****** ****** ****** ****** ****** ******
      ****** ****** ****** ****** ****** ****** ****** ****** ****** ******
      ****** ****** ****** ****** ****** ****** ****** ****** ****** ******
   4  ****** ****** ****** ****** ****** ****** ****** ****** ****** ******
      ****** ****** ****** ****** ****** ****** ****** ****** ****** ******
      ****** ****** ****** ****** ****** ****** ****** ****** ****** ******
   5  ****** ****** ****** ****** ****** ****** ****** ****** ****** ******
      ****** ****** ****** ****** ****** ****** ****** ****** ****** ******
      ****** ****** ****** ****** ****** ****** ****** ****** ****** ******
   6  ****** ****** ****** ****** ****** ****** ****** ****** ****** ******
      ****** ****** ****** ****** ****** ****** ****** ****** ****** ******
      ****** ****** ****** ****** ****** ****** ****** ****** ****** ******
   7  ****** ****** ****** ****** ****** ****** ****** ****** ****** ******
      ****** ****** ****** ****** ****** ****** ****** ****** ****** ******
      ****** ****** ****** ****** ****** ****** ****** ****** ****** ******
   8  ****** ****** ****** ****** ****** ****** ****** ****** ****** ******
      ****** ****** ****** ****** ****** ****** ****** ****** ****** ******
      ****** ****** ****** ****** ****** ****** ****** ****** ****** ******
   9  ****** ****** ****** ****** ****** ****** ****** ****** ****** ******
      ****** ****** ****** ****** ****** ****** ****** ****** ****** ******
      ****** ****** ****** ****** ****** ****** ****** ****** ****** ******
  10  ****** ****** ****** ****** ****** ****** ****** ****** ****** ******
      ****** ****** ****** ****** ****** ****** ****** ****** ****** ******
      ****** ****** ****** ****** ****** ****** ****** ****** ****** ******
  11  ****** ****** ****** ****** ****** ****** ****** ****** ****** ******
      ****** ****** ****** ****** ****** ****** ****** ****** ****** ******
      ****** ****** ****** ****** ****** ****** ****** ****** ****** ******
  12  ****** ****** ****** ****** ****** ****** ****** ****** ****** ******
      ****** ****** ****** ****** ****** ****** ****** ****** ****** ******
      ****** ****** ****** ****** ****** ****** ****** ****** ****** ******
  13  ****** ****** ****** ****** ****** ****** ****** ****** ****** ******
      ****** ****** ****** ****** ****** ****** ****** ****** ****** ******
      ****** ****** ****** ****** ****** ****** ****** ****** ****** ******
  14  ****** ****** ****** ****** ****** ****** ****** ****** ****** ******
      ****** ****** ****** ****** ****** ****** ****** ****** ****** ******
      ****** ****** ****** ****** ****** ****** ****** ****** ****** ******
  15  ****** ****** ****** ****** ****** ****** ****** ****** ****** ******
      ****** ****** ****** ****** ****** ****** ****** ****** ****** ******
      ****** ****** ****** ****** ****** ****** ****** ****** ****** ******
  16  ****** ****** ****** ****** ****** ****** ****** ****** ****** ******
      ****** ****** ****** ****** ****** ****** ****** ****** ****** ******
      ****** ****** ****** ****** ****** ****** ****** ****** ****** ******
  17  ****** ****** ****** ****** ****** ****** ****** ****** ****** ******
      ****** ****** ****** ****** ****** ****** ****** ****** ****** ******
      ****** ****** ****** ****** ****** ****** ****** ****** ****** ******
  18  ****** ****** ****** ****** ****** ****** ****** ****** ****** ******
      ****** ****** ****** ****** ****** ****** ****** ****** ****** ******
      ****** ****** ****** ****** ****** ****** ****** ****** ****** ******
  19  ****** ****** ****** ****** ****** ****** ****** ****** ****** ******
      ****** ****** ****** ****** ****** ****** ****** ****** ****** ******
      ****** ****** ****** ****** ****** ****** ****** ****** ****** ******
  20  ****** ****** ****** ****** ****** ****** ****** ****** ****** ******
      ****** ****** ****** ****** ****** ****** ****** ****** ****** ******
      ****** ****** ****** ****** ****** ****** ****** ****** ****** ******
  21  ****** ****** ****** ****** ****** ****** ****** ****** ****** ******
      ****** ****** ****** ****** ****** ****** ****** ****** ****** ******
      ****** ****** ****** ****** ****** ****** ****** ****** ****** ******
  22  ****** ****** ****** ****** ****** ****** ****** ****** ****** ******
      ****** ****** ****** ****** ****** ****** ****** ****** ****** ******
      ****** ****** ****** ****** ****** ****** ****** ****** ****** ******
  23  ****** ****** ****** ****** ****** ****** ****** ****** ****** ******
      ****** ****** ****** ****** ****** ****** ****** ****** ****** ******
      ****** ****** ****** ****** ****** ****** ****** ****** ****** ******
  24  ****** ****** ****** ****** ****** ****** ****** ****** ****** ******
      ****** ****** ****** ****** ****** ****** ****** ****** ****** ******
      ****** ****** ****** ****** ****** ****** ****** ****** ****** ******
  25  ****** ****** ****** ****** ****** ****** ****** ****** ****** ******
      ****** ****** ****** ****** ****** ****** ****** ****** ****** ******
      ****** ****** ****** ****** ****** ****** ****** ****** ****** ******

 HEAD WILL BE SAVED ON UNIT   51 AT END OF TIME STEP    1, STRESS PERIOD   12
1
  VOLUMETRIC BUDGET FOR ENTIRE MODEL AT END OF TIME STEP    1, STRESS PERIOD  12
  ------------------------------------------------------------------------------

     CUMULATIVE VOLUMES      L**3       RATES FOR THIS TIME STEP      L**3/T
     ------------------                 ------------------------

           IN:                                      IN:
           ---                                      ---
             STORAGE =    21008332.2118               STORAGE =         529.0224
       CONSTANT HEAD =  1294101105.6974         CONSTANT HEAD =     1207227.1161
               WELLS =           0.0000                 WELLS =           0.0000
            RECHARGE =    26413200.0000              RECHARGE =       27600.0000
      STREAM LEAKAGE =           0.0000        STREAM LEAKAGE =           0.0000

            TOTAL IN =  1341522637.9092              TOTAL IN =     1235356.1385

          OUT:                                     OUT:
          ----                                     ----
             STORAGE =      967533.2209               STORAGE =         870.9395
       CONSTANT HEAD =           0.0000         CONSTANT HEAD =           0.0000
               WELLS =    68902503.3111                 WELLS =       80904.0708
            RECHARGE =           0.0000              RECHARGE =           0.0000
      STREAM LEAKAGE =  1271652603.3724        STREAM LEAKAGE =     1153581.1014

           TOTAL OUT =  1341522639.9044             TOTAL OUT =     1235356.1117

            IN - OUT =          -1.9952              IN - OUT =       2.6856E-02

 PERCENT DISCREPANCY =          -0.00     PERCENT DISCREPANCY =           0.00






         TIME SUMMARY AT END OF TIME STEP    1 IN STRESS PERIOD   12
                    SECONDS     MINUTES      HOURS       DAYS        YEARS
                    -----------------------------------------------------------
   TIME STEP LENGTH 7.86240E+06 1.31040E+05  2184.0      91.000     0.24914    
 STRESS PERIOD TIME 7.86240E+06 1.31040E+05  2184.0      91.000     0.24914    
         TOTAL TIME 9.46080E+07 1.57680E+06  26280.      1095.0      2.9979    
1

 Run end date and time (yyyy/mm/dd hh:mm:ss): 2018/09/26 17:02:48
 Elapsed run time:  0.060 Seconds

