                                  MODFLOW-2005     
      U.S. GEOLOGICAL SURVEY MODULAR FINITE-DIFFERENCE GROUND-WATER FLOW MODEL
                            VERSION 1.11.00 8/8/2013

 LIST FILE: supply2.lst
                         UNIT   10

 OPENING ..\data\supply.dis
 FILE TYPE:DIS   UNIT   11   STATUS:OLD    
 FORMAT:FORMATTED              ACCESS:SEQUENTIAL          

 OPENING ..\data\supply.ba6
 FILE TYPE:BAS6   UNIT   12   STATUS:OLD    
 FORMAT:FORMATTED              ACCESS:SEQUENTIAL          

 OPENING ..\data\supply.bc6
 FILE TYPE:BCF6   UNIT   13   STATUS:OLD    
 FORMAT:FORMATTED              ACCESS:SEQUENTIAL          

 OPENING ..\data\supply.rch
 FILE TYPE:RCH   UNIT   15   STATUS:OLD    
 FORMAT:FORMATTED              ACCESS:SEQUENTIAL          

 OPENING ..\data\supply2.sfr
 FILE TYPE:SFR   UNIT   16   STATUS:OLD    
 FORMAT:FORMATTED              ACCESS:SEQUENTIAL          

 OPENING ..\data\supply.oc
 FILE TYPE:OC   UNIT   17   STATUS:OLD    
 FORMAT:FORMATTED              ACCESS:SEQUENTIAL          

 OPENING ..\data\supply.pcg
 FILE TYPE:PCG   UNIT   18   STATUS:OLD    
 FORMAT:FORMATTED              ACCESS:SEQUENTIAL          

 OPENING supply2.wel
 FILE TYPE:WEL   UNIT   19   STATUS:OLD    
 FORMAT:FORMATTED              ACCESS:SEQUENTIAL          

 OPENING supply2sf.cbc
 FILE TYPE:DATA(BINARY)   UNIT   50   STATUS:UNKNOWN
 FORMAT:BINARY                 ACCESS:SEQUENTIAL          

 OPENING supply2hd.bhd
 FILE TYPE:DATA(BINARY)   UNIT   51   STATUS:UNKNOWN
 FORMAT:BINARY                 ACCESS:SEQUENTIAL          

 BAS -- BASIC PACKAGE, VERSION 7, 5/2/2005 INPUT READ FROM UNIT   12
 
 MODFLOW was compiled using uniform precision
 Precision of REAL and DOUBLE PRECISION variables:          15

 DISCRETIZATION INPUT DATA READ FROM UNIT   11
    1 LAYERS        25 ROWS        30 COLUMNS
   12 STRESS PERIOD(S) IN SIMULATION
 MODEL TIME UNIT IS DAYS
 MODEL LENGTH UNIT IS UNDEFINED
  Confining bed flag for each layer:
   0

                     DELR =   200.000    

                     DELC =   200.000    

 TOP ELEVATION OF LAYER 1 =  100.0000    

   MODEL LAYER BOTTOM EL. =   0.00000     FOR LAYER   1


 STRESS PERIOD     LENGTH       TIME STEPS     MULTIPLIER FOR DELT    SS FLAG
 ----------------------------------------------------------------------------
        1         92.00000          1                    1.500         TR
        2         91.00000          1                    1.500         TR
        3         91.00000          1                    1.500         TR
        4         91.00000          1                    1.500         TR
        5         92.00000          1                    1.500         TR
        6         91.00000          1                    1.500         TR
        7         91.00000          1                    1.500         TR
        8         91.00000          1                    1.500         TR
        9         92.00000          1                    1.500         TR
       10         91.00000          1                    1.500         TR
       11         91.00000          1                    1.500         TR
       12         91.00000          1                    1.500         TR

 TRANSIENT SIMULATION



 
 #MODOFC transient water supply sample problem                                   
 #                                                                               
 THE FREE FORMAT OPTION HAS BEEN SELECTED



                     BOUNDARY ARRAY FOR LAYER   1
 READING ON UNIT   12 WITH FORMAT: (20I4)              

 AQUIFER HEAD WILL BE SET TO   0.0000     AT ALL NO-FLOW NODES (IBOUND=0).



                       INITIAL HEAD FOR LAYER   1
 READING ON UNIT   12 WITH FORMAT: (10F13.0)           

 OUTPUT CONTROL IS SPECIFIED ONLY AT TIME STEPS FOR WHICH OUTPUT IS DESIRED
 COMPACT CELL-BY-CELL BUDGET FILES WILL BE WRITTEN
 HEAD PRINT FORMAT CODE IS  18    DRAWDOWN PRINT FORMAT CODE IS   0
 HEADS WILL BE SAVED ON UNIT   51    DRAWDOWNS WILL BE SAVED ON UNIT    0

 BCF -- BLOCK-CENTERED FLOW PACKAGE, VERSION 7, 5/2/2005
         INPUT READ FROM UNIT 13
 TRANSIENT SIMULATION
 HEAD AT CELLS THAT CONVERT TO DRY=   0.0000    
 WETTING CAPABILITY IS NOT ACTIVE
      LAYER  LAYER-TYPE CODE     INTERBLOCK T
      --------------------------------------------
         1            0          0 -- HARMONIC    

 COLUMN TO ROW ANISOTROPY =  1.000000    

     PRIMARY STORAGE COEF =  5.000000E-02 FOR LAYER   1

     TRANSMIS. ALONG ROWS =   500.000     FOR LAYER   1

 WEL -- WELL PACKAGE, VERSION 7, 5/2/2005 INPUT READ FROM UNIT   19
 # Well package input file written by MMProc
 No named parameters
 MAXIMUM OF      6 ACTIVE WELLS AT ONE TIME


     0 Well parameters

 RCH -- RECHARGE PACKAGE, VERSION 7, 5/2/2005 INPUT READ FROM UNIT   15
 No named parameters
 OPTION 1 -- RECHARGE TO TOP LAYER


     0 Recharge parameters

 SFR7 -- STREAMFLOW ROUTING PACKAGE, VERSION 1.0.7, 2013-01-15
         INPUT READ FROM UNIT  16
 #  Supply2 test problem for GWM-VI
 #  The eighth entry in the first data line is ISTCB2 -
 #    Setting this to a negative number indicates that
 #    streamflows out of the reach will be saved to a
 #    binary file.  The absolute value of ISTCB2 is the
 #    unit to which unformatted flows will be written.
 #
 No named parameters
 Segment information will not be 
 read by reach
 No named parameters
 No specifed inflow files


 NUMBER OF STREAM REACHES IS   40

 NUMBER OF STREAM SEGMENTS IS    3

 NUMBER OF STREAM PARAMETERS IS    0

 NUMBER OF STREAM SEGMENTS DEFINED USING PARAMETERS IS              0

 MAXIMUM ERROR FOR STREAM LEAKAGE RATES IS  1.00E-04

 CONSTANT FOR MANNINGS EQUATION IS  1.2839E+05





   STREAM NETWORK DESCRIPTION: 

   LAYER    ROW    COL   SEGMENT   REACH     LENGTH
                          NUMBER   NUMBER    IN CELL        
   --------------------------------------------------
      1     13      1       1        1    2.0000E+02
      1     13      2       1        2    2.0000E+02
      1     14      3       1        3    2.0000E+02
      1     15      4       1        4    2.0000E+02
      1     16      5       1        5    2.0000E+02
      1     16      6       1        6    2.0000E+02
      1     16      7       1        7    2.0000E+02
      1     16      8       1        8    2.0000E+02
      1     16      9       1        9    2.0000E+02
      1     16     10       1       10    2.0000E+02
      1     16     11       1       11    2.0000E+02
      1     16     12       1       12    2.0000E+02
      1     15     13       1       13    2.0000E+02
      1     14     14       1       14    2.0000E+02
      1     13     15       1       15    2.0000E+02
      1     12     16       1       16    2.0000E+02
      1     12     17       1       17    2.0000E+02
      1     12     18       1       18    2.0000E+02
      1     12     19       1       19    2.0000E+02
      1     13     20       1       20    2.0000E+02
      1     14     21       1       21    2.0000E+02
      1     14     22       1       22    2.0000E+02
      1      9     30       2        1    2.0000E+02
      1      9     29       2        2    2.0000E+02
      1      9     28       2        3    2.0000E+02
      1      9     27       2        4    2.0000E+02
      1     10     26       2        5    2.0000E+02
      1     11     25       2        6    2.0000E+02
      1     12     24       2        7    2.0000E+02
      1     13     23       2        8    2.0000E+02
      1     14     22       2        9    2.0000E+02
      1     14     22       3        1    2.0000E+02
      1     15     23       3        2    2.0000E+02
      1     15     24       3        3    2.0000E+02
      1     15     25       3        4    2.0000E+02
      1     15     26       3        5    2.0000E+02
      1     16     27       3        6    2.0000E+02
      1     17     28       3        7    2.0000E+02
      1     18     29       3        8    2.0000E+02
      1     18     30       3        9    2.0000E+02




 PCG -- CONJUGATE-GRADIENT SOLUTION PACKAGE, VERSION 7, 5/2/2005
 MAXIMUM OF    500 CALLS OF SOLUTION ROUTINE
 MAXIMUM OF      5 INTERNAL ITERATIONS PER CALL TO SOLUTION ROUTINE
 MATRIX PRECONDITIONING TYPE :    1



                                    SOLUTION BY THE CONJUGATE-GRADIENT METHOD
                                   -------------------------------------------
                    MAXIMUM NUMBER OF CALLS TO PCG ROUTINE =      500
                        MAXIMUM ITERATIONS PER CALL TO PCG =        5
                               MATRIX PRECONDITIONING TYPE =        1
        RELAXATION FACTOR (ONLY USED WITH PRECOND. TYPE 1) =    0.10000E+01
 PARAMETER OF POLYNOMIAL PRECOND. = 2 (2) OR IS CALCULATED :        0
                         HEAD CHANGE CRITERION FOR CLOSURE =    0.10000E-05
                     RESIDUAL CHANGE CRITERION FOR CLOSURE =    0.10000E+01
            PCG HEAD AND RESIDUAL CHANGE PRINTOUT INTERVAL =        1
     PRINTING FROM SOLVER IS LIMITED(1) OR SUPPRESSED (>1) =        1
                            STEADY-STATE DAMPING PARAMETER =    0.10000E+01
                               TRANSIENT DAMPING PARAMETER =    0.10000E+01
1
                            STRESS PERIOD NO.    1, LENGTH =   92.00000    
                            -----------------------------------------------

                              NUMBER OF TIME STEPS =     1

                               MULTIPLIER FOR DELT =     1.500

                            INITIAL TIME STEP SIZE =   92.00000    

 WELL NO.  LAYER   ROW   COL   STRESS RATE         
 --------------------------------------------------
      1      1      5     14     -0.2595E+05
      2      1      4     17     -0.2695E+05
      3      1      3     26     -0.3890E+05

      3 WELLS

                 RECHARGE =  5.000000E-04



 CLASSIFICATION & COUNT OF STREAM SEGMENTS BASED ON SOURCE OF INFLOW:

                HEADWATER     DIVERSION     RECEIVES TRIBUTARY FLOW
                ---------     ---------     -----------------------
                     2              0               1



                    INPUT DATA FOR EACH STREAM SEGMENT
 ---------------------------------------------------------------------------------------------

 SEGMENT    SEG.     INFLOW   OVERLAND   STREAM    STREAM   ICALC  OUTFLOW  DIVERSION PRIORITY
    NO.    LENGTH     RATE     RUNOFF      ET       PPT.    METH.  TO SEG.  FROM SEG.    NO.

      1  4.400E+03 1.000E+05 0.000E+00 0.000E+00 0.000E+00    1        3        0        0
      2  1.800E+03 5.000E+04 0.000E+00 0.000E+00 0.000E+00    1        3        0        0
      3  1.800E+03 0.000E+00 0.000E+00 0.000E+00 0.000E+00    1        0        0        0


         STREAMBED PROPERTIES AND STREAM DIMENSIONS

 SEGMENT     BED HYD. COND.      BED THICKNESS     ELEV.-TOP OF BED     WIDTH OF STREAM     DEPTH OF STREAM    STREAM ROUGHNESS
    No.     UPPER     LOWER     UPPER     LOWER     UPPER     LOWER     UPPER     LOWER     UPPER     LOWER   CHANNEL      BANK

     1  5.000E+00 5.000E+00 1.000E+00 1.000E+00 4.850E+01 3.800E+01 2.000E+01 2.000E+01                     5.000E-02
     2  5.000E+00 5.000E+00 1.000E+00 1.000E+00 4.025E+01 3.800E+01 2.000E+01 2.000E+01                     5.000E-02
     3  5.000E+00 5.000E+00 1.000E+00 1.000E+00 3.800E+01 3.000E+01 2.000E+01 2.000E+01                     5.000E-02



 
 SOLVING FOR HEAD 


     8 CALLS TO PCG ROUTINE FOR TIME STEP   1 IN STRESS PERIOD    1
    34 TOTAL ITERATIONS

 OUTPUT CONTROL FOR STRESS PERIOD    1   TIME STEP    1
    SAVE BUDGET
    SAVE HEAD FOR ALL LAYERS
    PRINT HEAD FOR ALL LAYERS
 UBDSV2 SAVING "STREAMFLOW OUT  " ON UNIT  50 AT TIME STEP  1, STRESS PERIOD   1



 STREAM LISTING     PERIOD      1   STEP        1

 LAYER ROW COL. STREAM  RCH.  FLOW INTO     FLOW TO   FLOW OUT OF   OVRLND.     DIRECT     STREAM       STREAM     STREAM     STREAM   STREAMBED  STREAMBED
                SEG.NO.  NO.  STRM. RCH.    AQUIFER    STRM. RCH.    RUNOFF     PRECIP       ET          HEAD       DEPTH      WIDTH   CONDCTNC.   GRADIENT

   1   13    1     1     1    1.0000E+05 -5.6977E+03   1.0570E+05  0.000E+00  0.000E+00  0.000E+00  4.84085E+01  1.471E-01  2.000E+01  2.000E+04 -2.849E-01
   1   13    2     1     2    1.0570E+05 -8.4893E+03   1.1419E+05  0.000E+00  0.000E+00  0.000E+00  4.79372E+01  1.531E-01  2.000E+01  2.000E+04 -4.245E-01
   1   14    3     1     3    1.1419E+05 -7.7914E+03   1.2198E+05  0.000E+00  0.000E+00  0.000E+00  4.74666E+01  1.598E-01  2.000E+01  2.000E+04 -3.896E-01
   1   15    4     1     4    1.2198E+05 -7.6370E+03   1.2962E+05  0.000E+00  0.000E+00  0.000E+00  4.69956E+01  1.660E-01  2.000E+01  2.000E+04 -3.819E-01
   1   16    5     1     5    1.2962E+05 -7.4711E+03   1.3709E+05  0.000E+00  0.000E+00  0.000E+00  4.65242E+01  1.719E-01  2.000E+01  2.000E+04 -3.736E-01
   1   16    6     1     6    1.3709E+05 -5.9558E+03   1.4304E+05  0.000E+00  0.000E+00  0.000E+00  4.60521E+01  1.771E-01  2.000E+01  2.000E+04 -2.978E-01
   1   16    7     1     7    1.4304E+05 -6.0779E+03   1.4912E+05  0.000E+00  0.000E+00  0.000E+00  4.55793E+01  1.816E-01  2.000E+01  2.000E+04 -3.039E-01
   1   16    8     1     8    1.4912E+05 -6.1490E+03   1.5527E+05  0.000E+00  0.000E+00  0.000E+00  4.51066E+01  1.861E-01  2.000E+01  2.000E+04 -3.074E-01
   1   16    9     1     9    1.5527E+05 -6.1532E+03   1.6142E+05  0.000E+00  0.000E+00  0.000E+00  4.46338E+01  1.906E-01  2.000E+01  2.000E+04 -3.077E-01
   1   16   10     1    10    1.6142E+05 -6.0986E+03   1.6752E+05  0.000E+00  0.000E+00  0.000E+00  4.41609E+01  1.950E-01  2.000E+01  2.000E+04 -3.049E-01
   1   16   11     1    11    1.6752E+05 -6.0255E+03   1.7355E+05  0.000E+00  0.000E+00  0.000E+00  4.36879E+01  1.993E-01  2.000E+01  2.000E+04 -3.013E-01
   1   16   12     1    12    1.7355E+05 -7.8704E+03   1.8142E+05  0.000E+00  0.000E+00  0.000E+00  4.32155E+01  2.041E-01  2.000E+01  2.000E+04 -3.935E-01
   1   15   13     1    13    1.8142E+05 -8.0182E+03   1.8943E+05  0.000E+00  0.000E+00  0.000E+00  4.27436E+01  2.095E-01  2.000E+01  2.000E+04 -4.009E-01
   1   14   14     1    14    1.8943E+05 -8.0878E+03   1.9752E+05  0.000E+00  0.000E+00  0.000E+00  4.22718E+01  2.149E-01  2.000E+01  2.000E+04 -4.044E-01
   1   13   15     1    15    1.9752E+05 -8.0490E+03   2.0557E+05  0.000E+00  0.000E+00  0.000E+00  4.17998E+01  2.203E-01  2.000E+01  2.000E+04 -4.025E-01
   1   12   16     1    16    2.0557E+05 -8.2420E+03   2.1381E+05  0.000E+00  0.000E+00  0.000E+00  4.13278E+01  2.256E-01  2.000E+01  2.000E+04 -4.121E-01
   1   12   17     1    17    2.1381E+05 -5.9144E+03   2.1973E+05  0.000E+00  0.000E+00  0.000E+00  4.08551E+01  2.301E-01  2.000E+01  2.000E+04 -2.957E-01
   1   12   18     1    18    2.1973E+05 -5.8172E+03   2.2555E+05  0.000E+00  0.000E+00  0.000E+00  4.03815E+01  2.338E-01  2.000E+01  2.000E+04 -2.909E-01
   1   12   19     1    19    2.2555E+05 -7.3368E+03   2.3288E+05  0.000E+00  0.000E+00  0.000E+00  3.99084E+01  2.379E-01  2.000E+01  2.000E+04 -3.668E-01
   1   13   20     1    20    2.3288E+05 -6.4429E+03   2.3932E+05  0.000E+00  0.000E+00  0.000E+00  3.94354E+01  2.422E-01  2.000E+01  2.000E+04 -3.221E-01
   1   14   21     1    21    2.3932E+05 -5.5816E+03   2.4491E+05  0.000E+00  0.000E+00  0.000E+00  3.89618E+01  2.459E-01  2.000E+01  2.000E+04 -2.791E-01
   1   14   22     1    22    2.4491E+05  4.4079E+03   2.4050E+05  0.000E+00  0.000E+00  0.000E+00  3.84849E+01  2.462E-01  2.000E+01  2.000E+04  2.204E-01
   1    9   30     2     1    5.0000E+04 -4.9167E+03   5.4917E+04  0.000E+00  0.000E+00  0.000E+00  4.02443E+01  1.193E-01  2.000E+01  2.000E+04 -2.458E-01
   1    9   29     2     2    5.4917E+04 -5.1567E+03   6.0073E+04  0.000E+00  0.000E+00  0.000E+00  4.00010E+01  1.260E-01  2.000E+01  2.000E+04 -2.578E-01
   1    9   28     2     3    6.0073E+04 -5.3574E+03   6.5431E+04  0.000E+00  0.000E+00  0.000E+00  3.97578E+01  1.328E-01  2.000E+01  2.000E+04 -2.679E-01
   1    9   27     2     4    6.5431E+04 -8.1330E+03   7.3564E+04  0.000E+00  0.000E+00  0.000E+00  3.95162E+01  1.412E-01  2.000E+01  2.000E+04 -4.066E-01
   1   10   26     2     5    7.3564E+04 -6.8625E+03   8.0426E+04  0.000E+00  0.000E+00  0.000E+00  3.92751E+01  1.501E-01  2.000E+01  2.000E+04 -3.431E-01
   1   11   25     2     6    8.0426E+04 -5.9998E+03   8.6426E+04  0.000E+00  0.000E+00  0.000E+00  3.90325E+01  1.575E-01  2.000E+01  2.000E+04 -3.000E-01
   1   12   24     2     7    8.6426E+04 -4.9161E+03   9.1342E+04  0.000E+00  0.000E+00  0.000E+00  3.87886E+01  1.636E-01  2.000E+01  2.000E+04 -2.458E-01
   1   13   23     2     8    9.1342E+04 -3.5351E+03   9.4877E+04  0.000E+00  0.000E+00  0.000E+00  3.85433E+01  1.683E-01  2.000E+01  2.000E+04 -1.768E-01
   1   14   22     2     9    9.4877E+04  6.0699E+02   9.4270E+04  0.000E+00  0.000E+00  0.000E+00  3.82948E+01  1.698E-01  2.000E+01  2.000E+04  3.035E-02
   1   14   22     3     1    3.3477E+05 -9.1815E+03   3.4395E+05  0.000E+00  0.000E+00  0.000E+00  3.78054E+01  2.499E-01  2.000E+01  2.000E+04 -4.591E-01
   1   15   23     3     2    3.4395E+05 -6.0474E+03   3.5000E+05  0.000E+00  0.000E+00  0.000E+00  3.69199E+01  2.532E-01  2.000E+01  2.000E+04 -3.024E-01
   1   15   24     3     3    3.5000E+05 -4.3716E+03   3.5437E+05  0.000E+00  0.000E+00  0.000E+00  3.60333E+01  2.555E-01  2.000E+01  2.000E+04 -2.186E-01
   1   15   25     3     4    3.5437E+05 -4.3598E+03   3.5873E+05  0.000E+00  0.000E+00  0.000E+00  3.51463E+01  2.574E-01  2.000E+01  2.000E+04 -2.180E-01
   1   15   26     3     5    3.5873E+05 -5.6729E+03   3.6440E+05  0.000E+00  0.000E+00  0.000E+00  3.42595E+01  2.595E-01  2.000E+01  2.000E+04 -2.836E-01
   1   16   27     3     6    3.6440E+05 -7.2935E+03   3.7170E+05  0.000E+00  0.000E+00  0.000E+00  3.33734E+01  2.623E-01  2.000E+01  2.000E+04 -3.647E-01
   1   17   28     3     7    3.7170E+05 -8.0762E+03   3.7977E+05  0.000E+00  0.000E+00  0.000E+00  3.24878E+01  2.656E-01  2.000E+01  2.000E+04 -4.038E-01
   1   18   29     3     8    3.7977E+05 -9.1263E+03   3.8890E+05  0.000E+00  0.000E+00  0.000E+00  3.16026E+01  2.692E-01  2.000E+01  2.000E+04 -4.563E-01
   1   18   30     3     9    3.8890E+05 -7.5410E+03   3.9644E+05  0.000E+00  0.000E+00  0.000E+00  3.07172E+01  2.727E-01  2.000E+01  2.000E+04 -3.770E-01



1
              HEAD IN LAYER   1 AT END OF TIME STEP   1 IN STRESS PERIOD    1
  ---------------------------------------------------------------------------

          1      2      3      4      5      6      7      8      9     10
         11     12     13     14     15     16     17     18     19     20
         21     22     23     24     25     26     27     28     29     30
 .........................................................................
   1  ****** ****** ****** ****** ****** ****** ****** ****** ****** ******
      ****** ****** ****** ****** ****** ****** ****** ****** ****** ******
      ****** ****** ****** ****** ****** ****** ****** ****** ****** ******
   2  ****** ****** ****** ****** ****** ****** ****** ****** ****** ******
      ****** ****** ****** ****** ****** ****** ****** ****** ****** ******
      ****** ****** ****** ****** ****** ****** ****** ****** ****** ******
   3  ****** ****** ****** ****** ****** ****** ****** ****** ****** ******
      ****** ****** ****** ****** ****** ****** ****** ****** ****** ******
      ****** ****** ****** ****** ****** ****** ****** ****** ****** ******
   4  ****** ****** ****** ****** ****** ****** ****** ****** ****** ******
      ****** ****** ****** ****** ****** ****** ****** ****** ****** ******
      ****** ****** ****** ****** ****** ****** ****** ****** ****** ******
   5  ****** ****** ****** ****** ****** ****** ****** ****** ****** ******
      ****** ****** ****** ****** ****** ****** ****** ****** ****** ******
      ****** ****** ****** ****** ****** ****** ****** ****** ****** ******
   6  ****** ****** ****** ****** ****** ****** ****** ****** ****** ******
      ****** ****** ****** ****** ****** ****** ****** ****** ****** ******
      ****** ****** ****** ****** ****** ****** ****** ****** ****** ******
   7  ****** ****** ****** ****** ****** ****** ****** ****** ****** ******
      ****** ****** ****** ****** ****** ****** ****** ****** ****** ******
      ****** ****** ****** ****** ****** ****** ****** ****** ****** ******
   8  ****** ****** ****** ****** ****** ****** ****** ****** ****** ******
      ****** ****** ****** ****** ****** ****** ****** ****** ****** ******
      ****** ****** ****** ****** ****** ****** ****** ****** ****** ******
   9  ****** ****** ****** ****** ****** ****** ****** ****** ****** ******
      ****** ****** ****** ****** ****** ****** ****** ****** ****** ******
      ****** ****** ****** ****** ****** ****** ****** ****** ****** ******
  10  ****** ****** ****** ****** ****** ****** ****** ****** ****** ******
      ****** ****** ****** ****** ****** ****** ****** ****** ****** ******
      ****** ****** ****** ****** ****** ****** ****** ****** ****** ******
  11  ****** ****** ****** ****** ****** ****** ****** ****** ****** ******
      ****** ****** ****** ****** ****** ****** ****** ****** ****** ******
      ****** ****** ****** ****** ****** ****** ****** ****** ****** ******
  12  ****** ****** ****** ****** ****** ****** ****** ****** ****** ******
      ****** ****** ****** ****** ****** ****** ****** ****** ****** ******
      ****** ****** ****** ****** ****** ****** ****** ****** ****** ******
  13  ****** ****** ****** ****** ****** ****** ****** ****** ****** ******
      ****** ****** ****** ****** ****** ****** ****** ****** ****** ******
      ****** ****** ****** ****** ****** ****** ****** ****** ****** ******
  14  ****** ****** ****** ****** ****** ****** ****** ****** ****** ******
      ****** ****** ****** ****** ****** ****** ****** ****** ****** ******
      ****** ****** ****** ****** ****** ****** ****** ****** ****** ******
  15  ****** ****** ****** ****** ****** ****** ****** ****** ****** ******
      ****** ****** ****** ****** ****** ****** ****** ****** ****** ******
      ****** ****** ****** ****** ****** ****** ****** ****** ****** ******
  16  ****** ****** ****** ****** ****** ****** ****** ****** ****** ******
      ****** ****** ****** ****** ****** ****** ****** ****** ****** ******
      ****** ****** ****** ****** ****** ****** ****** ****** ****** ******
  17  ****** ****** ****** ****** ****** ****** ****** ****** ****** ******
      ****** ****** ****** ****** ****** ****** ****** ****** ****** ******
      ****** ****** ****** ****** ****** ****** ****** ****** ****** ******
  18  ****** ****** ****** ****** ****** ****** ****** ****** ****** ******
      ****** ****** ****** ****** ****** ****** ****** ****** ****** ******
      ****** ****** ****** ****** ****** ****** ****** ****** ****** ******
  19  ****** ****** ****** ****** ****** ****** ****** ****** ****** ******
      ****** ****** ****** ****** ****** ****** ****** ****** ****** ******
      ****** ****** ****** ****** ****** ****** ****** ****** ****** ******
  20  ****** ****** ****** ****** ****** ****** ****** ****** ****** ******
      ****** ****** ****** ****** ****** ****** ****** ****** ****** ******
      ****** ****** ****** ****** ****** ****** ****** ****** ****** ******
  21  ****** ****** ****** ****** ****** ****** ****** ****** ****** ******
      ****** ****** ****** ****** ****** ****** ****** ****** ****** ******
      ****** ****** ****** ****** ****** ****** ****** ****** ****** ******
  22  ****** ****** ****** ****** ****** ****** ****** ****** ****** ******
      ****** ****** ****** ****** ****** ****** ****** ****** ****** ******
      ****** ****** ****** ****** ****** ****** ****** ****** ****** ******
  23  ****** ****** ****** ****** ****** ****** ****** ****** ****** ******
      ****** ****** ****** ****** ****** ****** ****** ****** ****** ******
      ****** ****** ****** ****** ****** ****** ****** ****** ****** ******
  24  ****** ****** ****** ****** ****** ****** ****** ****** ****** ******
      ****** ****** ****** ****** ****** ****** ****** ****** ****** ******
      ****** ****** ****** ****** ****** ****** ****** ****** ****** ******
  25  ****** ****** ****** ****** ****** ****** ****** ****** ****** ******
      ****** ****** ****** ****** ****** ****** ****** ****** ****** ******
      ****** ****** ****** ****** ****** ****** ****** ****** ****** ******

 HEAD WILL BE SAVED ON UNIT   51 AT END OF TIME STEP    1, STRESS PERIOD    1
1
  VOLUMETRIC BUDGET FOR ENTIRE MODEL AT END OF TIME STEP    1, STRESS PERIOD   1
  ------------------------------------------------------------------------------

     CUMULATIVE VOLUMES      L**3       RATES FOR THIS TIME STEP      L**3/T
     ------------------                 ------------------------

           IN:                                      IN:
           ---                                      ---
             STORAGE =    17995974.1502               STORAGE =      195608.4147
       CONSTANT HEAD =    11853011.8621         CONSTANT HEAD =      128837.0855
               WELLS =           0.0000                 WELLS =           0.0000
            RECHARGE =     1269600.0000              RECHARGE =       13800.0000
      STREAM LEAKAGE =      461368.1608        STREAM LEAKAGE =        5014.8713

            TOTAL IN =    31579954.1731              TOTAL IN =      343260.3714

          OUT:                                     OUT:
          ----                                     ----
             STORAGE =           0.0000               STORAGE =           0.0000
       CONSTANT HEAD =           0.0000         CONSTANT HEAD =           0.0000
               WELLS =     8446188.5476                 WELLS =       91806.3973
            RECHARGE =           0.0000              RECHARGE =           0.0000
      STREAM LEAKAGE =    23133765.7656        STREAM LEAKAGE =      251453.9757

           TOTAL OUT =    31579954.3132             TOTAL OUT =      343260.3730

            IN - OUT =          -0.1402              IN - OUT =      -1.5235E-03

 PERCENT DISCREPANCY =          -0.00     PERCENT DISCREPANCY =          -0.00






         TIME SUMMARY AT END OF TIME STEP    1 IN STRESS PERIOD    1
                    SECONDS     MINUTES      HOURS       DAYS        YEARS
                    -----------------------------------------------------------
   TIME STEP LENGTH 7.94880E+06 1.32480E+05  2208.0      92.000     0.25188    
 STRESS PERIOD TIME 7.94880E+06 1.32480E+05  2208.0      92.000     0.25188    
         TOTAL TIME 7.94880E+06 1.32480E+05  2208.0      92.000     0.25188    
1
1
                            STRESS PERIOD NO.    2, LENGTH =   91.00000    
                            -----------------------------------------------

                              NUMBER OF TIME STEPS =     1

                               MULTIPLIER FOR DELT =     1.500

                            INITIAL TIME STEP SIZE =   91.00000    

 WELL NO.  LAYER   ROW   COL   STRESS RATE         
 --------------------------------------------------
      1      1      5     14     -0.2595E+05
      2      1      4     17     -0.2695E+05
      3      1      3     26     -0.3890E+05

      3 WELLS

                 RECHARGE =  2.000000E-03

 REUSING STREAM SEGMENT DATA FROM LAST STRESS PERIOD
 
 SOLVING FOR HEAD 


     7 CALLS TO PCG ROUTINE FOR TIME STEP   1 IN STRESS PERIOD    2
    27 TOTAL ITERATIONS

 OUTPUT CONTROL FOR STRESS PERIOD    2   TIME STEP    1
    SAVE BUDGET
    SAVE HEAD FOR ALL LAYERS
    PRINT HEAD FOR ALL LAYERS
 UBDSV2 SAVING "STREAMFLOW OUT  " ON UNIT  50 AT TIME STEP  1, STRESS PERIOD   2



 STREAM LISTING     PERIOD      2   STEP        1

 LAYER ROW COL. STREAM  RCH.  FLOW INTO     FLOW TO   FLOW OUT OF   OVRLND.     DIRECT     STREAM       STREAM     STREAM     STREAM   STREAMBED  STREAMBED
                SEG.NO.  NO.  STRM. RCH.    AQUIFER    STRM. RCH.    RUNOFF     PRECIP       ET          HEAD       DEPTH      WIDTH   CONDCTNC.   GRADIENT

   1   13    1     1     1    1.0000E+05 -3.7191E+03   1.0372E+05  0.000E+00  0.000E+00  0.000E+00  4.84076E+01  1.463E-01  2.000E+01  2.000E+04 -1.860E-01
   1   13    2     1     2    1.0372E+05 -5.9529E+03   1.0967E+05  0.000E+00  0.000E+00  0.000E+00  4.79345E+01  1.504E-01  2.000E+01  2.000E+04 -2.976E-01
   1   14    3     1     3    1.0967E+05 -4.9762E+03   1.1465E+05  0.000E+00  0.000E+00  0.000E+00  4.74618E+01  1.550E-01  2.000E+01  2.000E+04 -2.488E-01
   1   15    4     1     4    1.1465E+05 -4.8592E+03   1.1951E+05  0.000E+00  0.000E+00  0.000E+00  4.69885E+01  1.590E-01  2.000E+01  2.000E+04 -2.430E-01
   1   16    5     1     5    1.1951E+05 -5.1287E+03   1.2464E+05  0.000E+00  0.000E+00  0.000E+00  4.65153E+01  1.630E-01  2.000E+01  2.000E+04 -2.564E-01
   1   16    6     1     6    1.2464E+05 -4.0166E+03   1.2865E+05  0.000E+00  0.000E+00  0.000E+00  4.60417E+01  1.667E-01  2.000E+01  2.000E+04 -2.008E-01
   1   16    7     1     7    1.2865E+05 -4.0862E+03   1.3274E+05  0.000E+00  0.000E+00  0.000E+00  4.55676E+01  1.699E-01  2.000E+01  2.000E+04 -2.043E-01
   1   16    8     1     8    1.3274E+05 -4.1211E+03   1.3686E+05  0.000E+00  0.000E+00  0.000E+00  4.50935E+01  1.730E-01  2.000E+01  2.000E+04 -2.061E-01
   1   16    9     1     9    1.3686E+05 -4.1078E+03   1.4097E+05  0.000E+00  0.000E+00  0.000E+00  4.46194E+01  1.762E-01  2.000E+01  2.000E+04 -2.054E-01
   1   16   10     1    10    1.4097E+05 -4.0565E+03   1.4502E+05  0.000E+00  0.000E+00  0.000E+00  4.41452E+01  1.793E-01  2.000E+01  2.000E+04 -2.028E-01
   1   16   11     1    11    1.4502E+05 -4.0111E+03   1.4904E+05  0.000E+00  0.000E+00  0.000E+00  4.36709E+01  1.823E-01  2.000E+01  2.000E+04 -2.006E-01
   1   16   12     1    12    1.4904E+05 -5.4195E+03   1.5445E+05  0.000E+00  0.000E+00  0.000E+00  4.31971E+01  1.858E-01  2.000E+01  2.000E+04 -2.710E-01
   1   15   13     1    13    1.5445E+05 -5.0037E+03   1.5946E+05  0.000E+00  0.000E+00  0.000E+00  4.27237E+01  1.896E-01  2.000E+01  2.000E+04 -2.502E-01
   1   14   14     1    14    1.5946E+05 -4.8559E+03   1.6431E+05  0.000E+00  0.000E+00  0.000E+00  4.22499E+01  1.931E-01  2.000E+01  2.000E+04 -2.428E-01
   1   13   15     1    15    1.6431E+05 -4.7225E+03   1.6904E+05  0.000E+00  0.000E+00  0.000E+00  4.17761E+01  1.965E-01  2.000E+01  2.000E+04 -2.361E-01
   1   12   16     1    16    1.6904E+05 -4.9744E+03   1.7401E+05  0.000E+00  0.000E+00  0.000E+00  4.13022E+01  1.999E-01  2.000E+01  2.000E+04 -2.487E-01
   1   12   17     1    17    1.7401E+05 -3.4154E+03   1.7743E+05  0.000E+00  0.000E+00  0.000E+00  4.08279E+01  2.029E-01  2.000E+01  2.000E+04 -1.708E-01
   1   12   18     1    18    1.7743E+05 -3.3557E+03   1.8078E+05  0.000E+00  0.000E+00  0.000E+00  4.03529E+01  2.052E-01  2.000E+01  2.000E+04 -1.678E-01
   1   12   19     1    19    1.8078E+05 -4.3217E+03   1.8510E+05  0.000E+00  0.000E+00  0.000E+00  3.98783E+01  2.078E-01  2.000E+01  2.000E+04 -2.161E-01
   1   13   20     1    20    1.8510E+05 -3.5784E+03   1.8868E+05  0.000E+00  0.000E+00  0.000E+00  3.94037E+01  2.105E-01  2.000E+01  2.000E+04 -1.789E-01
   1   14   21     1    21    1.8868E+05 -3.2174E+03   1.9190E+05  0.000E+00  0.000E+00  0.000E+00  3.89287E+01  2.128E-01  2.000E+01  2.000E+04 -1.609E-01
   1   14   22     1    22    1.9190E+05  4.9855E+03   1.8691E+05  0.000E+00  0.000E+00  0.000E+00  3.84508E+01  2.122E-01  2.000E+01  2.000E+04  2.493E-01
   1    9   30     2     1    5.0000E+04 -2.5187E+03   5.2519E+04  0.000E+00  0.000E+00  0.000E+00  4.02426E+01  1.176E-01  2.000E+01  2.000E+04 -1.259E-01
   1    9   29     2     2    5.2519E+04 -2.7666E+03   5.5285E+04  0.000E+00  0.000E+00  0.000E+00  3.99962E+01  1.212E-01  2.000E+01  2.000E+04 -1.383E-01
   1    9   28     2     3    5.5285E+04 -2.9779E+03   5.8263E+04  0.000E+00  0.000E+00  0.000E+00  3.97500E+01  1.250E-01  2.000E+01  2.000E+04 -1.489E-01
   1    9   27     2     4    5.8263E+04 -5.0894E+03   6.3353E+04  0.000E+00  0.000E+00  0.000E+00  3.95053E+01  1.303E-01  2.000E+01  2.000E+04 -2.545E-01
   1   10   26     2     5    6.3353E+04 -3.5500E+03   6.6903E+04  0.000E+00  0.000E+00  0.000E+00  3.92608E+01  1.358E-01  2.000E+01  2.000E+04 -1.775E-01
   1   11   25     2     6    6.6903E+04 -2.8025E+03   6.9705E+04  0.000E+00  0.000E+00  0.000E+00  3.90147E+01  1.397E-01  2.000E+01  2.000E+04 -1.401E-01
   1   12   24     2     7    6.9705E+04 -2.0639E+03   7.1769E+04  0.000E+00  0.000E+00  0.000E+00  3.87677E+01  1.427E-01  2.000E+01  2.000E+04 -1.032E-01
   1   13   23     2     8    7.1769E+04 -1.2793E+03   7.3048E+04  0.000E+00  0.000E+00  0.000E+00  3.85197E+01  1.447E-01  2.000E+01  2.000E+04 -6.397E-02
   1   14   22     2     9    7.3048E+04  1.3615E+03   7.1687E+04  0.000E+00  0.000E+00  0.000E+00  3.82696E+01  1.446E-01  2.000E+01  2.000E+04  6.807E-02
   1   14   22     3     1    2.5860E+05 -8.6326E+03   2.6723E+05  0.000E+00  0.000E+00  0.000E+00  3.77699E+01  2.144E-01  2.000E+01  2.000E+04 -4.316E-01
   1   15   23     3     2    2.6723E+05 -3.9757E+03   2.7121E+05  0.000E+00  0.000E+00  0.000E+00  3.68841E+01  2.175E-01  2.000E+01  2.000E+04 -1.988E-01
   1   15   24     3     3    2.7121E+05 -2.6815E+03   2.7389E+05  0.000E+00  0.000E+00  0.000E+00  3.59968E+01  2.191E-01  2.000E+01  2.000E+04 -1.341E-01
   1   15   25     3     4    2.7389E+05 -2.5321E+03   2.7642E+05  0.000E+00  0.000E+00  0.000E+00  3.51092E+01  2.203E-01  2.000E+01  2.000E+04 -1.266E-01
   1   15   26     3     5    2.7642E+05 -3.0678E+03   2.7949E+05  0.000E+00  0.000E+00  0.000E+00  3.42217E+01  2.217E-01  2.000E+01  2.000E+04 -1.534E-01
   1   16   27     3     6    2.7949E+05 -4.2681E+03   2.8376E+05  0.000E+00  0.000E+00  0.000E+00  3.33345E+01  2.234E-01  2.000E+01  2.000E+04 -2.134E-01
   1   17   28     3     7    2.8376E+05 -5.1049E+03   2.8886E+05  0.000E+00  0.000E+00  0.000E+00  3.24479E+01  2.256E-01  2.000E+01  2.000E+04 -2.552E-01
   1   18   29     3     8    2.8886E+05 -6.6972E+03   2.9556E+05  0.000E+00  0.000E+00  0.000E+00  3.15617E+01  2.284E-01  2.000E+01  2.000E+04 -3.349E-01
   1   18   30     3     9    2.9556E+05 -5.4757E+03   3.0104E+05  0.000E+00  0.000E+00  0.000E+00  3.06757E+01  2.313E-01  2.000E+01  2.000E+04 -2.738E-01



1
              HEAD IN LAYER   1 AT END OF TIME STEP   1 IN STRESS PERIOD    2
  ---------------------------------------------------------------------------

          1      2      3      4      5      6      7      8      9     10
         11     12     13     14     15     16     17     18     19     20
         21     22     23     24     25     26     27     28     29     30
 .........................................................................
   1  ****** ****** ****** ****** ****** ****** ****** ****** ****** ******
      ****** ****** ****** ****** ****** ****** ****** ****** ****** ******
      ****** ****** ****** ****** ****** ****** ****** ****** ****** ******
   2  ****** ****** ****** ****** ****** ****** ****** ****** ****** ******
      ****** ****** ****** ****** ****** ****** ****** ****** ****** ******
      ****** ****** ****** ****** ****** ****** ****** ****** ****** ******
   3  ****** ****** ****** ****** ****** ****** ****** ****** ****** ******
      ****** ****** ****** ****** ****** ****** ****** ****** ****** ******
      ****** ****** ****** ****** ****** ****** ****** ****** ****** ******
   4  ****** ****** ****** ****** ****** ****** ****** ****** ****** ******
      ****** ****** ****** ****** ****** ****** ****** ****** ****** ******
      ****** ****** ****** ****** ****** ****** ****** ****** ****** ******
   5  ****** ****** ****** ****** ****** ****** ****** ****** ****** ******
      ****** ****** ****** ****** ****** ****** ****** ****** ****** ******
      ****** ****** ****** ****** ****** ****** ****** ****** ****** ******
   6  ****** ****** ****** ****** ****** ****** ****** ****** ****** ******
      ****** ****** ****** ****** ****** ****** ****** ****** ****** ******
      ****** ****** ****** ****** ****** ****** ****** ****** ****** ******
   7  ****** ****** ****** ****** ****** ****** ****** ****** ****** ******
      ****** ****** ****** ****** ****** ****** ****** ****** ****** ******
      ****** ****** ****** ****** ****** ****** ****** ****** ****** ******
   8  ****** ****** ****** ****** ****** ****** ****** ****** ****** ******
      ****** ****** ****** ****** ****** ****** ****** ****** ****** ******
      ****** ****** ****** ****** ****** ****** ****** ****** ****** ******
   9  ****** ****** ****** ****** ****** ****** ****** ****** ****** ******
      ****** ****** ****** ****** ****** ****** ****** ****** ****** ******
      ****** ****** ****** ****** ****** ****** ****** ****** ****** ******
  10  ****** ****** ****** ****** ****** ****** ****** ****** ****** ******
      ****** ****** ****** ****** ****** ****** ****** ****** ****** ******
      ****** ****** ****** ****** ****** ****** ****** ****** ****** ******
  11  ****** ****** ****** ****** ****** ****** ****** ****** ****** ******
      ****** ****** ****** ****** ****** ****** ****** ****** ****** ******
      ****** ****** ****** ****** ****** ****** ****** ****** ****** ******
  12  ****** ****** ****** ****** ****** ****** ****** ****** ****** ******
      ****** ****** ****** ****** ****** ****** ****** ****** ****** ******
      ****** ****** ****** ****** ****** ****** ****** ****** ****** ******
  13  ****** ****** ****** ****** ****** ****** ****** ****** ****** ******
      ****** ****** ****** ****** ****** ****** ****** ****** ****** ******
      ****** ****** ****** ****** ****** ****** ****** ****** ****** ******
  14  ****** ****** ****** ****** ****** ****** ****** ****** ****** ******
      ****** ****** ****** ****** ****** ****** ****** ****** ****** ******
      ****** ****** ****** ****** ****** ****** ****** ****** ****** ******
  15  ****** ****** ****** ****** ****** ****** ****** ****** ****** ******
      ****** ****** ****** ****** ****** ****** ****** ****** ****** ******
      ****** ****** ****** ****** ****** ****** ****** ****** ****** ******
  16  ****** ****** ****** ****** ****** ****** ****** ****** ****** ******
      ****** ****** ****** ****** ****** ****** ****** ****** ****** ******
      ****** ****** ****** ****** ****** ****** ****** ****** ****** ******
  17  ****** ****** ****** ****** ****** ****** ****** ****** ****** ******
      ****** ****** ****** ****** ****** ****** ****** ****** ****** ******
      ****** ****** ****** ****** ****** ****** ****** ****** ****** ******
  18  ****** ****** ****** ****** ****** ****** ****** ****** ****** ******
      ****** ****** ****** ****** ****** ****** ****** ****** ****** ******
      ****** ****** ****** ****** ****** ****** ****** ****** ****** ******
  19  ****** ****** ****** ****** ****** ****** ****** ****** ****** ******
      ****** ****** ****** ****** ****** ****** ****** ****** ****** ******
      ****** ****** ****** ****** ****** ****** ****** ****** ****** ******
  20  ****** ****** ****** ****** ****** ****** ****** ****** ****** ******
      ****** ****** ****** ****** ****** ****** ****** ****** ****** ******
      ****** ****** ****** ****** ****** ****** ****** ****** ****** ******
  21  ****** ****** ****** ****** ****** ****** ****** ****** ****** ******
      ****** ****** ****** ****** ****** ****** ****** ****** ****** ******
      ****** ****** ****** ****** ****** ****** ****** ****** ****** ******
  22  ****** ****** ****** ****** ****** ****** ****** ****** ****** ******
      ****** ****** ****** ****** ****** ****** ****** ****** ****** ******
      ****** ****** ****** ****** ****** ****** ****** ****** ****** ******
  23  ****** ****** ****** ****** ****** ****** ****** ****** ****** ******
      ****** ****** ****** ****** ****** ****** ****** ****** ****** ******
      ****** ****** ****** ****** ****** ****** ****** ****** ****** ******
  24  ****** ****** ****** ****** ****** ****** ****** ****** ****** ******
      ****** ****** ****** ****** ****** ****** ****** ****** ****** ******
      ****** ****** ****** ****** ****** ****** ****** ****** ****** ******
  25  ****** ****** ****** ****** ****** ****** ****** ****** ****** ******
      ****** ****** ****** ****** ****** ****** ****** ****** ****** ******
      ****** ****** ****** ****** ****** ****** ****** ****** ****** ******

 HEAD WILL BE SAVED ON UNIT   51 AT END OF TIME STEP    1, STRESS PERIOD    2
1
  VOLUMETRIC BUDGET FOR ENTIRE MODEL AT END OF TIME STEP    1, STRESS PERIOD   2
  ------------------------------------------------------------------------------

     CUMULATIVE VOLUMES      L**3       RATES FOR THIS TIME STEP      L**3/T
     ------------------                 ------------------------

           IN:                                      IN:
           ---                                      ---
             STORAGE =    21361155.7628               STORAGE =       36980.0177
       CONSTANT HEAD =    25563387.6200         CONSTANT HEAD =      150663.4699
               WELLS =           0.0000                 WELLS =           0.0000
            RECHARGE =     6292800.0000              RECHARGE =       55200.0000
      STREAM LEAKAGE =     1038946.8641        STREAM LEAKAGE =        6347.0187

            TOTAL IN =    54256290.2469              TOTAL IN =      249190.5063

          OUT:                                     OUT:
          ----                                     ----
             STORAGE =           0.0000               STORAGE =           0.0000
       CONSTANT HEAD =           0.0000         CONSTANT HEAD =           0.0000
               WELLS =    16800570.6980                 WELLS =       91806.3973
            RECHARGE =           0.0000              RECHARGE =           0.0000
      STREAM LEAKAGE =    37455720.1484        STREAM LEAKAGE =      157384.1141

           TOTAL OUT =    54256290.8464             TOTAL OUT =      249190.5114

            IN - OUT =          -0.5994              IN - OUT =      -5.0470E-03

 PERCENT DISCREPANCY =          -0.00     PERCENT DISCREPANCY =          -0.00






         TIME SUMMARY AT END OF TIME STEP    1 IN STRESS PERIOD    2
                    SECONDS     MINUTES      HOURS       DAYS        YEARS
                    -----------------------------------------------------------
   TIME STEP LENGTH 7.86240E+06 1.31040E+05  2184.0      91.000     0.24914    
 STRESS PERIOD TIME 7.86240E+06 1.31040E+05  2184.0      91.000     0.24914    
         TOTAL TIME 1.58112E+07 2.63520E+05  4392.0      183.00     0.50103    
1
1
                            STRESS PERIOD NO.    3, LENGTH =   91.00000    
                            -----------------------------------------------

                              NUMBER OF TIME STEPS =     1

                               MULTIPLIER FOR DELT =     1.500

                            INITIAL TIME STEP SIZE =   91.00000    

 WELL NO.  LAYER   ROW   COL   STRESS RATE         
 --------------------------------------------------
      1      1      5     14     -0.2595E+05
      2      1      4     17     -0.2695E+05
      3      1      3     26     -0.3890E+05

      3 WELLS

                 RECHARGE =   0.00000    

 REUSING STREAM SEGMENT DATA FROM LAST STRESS PERIOD
 
 SOLVING FOR HEAD 


     7 CALLS TO PCG ROUTINE FOR TIME STEP   1 IN STRESS PERIOD    3
    27 TOTAL ITERATIONS

 OUTPUT CONTROL FOR STRESS PERIOD    3   TIME STEP    1
    SAVE BUDGET
    SAVE HEAD FOR ALL LAYERS
    PRINT HEAD FOR ALL LAYERS
 UBDSV2 SAVING "STREAMFLOW OUT  " ON UNIT  50 AT TIME STEP  1, STRESS PERIOD   3



 STREAM LISTING     PERIOD      3   STEP        1

 LAYER ROW COL. STREAM  RCH.  FLOW INTO     FLOW TO   FLOW OUT OF   OVRLND.     DIRECT     STREAM       STREAM     STREAM     STREAM   STREAMBED  STREAMBED
                SEG.NO.  NO.  STRM. RCH.    AQUIFER    STRM. RCH.    RUNOFF     PRECIP       ET          HEAD       DEPTH      WIDTH   CONDCTNC.   GRADIENT

   1   13    1     1     1    1.0000E+05 -2.7581E+03   1.0276E+05  0.000E+00  0.000E+00  0.000E+00  4.84072E+01  1.458E-01  2.000E+01  2.000E+04 -1.379E-01
   1   13    2     1     2    1.0276E+05 -4.6148E+03   1.0737E+05  0.000E+00  0.000E+00  0.000E+00  4.79331E+01  1.490E-01  2.000E+01  2.000E+04 -2.307E-01
   1   14    3     1     3    1.0737E+05 -3.6719E+03   1.1104E+05  0.000E+00  0.000E+00  0.000E+00  4.74593E+01  1.525E-01  2.000E+01  2.000E+04 -1.836E-01
   1   15    4     1     4    1.1104E+05 -3.5927E+03   1.1464E+05  0.000E+00  0.000E+00  0.000E+00  4.69851E+01  1.555E-01  2.000E+01  2.000E+04 -1.796E-01
   1   16    5     1     5    1.1464E+05 -4.0108E+03   1.1865E+05  0.000E+00  0.000E+00  0.000E+00  4.65109E+01  1.586E-01  2.000E+01  2.000E+04 -2.005E-01
   1   16    6     1     6    1.1865E+05 -3.1173E+03   1.2177E+05  0.000E+00  0.000E+00  0.000E+00  4.60365E+01  1.615E-01  2.000E+01  2.000E+04 -1.559E-01
   1   16    7     1     7    1.2177E+05 -3.1577E+03   1.2492E+05  0.000E+00  0.000E+00  0.000E+00  4.55618E+01  1.641E-01  2.000E+01  2.000E+04 -1.579E-01
   1   16    8     1     8    1.2492E+05 -3.1744E+03   1.2810E+05  0.000E+00  0.000E+00  0.000E+00  4.50870E+01  1.666E-01  2.000E+01  2.000E+04 -1.587E-01
   1   16    9     1     9    1.2810E+05 -3.1562E+03   1.3125E+05  0.000E+00  0.000E+00  0.000E+00  4.46122E+01  1.691E-01  2.000E+01  2.000E+04 -1.578E-01
   1   16   10     1    10    1.3125E+05 -3.1139E+03   1.3437E+05  0.000E+00  0.000E+00  0.000E+00  4.41374E+01  1.715E-01  2.000E+01  2.000E+04 -1.557E-01
   1   16   11     1    11    1.3437E+05 -3.0885E+03   1.3746E+05  0.000E+00  0.000E+00  0.000E+00  4.36625E+01  1.739E-01  2.000E+01  2.000E+04 -1.544E-01
   1   16   12     1    12    1.3746E+05 -4.2457E+03   1.4170E+05  0.000E+00  0.000E+00  0.000E+00  4.31881E+01  1.767E-01  2.000E+01  2.000E+04 -2.123E-01
   1   15   13     1    13    1.4170E+05 -3.6438E+03   1.4535E+05  0.000E+00  0.000E+00  0.000E+00  4.27138E+01  1.797E-01  2.000E+01  2.000E+04 -1.822E-01
   1   14   14     1    14    1.4535E+05 -3.4161E+03   1.4876E+05  0.000E+00  0.000E+00  0.000E+00  4.22391E+01  1.823E-01  2.000E+01  2.000E+04 -1.708E-01
   1   13   15     1    15    1.4876E+05 -3.2562E+03   1.5202E+05  0.000E+00  0.000E+00  0.000E+00  4.17643E+01  1.848E-01  2.000E+01  2.000E+04 -1.628E-01
   1   12   16     1    16    1.5202E+05 -3.4478E+03   1.5547E+05  0.000E+00  0.000E+00  0.000E+00  4.12895E+01  1.872E-01  2.000E+01  2.000E+04 -1.724E-01
   1   12   17     1    17    1.5547E+05 -2.3501E+03   1.5782E+05  0.000E+00  0.000E+00  0.000E+00  4.08144E+01  1.894E-01  2.000E+01  2.000E+04 -1.175E-01
   1   12   18     1    18    1.5782E+05 -2.3227E+03   1.6014E+05  0.000E+00  0.000E+00  0.000E+00  4.03388E+01  1.910E-01  2.000E+01  2.000E+04 -1.161E-01
   1   12   19     1    19    1.6014E+05 -3.0408E+03   1.6318E+05  0.000E+00  0.000E+00  0.000E+00  3.98634E+01  1.930E-01  2.000E+01  2.000E+04 -1.520E-01
   1   13   20     1    20    1.6318E+05 -2.4694E+03   1.6565E+05  0.000E+00  0.000E+00  0.000E+00  3.93881E+01  1.949E-01  2.000E+01  2.000E+04 -1.235E-01
   1   14   21     1    21    1.6565E+05 -2.2405E+03   1.6789E+05  0.000E+00  0.000E+00  0.000E+00  3.89125E+01  1.966E-01  2.000E+01  2.000E+04 -1.120E-01
   1   14   22     1    22    1.6789E+05  5.1558E+03   1.6273E+05  0.000E+00  0.000E+00  0.000E+00  3.84342E+01  1.956E-01  2.000E+01  2.000E+04  2.578E-01
   1    9   30     2     1    5.0000E+04 -1.6621E+03   5.1662E+04  0.000E+00  0.000E+00  0.000E+00  4.02420E+01  1.170E-01  2.000E+01  2.000E+04 -8.310E-02
   1    9   29     2     2    5.1662E+04 -1.9152E+03   5.3577E+04  0.000E+00  0.000E+00  0.000E+00  3.99945E+01  1.195E-01  2.000E+01  2.000E+04 -9.576E-02
   1    9   28     2     3    5.3577E+04 -2.1242E+03   5.5701E+04  0.000E+00  0.000E+00  0.000E+00  3.97472E+01  1.222E-01  2.000E+01  2.000E+04 -1.062E-01
   1    9   27     2     4    5.5701E+04 -3.8757E+03   5.9577E+04  0.000E+00  0.000E+00  0.000E+00  3.95012E+01  1.262E-01  2.000E+01  2.000E+04 -1.938E-01
   1   10   26     2     5    5.9577E+04 -2.3257E+03   6.1903E+04  0.000E+00  0.000E+00  0.000E+00  3.92552E+01  1.302E-01  2.000E+01  2.000E+04 -1.163E-01
   1   11   25     2     6    6.1903E+04 -1.6488E+03   6.3552E+04  0.000E+00  0.000E+00  0.000E+00  3.90078E+01  1.328E-01  2.000E+01  2.000E+04 -8.244E-02
   1   12   24     2     7    6.3552E+04 -1.0795E+03   6.4631E+04  0.000E+00  0.000E+00  0.000E+00  3.87595E+01  1.345E-01  2.000E+01  2.000E+04 -5.397E-02
   1   13   23     2     8    6.4631E+04 -5.5985E+02   6.5191E+04  0.000E+00  0.000E+00  0.000E+00  3.85105E+01  1.355E-01  2.000E+01  2.000E+04 -2.799E-02
   1   14   22     2     9    6.5191E+04  1.6679E+03   6.3523E+04  0.000E+00  0.000E+00  0.000E+00  3.82598E+01  1.348E-01  2.000E+01  2.000E+04  8.340E-02
   1   14   22     3     1    2.2626E+05 -8.4552E+03   2.3471E+05  0.000E+00  0.000E+00  0.000E+00  3.77537E+01  1.981E-01  2.000E+01  2.000E+04 -4.228E-01
   1   15   23     3     2    2.3471E+05 -3.1085E+03   2.3782E+05  0.000E+00  0.000E+00  0.000E+00  3.68677E+01  2.011E-01  2.000E+01  2.000E+04 -1.554E-01
   1   15   24     3     3    2.3782E+05 -2.0877E+03   2.3991E+05  0.000E+00  0.000E+00  0.000E+00  3.59802E+01  2.024E-01  2.000E+01  2.000E+04 -1.044E-01
   1   15   25     3     4    2.3991E+05 -1.9366E+03   2.4184E+05  0.000E+00  0.000E+00  0.000E+00  3.50923E+01  2.034E-01  2.000E+01  2.000E+04 -9.683E-02
   1   15   26     3     5    2.4184E+05 -2.2508E+03   2.4410E+05  0.000E+00  0.000E+00  0.000E+00  3.42045E+01  2.045E-01  2.000E+01  2.000E+04 -1.125E-01
   1   16   27     3     6    2.4410E+05 -3.2341E+03   2.4733E+05  0.000E+00  0.000E+00  0.000E+00  3.33170E+01  2.059E-01  2.000E+01  2.000E+04 -1.617E-01
   1   17   28     3     7    2.4733E+05 -4.0633E+03   2.5139E+05  0.000E+00  0.000E+00  0.000E+00  3.24299E+01  2.077E-01  2.000E+01  2.000E+04 -2.032E-01
   1   18   29     3     8    2.5139E+05 -5.7563E+03   2.5715E+05  0.000E+00  0.000E+00  0.000E+00  3.15435E+01  2.101E-01  2.000E+01  2.000E+04 -2.878E-01
   1   18   30     3     9    2.5715E+05 -4.7699E+03   2.6192E+05  0.000E+00  0.000E+00  0.000E+00  3.06572E+01  2.127E-01  2.000E+01  2.000E+04 -2.385E-01



1
              HEAD IN LAYER   1 AT END OF TIME STEP   1 IN STRESS PERIOD    3
  ---------------------------------------------------------------------------

          1      2      3      4      5      6      7      8      9     10
         11     12     13     14     15     16     17     18     19     20
         21     22     23     24     25     26     27     28     29     30
 .........................................................................
   1  ****** ****** ****** ****** ****** ****** ****** ****** ****** ******
      ****** ****** ****** ****** ****** ****** ****** ****** ****** ******
      ****** ****** ****** ****** ****** ****** ****** ****** ****** ******
   2  ****** ****** ****** ****** ****** ****** ****** ****** ****** ******
      ****** ****** ****** ****** ****** ****** ****** ****** ****** ******
      ****** ****** ****** ****** ****** ****** ****** ****** ****** ******
   3  ****** ****** ****** ****** ****** ****** ****** ****** ****** ******
      ****** ****** ****** ****** ****** ****** ****** ****** ****** ******
      ****** ****** ****** ****** ****** ****** ****** ****** ****** ******
   4  ****** ****** ****** ****** ****** ****** ****** ****** ****** ******
      ****** ****** ****** ****** ****** ****** ****** ****** ****** ******
      ****** ****** ****** ****** ****** ****** ****** ****** ****** ******
   5  ****** ****** ****** ****** ****** ****** ****** ****** ****** ******
      ****** ****** ****** ****** ****** ****** ****** ****** ****** ******
      ****** ****** ****** ****** ****** ****** ****** ****** ****** ******
   6  ****** ****** ****** ****** ****** ****** ****** ****** ****** ******
      ****** ****** ****** ****** ****** ****** ****** ****** ****** ******
      ****** ****** ****** ****** ****** ****** ****** ****** ****** ******
   7  ****** ****** ****** ****** ****** ****** ****** ****** ****** ******
      ****** ****** ****** ****** ****** ****** ****** ****** ****** ******
      ****** ****** ****** ****** ****** ****** ****** ****** ****** ******
   8  ****** ****** ****** ****** ****** ****** ****** ****** ****** ******
      ****** ****** ****** ****** ****** ****** ****** ****** ****** ******
      ****** ****** ****** ****** ****** ****** ****** ****** ****** ******
   9  ****** ****** ****** ****** ****** ****** ****** ****** ****** ******
      ****** ****** ****** ****** ****** ****** ****** ****** ****** ******
      ****** ****** ****** ****** ****** ****** ****** ****** ****** ******
  10  ****** ****** ****** ****** ****** ****** ****** ****** ****** ******
      ****** ****** ****** ****** ****** ****** ****** ****** ****** ******
      ****** ****** ****** ****** ****** ****** ****** ****** ****** ******
  11  ****** ****** ****** ****** ****** ****** ****** ****** ****** ******
      ****** ****** ****** ****** ****** ****** ****** ****** ****** ******
      ****** ****** ****** ****** ****** ****** ****** ****** ****** ******
  12  ****** ****** ****** ****** ****** ****** ****** ****** ****** ******
      ****** ****** ****** ****** ****** ****** ****** ****** ****** ******
      ****** ****** ****** ****** ****** ****** ****** ****** ****** ******
  13  ****** ****** ****** ****** ****** ****** ****** ****** ****** ******
      ****** ****** ****** ****** ****** ****** ****** ****** ****** ******
      ****** ****** ****** ****** ****** ****** ****** ****** ****** ******
  14  ****** ****** ****** ****** ****** ****** ****** ****** ****** ******
      ****** ****** ****** ****** ****** ****** ****** ****** ****** ******
      ****** ****** ****** ****** ****** ****** ****** ****** ****** ******
  15  ****** ****** ****** ****** ****** ****** ****** ****** ****** ******
      ****** ****** ****** ****** ****** ****** ****** ****** ****** ******
      ****** ****** ****** ****** ****** ****** ****** ****** ****** ******
  16  ****** ****** ****** ****** ****** ****** ****** ****** ****** ******
      ****** ****** ****** ****** ****** ****** ****** ****** ****** ******
      ****** ****** ****** ****** ****** ****** ****** ****** ****** ******
  17  ****** ****** ****** ****** ****** ****** ****** ****** ****** ******
      ****** ****** ****** ****** ****** ****** ****** ****** ****** ******
      ****** ****** ****** ****** ****** ****** ****** ****** ****** ******
  18  ****** ****** ****** ****** ****** ****** ****** ****** ****** ******
      ****** ****** ****** ****** ****** ****** ****** ****** ****** ******
      ****** ****** ****** ****** ****** ****** ****** ****** ****** ******
  19  ****** ****** ****** ****** ****** ****** ****** ****** ****** ******
      ****** ****** ****** ****** ****** ****** ****** ****** ****** ******
      ****** ****** ****** ****** ****** ****** ****** ****** ****** ******
  20  ****** ****** ****** ****** ****** ****** ****** ****** ****** ******
      ****** ****** ****** ****** ****** ****** ****** ****** ****** ******
      ****** ****** ****** ****** ****** ****** ****** ****** ****** ******
  21  ****** ****** ****** ****** ****** ****** ****** ****** ****** ******
      ****** ****** ****** ****** ****** ****** ****** ****** ****** ******
      ****** ****** ****** ****** ****** ****** ****** ****** ****** ******
  22  ****** ****** ****** ****** ****** ****** ****** ****** ****** ******
      ****** ****** ****** ****** ****** ****** ****** ****** ****** ******
      ****** ****** ****** ****** ****** ****** ****** ****** ****** ******
  23  ****** ****** ****** ****** ****** ****** ****** ****** ****** ******
      ****** ****** ****** ****** ****** ****** ****** ****** ****** ******
      ****** ****** ****** ****** ****** ****** ****** ****** ****** ******
  24  ****** ****** ****** ****** ****** ****** ****** ****** ****** ******
      ****** ****** ****** ****** ****** ****** ****** ****** ****** ******
      ****** ****** ****** ****** ****** ****** ****** ****** ****** ******
  25  ****** ****** ****** ****** ****** ****** ****** ****** ****** ******
      ****** ****** ****** ****** ****** ****** ****** ****** ****** ******
      ****** ****** ****** ****** ****** ****** ****** ****** ****** ******

 HEAD WILL BE SAVED ON UNIT   51 AT END OF TIME STEP    1, STRESS PERIOD    3
1
  VOLUMETRIC BUDGET FOR ENTIRE MODEL AT END OF TIME STEP    1, STRESS PERIOD   3
  ------------------------------------------------------------------------------

     CUMULATIVE VOLUMES      L**3       RATES FOR THIS TIME STEP      L**3/T
     ------------------                 ------------------------

           IN:                                      IN:
           ---                                      ---
             STORAGE =    23909925.8119               STORAGE =       28008.4621
       CONSTANT HEAD =    41553652.9965         CONSTANT HEAD =      175717.2019
               WELLS =           0.0000                 WELLS =           0.0000
            RECHARGE =     6292800.0000              RECHARGE =           0.0000
      STREAM LEAKAGE =     1659906.1447        STREAM LEAKAGE =        6823.7284

            TOTAL IN =    73416284.9532              TOTAL IN =      210549.3924

          OUT:                                     OUT:
          ----                                     ----
             STORAGE =           0.0000               STORAGE =           0.0000
       CONSTANT HEAD =           0.0000         CONSTANT HEAD =           0.0000
               WELLS =    25154952.8483                 WELLS =       91806.3973
            RECHARGE =           0.0000              RECHARGE =           0.0000
      STREAM LEAKAGE =    48261332.9482        STREAM LEAKAGE =      118742.9978

           TOTAL OUT =    73416285.7965             TOTAL OUT =      210549.3951

            IN - OUT =          -0.8433              IN - OUT =      -2.6803E-03

 PERCENT DISCREPANCY =          -0.00     PERCENT DISCREPANCY =          -0.00






         TIME SUMMARY AT END OF TIME STEP    1 IN STRESS PERIOD    3
                    SECONDS     MINUTES      HOURS       DAYS        YEARS
                    -----------------------------------------------------------
   TIME STEP LENGTH 7.86240E+06 1.31040E+05  2184.0      91.000     0.24914    
 STRESS PERIOD TIME 7.86240E+06 1.31040E+05  2184.0      91.000     0.24914    
         TOTAL TIME 2.36736E+07 3.94560E+05  6576.0      274.00     0.75017    
1
1
                            STRESS PERIOD NO.    4, LENGTH =   91.00000    
                            -----------------------------------------------

                              NUMBER OF TIME STEPS =     1

                               MULTIPLIER FOR DELT =     1.500

                            INITIAL TIME STEP SIZE =   91.00000    

 WELL NO.  LAYER   ROW   COL   STRESS RATE         
 --------------------------------------------------
      1      1      5     14     -0.2595E+05
      2      1      4     17     -0.2695E+05
      3      1      3     26     -0.3890E+05

      3 WELLS

                 RECHARGE =  1.000000E-03

 REUSING STREAM SEGMENT DATA FROM LAST STRESS PERIOD
 
 SOLVING FOR HEAD 


     5 CALLS TO PCG ROUTINE FOR TIME STEP   1 IN STRESS PERIOD    4
    18 TOTAL ITERATIONS

 OUTPUT CONTROL FOR STRESS PERIOD    4   TIME STEP    1
    SAVE BUDGET
    SAVE HEAD FOR ALL LAYERS
    PRINT HEAD FOR ALL LAYERS
 UBDSV2 SAVING "STREAMFLOW OUT  " ON UNIT  50 AT TIME STEP  1, STRESS PERIOD   4



 STREAM LISTING     PERIOD      4   STEP        1

 LAYER ROW COL. STREAM  RCH.  FLOW INTO     FLOW TO   FLOW OUT OF   OVRLND.     DIRECT     STREAM       STREAM     STREAM     STREAM   STREAMBED  STREAMBED
                SEG.NO.  NO.  STRM. RCH.    AQUIFER    STRM. RCH.    RUNOFF     PRECIP       ET          HEAD       DEPTH      WIDTH   CONDCTNC.   GRADIENT

   1   13    1     1     1    1.0000E+05 -2.7525E+03   1.0275E+05  0.000E+00  0.000E+00  0.000E+00  4.84072E+01  1.458E-01  2.000E+01  2.000E+04 -1.376E-01
   1   13    2     1     2    1.0275E+05 -4.5570E+03   1.0731E+05  0.000E+00  0.000E+00  0.000E+00  4.79331E+01  1.490E-01  2.000E+01  2.000E+04 -2.279E-01
   1   14    3     1     3    1.0731E+05 -3.6857E+03   1.1100E+05  0.000E+00  0.000E+00  0.000E+00  4.74593E+01  1.525E-01  2.000E+01  2.000E+04 -1.843E-01
   1   15    4     1     4    1.1100E+05 -3.6330E+03   1.1463E+05  0.000E+00  0.000E+00  0.000E+00  4.69850E+01  1.555E-01  2.000E+01  2.000E+04 -1.817E-01
   1   16    5     1     5    1.1463E+05 -4.0772E+03   1.1871E+05  0.000E+00  0.000E+00  0.000E+00  4.65109E+01  1.587E-01  2.000E+01  2.000E+04 -2.039E-01
   1   16    6     1     6    1.1871E+05 -3.1567E+03   1.2186E+05  0.000E+00  0.000E+00  0.000E+00  4.60366E+01  1.616E-01  2.000E+01  2.000E+04 -1.578E-01
   1   16    7     1     7    1.2186E+05 -3.1895E+03   1.2505E+05  0.000E+00  0.000E+00  0.000E+00  4.55619E+01  1.641E-01  2.000E+01  2.000E+04 -1.595E-01
   1   16    8     1     8    1.2505E+05 -3.2017E+03   1.2825E+05  0.000E+00  0.000E+00  0.000E+00  4.50871E+01  1.667E-01  2.000E+01  2.000E+04 -1.601E-01
   1   16    9     1     9    1.2825E+05 -3.1821E+03   1.3144E+05  0.000E+00  0.000E+00  0.000E+00  4.46124E+01  1.692E-01  2.000E+01  2.000E+04 -1.591E-01
   1   16   10     1    10    1.3144E+05 -3.1411E+03   1.3458E+05  0.000E+00  0.000E+00  0.000E+00  4.41376E+01  1.717E-01  2.000E+01  2.000E+04 -1.571E-01
   1   16   11     1    11    1.3458E+05 -3.1203E+03   1.3770E+05  0.000E+00  0.000E+00  0.000E+00  4.36627E+01  1.741E-01  2.000E+01  2.000E+04 -1.560E-01
   1   16   12     1    12    1.3770E+05 -4.2936E+03   1.4199E+05  0.000E+00  0.000E+00  0.000E+00  4.31883E+01  1.769E-01  2.000E+01  2.000E+04 -2.147E-01
   1   15   13     1    13    1.4199E+05 -3.6618E+03   1.4565E+05  0.000E+00  0.000E+00  0.000E+00  4.27140E+01  1.799E-01  2.000E+01  2.000E+04 -1.831E-01
   1   14   14     1    14    1.4565E+05 -3.4102E+03   1.4906E+05  0.000E+00  0.000E+00  0.000E+00  4.22394E+01  1.825E-01  2.000E+01  2.000E+04 -1.705E-01
   1   13   15     1    15    1.4906E+05 -3.2269E+03   1.5229E+05  0.000E+00  0.000E+00  0.000E+00  4.17645E+01  1.850E-01  2.000E+01  2.000E+04 -1.613E-01
   1   12   16     1    16    1.5229E+05 -3.3511E+03   1.5564E+05  0.000E+00  0.000E+00  0.000E+00  4.12897E+01  1.874E-01  2.000E+01  2.000E+04 -1.676E-01
   1   12   17     1    17    1.5564E+05 -2.3285E+03   1.5797E+05  0.000E+00  0.000E+00  0.000E+00  4.08145E+01  1.895E-01  2.000E+01  2.000E+04 -1.164E-01
   1   12   18     1    18    1.5797E+05 -2.3140E+03   1.6028E+05  0.000E+00  0.000E+00  0.000E+00  4.03389E+01  1.911E-01  2.000E+01  2.000E+04 -1.157E-01
   1   12   19     1    19    1.6028E+05 -3.0265E+03   1.6331E+05  0.000E+00  0.000E+00  0.000E+00  3.98635E+01  1.931E-01  2.000E+01  2.000E+04 -1.513E-01
   1   13   20     1    20    1.6331E+05 -2.5321E+03   1.6584E+05  0.000E+00  0.000E+00  0.000E+00  3.93882E+01  1.950E-01  2.000E+01  2.000E+04 -1.266E-01
   1   14   21     1    21    1.6584E+05 -2.3089E+03   1.6815E+05  0.000E+00  0.000E+00  0.000E+00  3.89127E+01  1.968E-01  2.000E+01  2.000E+04 -1.154E-01
   1   14   22     1    22    1.6815E+05  5.1239E+03   1.6303E+05  0.000E+00  0.000E+00  0.000E+00  3.84344E+01  1.958E-01  2.000E+01  2.000E+04  2.562E-01
   1    9   30     2     1    5.0000E+04 -1.7479E+03   5.1748E+04  0.000E+00  0.000E+00  0.000E+00  4.02421E+01  1.171E-01  2.000E+01  2.000E+04 -8.739E-02
   1    9   29     2     2    5.1748E+04 -1.9977E+03   5.3746E+04  0.000E+00  0.000E+00  0.000E+00  3.99946E+01  1.196E-01  2.000E+01  2.000E+04 -9.988E-02
   1    9   28     2     3    5.3746E+04 -2.1981E+03   5.5944E+04  0.000E+00  0.000E+00  0.000E+00  3.97475E+01  1.225E-01  2.000E+01  2.000E+04 -1.099E-01
   1    9   27     2     4    5.5944E+04 -3.9206E+03   5.9864E+04  0.000E+00  0.000E+00  0.000E+00  3.95015E+01  1.265E-01  2.000E+01  2.000E+04 -1.960E-01
   1   10   26     2     5    5.9864E+04 -2.4006E+03   6.2265E+04  0.000E+00  0.000E+00  0.000E+00  3.92556E+01  1.306E-01  2.000E+01  2.000E+04 -1.200E-01
   1   11   25     2     6    6.2265E+04 -1.7295E+03   6.3994E+04  0.000E+00  0.000E+00  0.000E+00  3.90083E+01  1.333E-01  2.000E+01  2.000E+04 -8.647E-02
   1   12   24     2     7    6.3994E+04 -1.1651E+03   6.5159E+04  0.000E+00  0.000E+00  0.000E+00  3.87601E+01  1.351E-01  2.000E+01  2.000E+04 -5.826E-02
   1   13   23     2     8    6.5159E+04 -6.4591E+02   6.5805E+04  0.000E+00  0.000E+00  0.000E+00  3.85112E+01  1.362E-01  2.000E+01  2.000E+04 -3.230E-02
   1   14   22     2     9    6.5805E+04  1.6477E+03   6.4158E+04  0.000E+00  0.000E+00  0.000E+00  3.82606E+01  1.356E-01  2.000E+01  2.000E+04  8.239E-02
   1   14   22     3     1    2.2718E+05 -8.4814E+03   2.3567E+05  0.000E+00  0.000E+00  0.000E+00  3.77541E+01  1.986E-01  2.000E+01  2.000E+04 -4.241E-01
   1   15   23     3     2    2.3567E+05 -3.1878E+03   2.3885E+05  0.000E+00  0.000E+00  0.000E+00  3.68682E+01  2.016E-01  2.000E+01  2.000E+04 -1.594E-01
   1   15   24     3     3    2.3885E+05 -2.1732E+03   2.4103E+05  0.000E+00  0.000E+00  0.000E+00  3.59807E+01  2.029E-01  2.000E+01  2.000E+04 -1.087E-01
   1   15   25     3     4    2.4103E+05 -2.0335E+03   2.4306E+05  0.000E+00  0.000E+00  0.000E+00  3.50929E+01  2.040E-01  2.000E+01  2.000E+04 -1.017E-01
   1   15   26     3     5    2.4306E+05 -2.3805E+03   2.4544E+05  0.000E+00  0.000E+00  0.000E+00  3.42051E+01  2.051E-01  2.000E+01  2.000E+04 -1.190E-01
   1   16   27     3     6    2.4544E+05 -3.3748E+03   2.4882E+05  0.000E+00  0.000E+00  0.000E+00  3.33177E+01  2.066E-01  2.000E+01  2.000E+04 -1.687E-01
   1   17   28     3     7    2.4882E+05 -4.2047E+03   2.5302E+05  0.000E+00  0.000E+00  0.000E+00  3.24307E+01  2.085E-01  2.000E+01  2.000E+04 -2.102E-01
   1   18   29     3     8    2.5302E+05 -5.8832E+03   2.5890E+05  0.000E+00  0.000E+00  0.000E+00  3.15443E+01  2.110E-01  2.000E+01  2.000E+04 -2.942E-01
   1   18   30     3     9    2.5890E+05 -4.8811E+03   2.6378E+05  0.000E+00  0.000E+00  0.000E+00  3.06581E+01  2.136E-01  2.000E+01  2.000E+04 -2.441E-01



1
              HEAD IN LAYER   1 AT END OF TIME STEP   1 IN STRESS PERIOD    4
  ---------------------------------------------------------------------------

          1      2      3      4      5      6      7      8      9     10
         11     12     13     14     15     16     17     18     19     20
         21     22     23     24     25     26     27     28     29     30
 .........................................................................
   1  ****** ****** ****** ****** ****** ****** ****** ****** ****** ******
      ****** ****** ****** ****** ****** ****** ****** ****** ****** ******
      ****** ****** ****** ****** ****** ****** ****** ****** ****** ******
   2  ****** ****** ****** ****** ****** ****** ****** ****** ****** ******
      ****** ****** ****** ****** ****** ****** ****** ****** ****** ******
      ****** ****** ****** ****** ****** ****** ****** ****** ****** ******
   3  ****** ****** ****** ****** ****** ****** ****** ****** ****** ******
      ****** ****** ****** ****** ****** ****** ****** ****** ****** ******
      ****** ****** ****** ****** ****** ****** ****** ****** ****** ******
   4  ****** ****** ****** ****** ****** ****** ****** ****** ****** ******
      ****** ****** ****** ****** ****** ****** ****** ****** ****** ******
      ****** ****** ****** ****** ****** ****** ****** ****** ****** ******
   5  ****** ****** ****** ****** ****** ****** ****** ****** ****** ******
      ****** ****** ****** ****** ****** ****** ****** ****** ****** ******
      ****** ****** ****** ****** ****** ****** ****** ****** ****** ******
   6  ****** ****** ****** ****** ****** ****** ****** ****** ****** ******
      ****** ****** ****** ****** ****** ****** ****** ****** ****** ******
      ****** ****** ****** ****** ****** ****** ****** ****** ****** ******
   7  ****** ****** ****** ****** ****** ****** ****** ****** ****** ******
      ****** ****** ****** ****** ****** ****** ****** ****** ****** ******
      ****** ****** ****** ****** ****** ****** ****** ****** ****** ******
   8  ****** ****** ****** ****** ****** ****** ****** ****** ****** ******
      ****** ****** ****** ****** ****** ****** ****** ****** ****** ******
      ****** ****** ****** ****** ****** ****** ****** ****** ****** ******
   9  ****** ****** ****** ****** ****** ****** ****** ****** ****** ******
      ****** ****** ****** ****** ****** ****** ****** ****** ****** ******
      ****** ****** ****** ****** ****** ****** ****** ****** ****** ******
  10  ****** ****** ****** ****** ****** ****** ****** ****** ****** ******
      ****** ****** ****** ****** ****** ****** ****** ****** ****** ******
      ****** ****** ****** ****** ****** ****** ****** ****** ****** ******
  11  ****** ****** ****** ****** ****** ****** ****** ****** ****** ******
      ****** ****** ****** ****** ****** ****** ****** ****** ****** ******
      ****** ****** ****** ****** ****** ****** ****** ****** ****** ******
  12  ****** ****** ****** ****** ****** ****** ****** ****** ****** ******
      ****** ****** ****** ****** ****** ****** ****** ****** ****** ******
      ****** ****** ****** ****** ****** ****** ****** ****** ****** ******
  13  ****** ****** ****** ****** ****** ****** ****** ****** ****** ******
      ****** ****** ****** ****** ****** ****** ****** ****** ****** ******
      ****** ****** ****** ****** ****** ****** ****** ****** ****** ******
  14  ****** ****** ****** ****** ****** ****** ****** ****** ****** ******
      ****** ****** ****** ****** ****** ****** ****** ****** ****** ******
      ****** ****** ****** ****** ****** ****** ****** ****** ****** ******
  15  ****** ****** ****** ****** ****** ****** ****** ****** ****** ******
      ****** ****** ****** ****** ****** ****** ****** ****** ****** ******
      ****** ****** ****** ****** ****** ****** ****** ****** ****** ******
  16  ****** ****** ****** ****** ****** ****** ****** ****** ****** ******
      ****** ****** ****** ****** ****** ****** ****** ****** ****** ******
      ****** ****** ****** ****** ****** ****** ****** ****** ****** ******
  17  ****** ****** ****** ****** ****** ****** ****** ****** ****** ******
      ****** ****** ****** ****** ****** ****** ****** ****** ****** ******
      ****** ****** ****** ****** ****** ****** ****** ****** ****** ******
  18  ****** ****** ****** ****** ****** ****** ****** ****** ****** ******
      ****** ****** ****** ****** ****** ****** ****** ****** ****** ******
      ****** ****** ****** ****** ****** ****** ****** ****** ****** ******
  19  ****** ****** ****** ****** ****** ****** ****** ****** ****** ******
      ****** ****** ****** ****** ****** ****** ****** ****** ****** ******
      ****** ****** ****** ****** ****** ****** ****** ****** ****** ******
  20  ****** ****** ****** ****** ****** ****** ****** ****** ****** ******
      ****** ****** ****** ****** ****** ****** ****** ****** ****** ******
      ****** ****** ****** ****** ****** ****** ****** ****** ****** ******
  21  ****** ****** ****** ****** ****** ****** ****** ****** ****** ******
      ****** ****** ****** ****** ****** ****** ****** ****** ****** ******
      ****** ****** ****** ****** ****** ****** ****** ****** ****** ******
  22  ****** ****** ****** ****** ****** ****** ****** ****** ****** ******
      ****** ****** ****** ****** ****** ****** ****** ****** ****** ******
      ****** ****** ****** ****** ****** ****** ****** ****** ****** ******
  23  ****** ****** ****** ****** ****** ****** ****** ****** ****** ******
      ****** ****** ****** ****** ****** ****** ****** ****** ****** ******
      ****** ****** ****** ****** ****** ****** ****** ****** ****** ******
  24  ****** ****** ****** ****** ****** ****** ****** ****** ****** ******
      ****** ****** ****** ****** ****** ****** ****** ****** ****** ******
      ****** ****** ****** ****** ****** ****** ****** ****** ****** ******
  25  ****** ****** ****** ****** ****** ****** ****** ****** ****** ******
      ****** ****** ****** ****** ****** ****** ****** ****** ****** ******
      ****** ****** ****** ****** ****** ****** ****** ****** ****** ******

 HEAD WILL BE SAVED ON UNIT   51 AT END OF TIME STEP    1, STRESS PERIOD    4
1
  VOLUMETRIC BUDGET FOR ENTIRE MODEL AT END OF TIME STEP    1, STRESS PERIOD   4
  ------------------------------------------------------------------------------

     CUMULATIVE VOLUMES      L**3       RATES FOR THIS TIME STEP      L**3/T
     ------------------                 ------------------------

           IN:                                      IN:
           ---                                      ---
             STORAGE =    24135851.9484               STORAGE =        2482.7048
       CONSTANT HEAD =    57556105.5488         CONSTANT HEAD =      175851.1269
               WELLS =           0.0000                 WELLS =           0.0000
            RECHARGE =     8804400.0000              RECHARGE =       27600.0000
      STREAM LEAKAGE =     2276120.1414        STREAM LEAKAGE =        6771.5824

            TOTAL IN =    92772477.6387              TOTAL IN =      212705.4141

          OUT:                                     OUT:
          ----                                     ----
             STORAGE =       31235.9058               STORAGE =         343.2517
       CONSTANT HEAD =           0.0000         CONSTANT HEAD =           0.0000
               WELLS =    33509334.9987                 WELLS =       91806.3973
            RECHARGE =           0.0000              RECHARGE =           0.0000
      STREAM LEAKAGE =    59231907.4878        STREAM LEAKAGE =      120555.7642

           TOTAL OUT =    92772478.3923             TOTAL OUT =      212705.4131

            IN - OUT =          -0.7536              IN - OUT =       9.8588E-04

 PERCENT DISCREPANCY =          -0.00     PERCENT DISCREPANCY =           0.00






         TIME SUMMARY AT END OF TIME STEP    1 IN STRESS PERIOD    4
                    SECONDS     MINUTES      HOURS       DAYS        YEARS
                    -----------------------------------------------------------
   TIME STEP LENGTH 7.86240E+06 1.31040E+05  2184.0      91.000     0.24914    
 STRESS PERIOD TIME 7.86240E+06 1.31040E+05  2184.0      91.000     0.24914    
         TOTAL TIME 3.15360E+07 5.25600E+05  8760.0      365.00     0.99932    
1
1
                            STRESS PERIOD NO.    5, LENGTH =   92.00000    
                            -----------------------------------------------

                              NUMBER OF TIME STEPS =     1

                               MULTIPLIER FOR DELT =     1.500

                            INITIAL TIME STEP SIZE =   92.00000    

 WELL NO.  LAYER   ROW   COL   STRESS RATE         
 --------------------------------------------------
      1      1      5     14     -0.2595E+05
      2      1      4     17     -0.2695E+05
      3      1      3     26     -0.3890E+05

      3 WELLS

                 RECHARGE =  5.000000E-04

 REUSING STREAM SEGMENT DATA FROM LAST STRESS PERIOD
 
 SOLVING FOR HEAD 


     6 CALLS TO PCG ROUTINE FOR TIME STEP   1 IN STRESS PERIOD    5
    23 TOTAL ITERATIONS

 OUTPUT CONTROL FOR STRESS PERIOD    5   TIME STEP    1
    SAVE BUDGET
    SAVE HEAD FOR ALL LAYERS
    PRINT HEAD FOR ALL LAYERS
 UBDSV2 SAVING "STREAMFLOW OUT  " ON UNIT  50 AT TIME STEP  1, STRESS PERIOD   5



 STREAM LISTING     PERIOD      5   STEP        1

 LAYER ROW COL. STREAM  RCH.  FLOW INTO     FLOW TO   FLOW OUT OF   OVRLND.     DIRECT     STREAM       STREAM     STREAM     STREAM   STREAMBED  STREAMBED
                SEG.NO.  NO.  STRM. RCH.    AQUIFER    STRM. RCH.    RUNOFF     PRECIP       ET          HEAD       DEPTH      WIDTH   CONDCTNC.   GRADIENT

   1   13    1     1     1    1.0000E+05 -2.5637E+03   1.0256E+05  0.000E+00  0.000E+00  0.000E+00  4.84071E+01  1.458E-01  2.000E+01  2.000E+04 -1.282E-01
   1   13    2     1     2    1.0256E+05 -4.2898E+03   1.0685E+05  0.000E+00  0.000E+00  0.000E+00  4.79328E+01  1.487E-01  2.000E+01  2.000E+04 -2.145E-01
   1   14    3     1     3    1.0685E+05 -3.4439E+03   1.1030E+05  0.000E+00  0.000E+00  0.000E+00  4.74588E+01  1.520E-01  2.000E+01  2.000E+04 -1.722E-01
   1   15    4     1     4    1.1030E+05 -3.4072E+03   1.1370E+05  0.000E+00  0.000E+00  0.000E+00  4.69844E+01  1.548E-01  2.000E+01  2.000E+04 -1.704E-01
   1   16    5     1     5    1.1370E+05 -3.8873E+03   1.1759E+05  0.000E+00  0.000E+00  0.000E+00  4.65101E+01  1.578E-01  2.000E+01  2.000E+04 -1.944E-01
   1   16    6     1     6    1.1759E+05 -2.9966E+03   1.2059E+05  0.000E+00  0.000E+00  0.000E+00  4.60356E+01  1.606E-01  2.000E+01  2.000E+04 -1.498E-01
   1   16    7     1     7    1.2059E+05 -3.0232E+03   1.2361E+05  0.000E+00  0.000E+00  0.000E+00  4.55608E+01  1.631E-01  2.000E+01  2.000E+04 -1.512E-01
   1   16    8     1     8    1.2361E+05 -3.0323E+03   1.2664E+05  0.000E+00  0.000E+00  0.000E+00  4.50859E+01  1.655E-01  2.000E+01  2.000E+04 -1.516E-01
   1   16    9     1     9    1.2664E+05 -3.0123E+03   1.2966E+05  0.000E+00  0.000E+00  0.000E+00  4.46110E+01  1.679E-01  2.000E+01  2.000E+04 -1.506E-01
   1   16   10     1    10    1.2966E+05 -2.9740E+03   1.3263E+05  0.000E+00  0.000E+00  0.000E+00  4.41361E+01  1.702E-01  2.000E+01  2.000E+04 -1.487E-01
   1   16   11     1    11    1.3263E+05 -2.9581E+03   1.3559E+05  0.000E+00  0.000E+00  0.000E+00  4.36611E+01  1.725E-01  2.000E+01  2.000E+04 -1.479E-01
   1   16   12     1    12    1.3559E+05 -4.0954E+03   1.3968E+05  0.000E+00  0.000E+00  0.000E+00  4.31866E+01  1.752E-01  2.000E+01  2.000E+04 -2.048E-01
   1   15   13     1    13    1.3968E+05 -3.4275E+03   1.4311E+05  0.000E+00  0.000E+00  0.000E+00  4.27122E+01  1.781E-01  2.000E+01  2.000E+04 -1.714E-01
   1   14   14     1    14    1.4311E+05 -3.1617E+03   1.4627E+05  0.000E+00  0.000E+00  0.000E+00  4.22374E+01  1.805E-01  2.000E+01  2.000E+04 -1.581E-01
   1   13   15     1    15    1.4627E+05 -2.9729E+03   1.4925E+05  0.000E+00  0.000E+00  0.000E+00  4.17624E+01  1.828E-01  2.000E+01  2.000E+04 -1.486E-01
   1   12   16     1    16    1.4925E+05 -3.0859E+03   1.5233E+05  0.000E+00  0.000E+00  0.000E+00  4.12873E+01  1.851E-01  2.000E+01  2.000E+04 -1.543E-01
   1   12   17     1    17    1.5233E+05 -2.1489E+03   1.5448E+05  0.000E+00  0.000E+00  0.000E+00  4.08120E+01  1.870E-01  2.000E+01  2.000E+04 -1.074E-01
   1   12   18     1    18    1.5448E+05 -2.1425E+03   1.5662E+05  0.000E+00  0.000E+00  0.000E+00  4.03363E+01  1.886E-01  2.000E+01  2.000E+04 -1.071E-01
   1   12   19     1    19    1.5662E+05 -2.8178E+03   1.5944E+05  0.000E+00  0.000E+00  0.000E+00  3.98608E+01  1.904E-01  2.000E+01  2.000E+04 -1.409E-01
   1   13   20     1    20    1.5944E+05 -2.3524E+03   1.6179E+05  0.000E+00  0.000E+00  0.000E+00  3.93854E+01  1.922E-01  2.000E+01  2.000E+04 -1.176E-01
   1   14   21     1    21    1.6179E+05 -2.1517E+03   1.6395E+05  0.000E+00  0.000E+00  0.000E+00  3.89097E+01  1.938E-01  2.000E+01  2.000E+04 -1.076E-01
   1   14   22     1    22    1.6395E+05  5.1501E+03   1.5880E+05  0.000E+00  0.000E+00  0.000E+00  3.84314E+01  1.928E-01  2.000E+01  2.000E+04  2.575E-01
   1    9   30     2     1    5.0000E+04 -1.6244E+03   5.1624E+04  0.000E+00  0.000E+00  0.000E+00  4.02420E+01  1.170E-01  2.000E+01  2.000E+04 -8.122E-02
   1    9   29     2     2    5.1624E+04 -1.8740E+03   5.3498E+04  0.000E+00  0.000E+00  0.000E+00  3.99944E+01  1.194E-01  2.000E+01  2.000E+04 -9.370E-02
   1    9   28     2     3    5.3498E+04 -2.0721E+03   5.5570E+04  0.000E+00  0.000E+00  0.000E+00  3.97471E+01  1.221E-01  2.000E+01  2.000E+04 -1.036E-01
   1    9   27     2     4    5.5570E+04 -3.7383E+03   5.9309E+04  0.000E+00  0.000E+00  0.000E+00  3.95009E+01  1.259E-01  2.000E+01  2.000E+04 -1.869E-01
   1   10   26     2     5    5.9309E+04 -2.2166E+03   6.1525E+04  0.000E+00  0.000E+00  0.000E+00  3.92548E+01  1.298E-01  2.000E+01  2.000E+04 -1.108E-01
   1   11   25     2     6    6.1525E+04 -1.5530E+03   6.3078E+04  0.000E+00  0.000E+00  0.000E+00  3.90072E+01  1.322E-01  2.000E+01  2.000E+04 -7.765E-02
   1   12   24     2     7    6.3078E+04 -1.0088E+03   6.4087E+04  0.000E+00  0.000E+00  0.000E+00  3.87588E+01  1.338E-01  2.000E+01  2.000E+04 -5.044E-02
   1   13   23     2     8    6.4087E+04 -5.2491E+02   6.4612E+04  0.000E+00  0.000E+00  0.000E+00  3.85098E+01  1.348E-01  2.000E+01  2.000E+04 -2.625E-02
   1   14   22     2     9    6.4612E+04  1.7033E+03   6.2909E+04  0.000E+00  0.000E+00  0.000E+00  3.82591E+01  1.341E-01  2.000E+01  2.000E+04  8.517E-02
   1   14   22     3     1    2.2170E+05 -8.4519E+03   2.3016E+05  0.000E+00  0.000E+00  0.000E+00  3.77513E+01  1.957E-01  2.000E+01  2.000E+04 -4.226E-01
   1   15   23     3     2    2.3016E+05 -3.0468E+03   2.3320E+05  0.000E+00  0.000E+00  0.000E+00  3.68654E+01  1.987E-01  2.000E+01  2.000E+04 -1.523E-01
   1   15   24     3     3    2.3320E+05 -2.0747E+03   2.3528E+05  0.000E+00  0.000E+00  0.000E+00  3.59778E+01  2.000E-01  2.000E+01  2.000E+04 -1.037E-01
   1   15   25     3     4    2.3528E+05 -1.9372E+03   2.3721E+05  0.000E+00  0.000E+00  0.000E+00  3.50899E+01  2.011E-01  2.000E+01  2.000E+04 -9.686E-02
   1   15   26     3     5    2.3721E+05 -2.2608E+03   2.3948E+05  0.000E+00  0.000E+00  0.000E+00  3.42021E+01  2.021E-01  2.000E+01  2.000E+04 -1.130E-01
   1   16   27     3     6    2.3948E+05 -3.2224E+03   2.4270E+05  0.000E+00  0.000E+00  0.000E+00  3.33146E+01  2.035E-01  2.000E+01  2.000E+04 -1.611E-01
   1   17   28     3     7    2.4270E+05 -4.0491E+03   2.4675E+05  0.000E+00  0.000E+00  0.000E+00  3.24276E+01  2.054E-01  2.000E+01  2.000E+04 -2.025E-01
   1   18   29     3     8    2.4675E+05 -5.7370E+03   2.5248E+05  0.000E+00  0.000E+00  0.000E+00  3.15411E+01  2.078E-01  2.000E+01  2.000E+04 -2.868E-01
   1   18   30     3     9    2.5248E+05 -4.7728E+03   2.5726E+05  0.000E+00  0.000E+00  0.000E+00  3.06549E+01  2.104E-01  2.000E+01  2.000E+04 -2.386E-01



1
              HEAD IN LAYER   1 AT END OF TIME STEP   1 IN STRESS PERIOD    5
  ---------------------------------------------------------------------------

          1      2      3      4      5      6      7      8      9     10
         11     12     13     14     15     16     17     18     19     20
         21     22     23     24     25     26     27     28     29     30
 .........................................................................
   1  ****** ****** ****** ****** ****** ****** ****** ****** ****** ******
      ****** ****** ****** ****** ****** ****** ****** ****** ****** ******
      ****** ****** ****** ****** ****** ****** ****** ****** ****** ******
   2  ****** ****** ****** ****** ****** ****** ****** ****** ****** ******
      ****** ****** ****** ****** ****** ****** ****** ****** ****** ******
      ****** ****** ****** ****** ****** ****** ****** ****** ****** ******
   3  ****** ****** ****** ****** ****** ****** ****** ****** ****** ******
      ****** ****** ****** ****** ****** ****** ****** ****** ****** ******
      ****** ****** ****** ****** ****** ****** ****** ****** ****** ******
   4  ****** ****** ****** ****** ****** ****** ****** ****** ****** ******
      ****** ****** ****** ****** ****** ****** ****** ****** ****** ******
      ****** ****** ****** ****** ****** ****** ****** ****** ****** ******
   5  ****** ****** ****** ****** ****** ****** ****** ****** ****** ******
      ****** ****** ****** ****** ****** ****** ****** ****** ****** ******
      ****** ****** ****** ****** ****** ****** ****** ****** ****** ******
   6  ****** ****** ****** ****** ****** ****** ****** ****** ****** ******
      ****** ****** ****** ****** ****** ****** ****** ****** ****** ******
      ****** ****** ****** ****** ****** ****** ****** ****** ****** ******
   7  ****** ****** ****** ****** ****** ****** ****** ****** ****** ******
      ****** ****** ****** ****** ****** ****** ****** ****** ****** ******
      ****** ****** ****** ****** ****** ****** ****** ****** ****** ******
   8  ****** ****** ****** ****** ****** ****** ****** ****** ****** ******
      ****** ****** ****** ****** ****** ****** ****** ****** ****** ******
      ****** ****** ****** ****** ****** ****** ****** ****** ****** ******
   9  ****** ****** ****** ****** ****** ****** ****** ****** ****** ******
      ****** ****** ****** ****** ****** ****** ****** ****** ****** ******
      ****** ****** ****** ****** ****** ****** ****** ****** ****** ******
  10  ****** ****** ****** ****** ****** ****** ****** ****** ****** ******
      ****** ****** ****** ****** ****** ****** ****** ****** ****** ******
      ****** ****** ****** ****** ****** ****** ****** ****** ****** ******
  11  ****** ****** ****** ****** ****** ****** ****** ****** ****** ******
      ****** ****** ****** ****** ****** ****** ****** ****** ****** ******
      ****** ****** ****** ****** ****** ****** ****** ****** ****** ******
  12  ****** ****** ****** ****** ****** ****** ****** ****** ****** ******
      ****** ****** ****** ****** ****** ****** ****** ****** ****** ******
      ****** ****** ****** ****** ****** ****** ****** ****** ****** ******
  13  ****** ****** ****** ****** ****** ****** ****** ****** ****** ******
      ****** ****** ****** ****** ****** ****** ****** ****** ****** ******
      ****** ****** ****** ****** ****** ****** ****** ****** ****** ******
  14  ****** ****** ****** ****** ****** ****** ****** ****** ****** ******
      ****** ****** ****** ****** ****** ****** ****** ****** ****** ******
      ****** ****** ****** ****** ****** ****** ****** ****** ****** ******
  15  ****** ****** ****** ****** ****** ****** ****** ****** ****** ******
      ****** ****** ****** ****** ****** ****** ****** ****** ****** ******
      ****** ****** ****** ****** ****** ****** ****** ****** ****** ******
  16  ****** ****** ****** ****** ****** ****** ****** ****** ****** ******
      ****** ****** ****** ****** ****** ****** ****** ****** ****** ******
      ****** ****** ****** ****** ****** ****** ****** ****** ****** ******
  17  ****** ****** ****** ****** ****** ****** ****** ****** ****** ******
      ****** ****** ****** ****** ****** ****** ****** ****** ****** ******
      ****** ****** ****** ****** ****** ****** ****** ****** ****** ******
  18  ****** ****** ****** ****** ****** ****** ****** ****** ****** ******
      ****** ****** ****** ****** ****** ****** ****** ****** ****** ******
      ****** ****** ****** ****** ****** ****** ****** ****** ****** ******
  19  ****** ****** ****** ****** ****** ****** ****** ****** ****** ******
      ****** ****** ****** ****** ****** ****** ****** ****** ****** ******
      ****** ****** ****** ****** ****** ****** ****** ****** ****** ******
  20  ****** ****** ****** ****** ****** ****** ****** ****** ****** ******
      ****** ****** ****** ****** ****** ****** ****** ****** ****** ******
      ****** ****** ****** ****** ****** ****** ****** ****** ****** ******
  21  ****** ****** ****** ****** ****** ****** ****** ****** ****** ******
      ****** ****** ****** ****** ****** ****** ****** ****** ****** ******
      ****** ****** ****** ****** ****** ****** ****** ****** ****** ******
  22  ****** ****** ****** ****** ****** ****** ****** ****** ****** ******
      ****** ****** ****** ****** ****** ****** ****** ****** ****** ******
      ****** ****** ****** ****** ****** ****** ****** ****** ****** ******
  23  ****** ****** ****** ****** ****** ****** ****** ****** ****** ******
      ****** ****** ****** ****** ****** ****** ****** ****** ****** ******
      ****** ****** ****** ****** ****** ****** ****** ****** ****** ******
  24  ****** ****** ****** ****** ****** ****** ****** ****** ****** ******
      ****** ****** ****** ****** ****** ****** ****** ****** ****** ******
      ****** ****** ****** ****** ****** ****** ****** ****** ****** ******
  25  ****** ****** ****** ****** ****** ****** ****** ****** ****** ******
      ****** ****** ****** ****** ****** ****** ****** ****** ****** ******
      ****** ****** ****** ****** ****** ****** ****** ****** ****** ******

 HEAD WILL BE SAVED ON UNIT   51 AT END OF TIME STEP    1, STRESS PERIOD    5
1
  VOLUMETRIC BUDGET FOR ENTIRE MODEL AT END OF TIME STEP    1, STRESS PERIOD   5
  ------------------------------------------------------------------------------

     CUMULATIVE VOLUMES      L**3       RATES FOR THIS TIME STEP      L**3/T
     ------------------                 ------------------------

           IN:                                      IN:
           ---                                      ---
             STORAGE =    24581553.0716               STORAGE =        4844.5774
       CONSTANT HEAD =    74154599.6966         CONSTANT HEAD =      180418.4146
               WELLS =           0.0000                 WELLS =           0.0000
            RECHARGE =    10074000.0000              RECHARGE =       13800.0000
      STREAM LEAKAGE =     2906632.7196        STREAM LEAKAGE =        6853.3976

            TOTAL IN =   111716785.4878              TOTAL IN =      205916.3897

          OUT:                                     OUT:
          ----                                     ----
             STORAGE =       31235.9058               STORAGE =           0.0000
       CONSTANT HEAD =           0.0000         CONSTANT HEAD =           0.0000
               WELLS =    41955523.5463                 WELLS =       91806.3973
            RECHARGE =           0.0000              RECHARGE =           0.0000
      STREAM LEAKAGE =    69730026.8642        STREAM LEAKAGE =      114109.9932

           TOTAL OUT =   111716786.3163             TOTAL OUT =      205916.3905

            IN - OUT =          -0.8285              IN - OUT =      -8.1424E-04

 PERCENT DISCREPANCY =          -0.00     PERCENT DISCREPANCY =          -0.00






         TIME SUMMARY AT END OF TIME STEP    1 IN STRESS PERIOD    5
                    SECONDS     MINUTES      HOURS       DAYS        YEARS
                    -----------------------------------------------------------
   TIME STEP LENGTH 7.94880E+06 1.32480E+05  2208.0      92.000     0.25188    
 STRESS PERIOD TIME 7.94880E+06 1.32480E+05  2208.0      92.000     0.25188    
         TOTAL TIME 3.94848E+07 6.58080E+05  10968.      457.00      1.2512    
1
1
                            STRESS PERIOD NO.    6, LENGTH =   91.00000    
                            -----------------------------------------------

                              NUMBER OF TIME STEPS =     1

                               MULTIPLIER FOR DELT =     1.500

                            INITIAL TIME STEP SIZE =   91.00000    

 WELL NO.  LAYER   ROW   COL   STRESS RATE         
 --------------------------------------------------
      1      1      5     14     -0.2595E+05
      2      1      4     17     -0.2695E+05
      3      1      3     26     -0.3890E+05

      3 WELLS

                 RECHARGE =  2.000000E-03

 REUSING STREAM SEGMENT DATA FROM LAST STRESS PERIOD
 
 SOLVING FOR HEAD 


     7 CALLS TO PCG ROUTINE FOR TIME STEP   1 IN STRESS PERIOD    6
    26 TOTAL ITERATIONS

 OUTPUT CONTROL FOR STRESS PERIOD    6   TIME STEP    1
    SAVE BUDGET
    SAVE HEAD FOR ALL LAYERS
    PRINT HEAD FOR ALL LAYERS
 UBDSV2 SAVING "STREAMFLOW OUT  " ON UNIT  50 AT TIME STEP  1, STRESS PERIOD   6



 STREAM LISTING     PERIOD      6   STEP        1

 LAYER ROW COL. STREAM  RCH.  FLOW INTO     FLOW TO   FLOW OUT OF   OVRLND.     DIRECT     STREAM       STREAM     STREAM     STREAM   STREAMBED  STREAMBED
                SEG.NO.  NO.  STRM. RCH.    AQUIFER    STRM. RCH.    RUNOFF     PRECIP       ET          HEAD       DEPTH      WIDTH   CONDCTNC.   GRADIENT

   1   13    1     1     1    1.0000E+05 -2.9558E+03   1.0296E+05  0.000E+00  0.000E+00  0.000E+00  4.84073E+01  1.459E-01  2.000E+01  2.000E+04 -1.478E-01
   1   13    2     1     2    1.0296E+05 -4.8028E+03   1.0776E+05  0.000E+00  0.000E+00  0.000E+00  4.79333E+01  1.493E-01  2.000E+01  2.000E+04 -2.401E-01
   1   14    3     1     3    1.0776E+05 -3.9750E+03   1.1173E+05  0.000E+00  0.000E+00  0.000E+00  4.74598E+01  1.530E-01  2.000E+01  2.000E+04 -1.987E-01
   1   15    4     1     4    1.1173E+05 -3.9381E+03   1.1567E+05  0.000E+00  0.000E+00  0.000E+00  4.69858E+01  1.562E-01  2.000E+01  2.000E+04 -1.969E-01
   1   16    5     1     5    1.1567E+05 -4.3838E+03   1.2006E+05  0.000E+00  0.000E+00  0.000E+00  4.65119E+01  1.596E-01  2.000E+01  2.000E+04 -2.192E-01
   1   16    6     1     6    1.2006E+05 -3.3850E+03   1.2344E+05  0.000E+00  0.000E+00  0.000E+00  4.60378E+01  1.628E-01  2.000E+01  2.000E+04 -1.693E-01
   1   16    7     1     7    1.2344E+05 -3.4166E+03   1.2686E+05  0.000E+00  0.000E+00  0.000E+00  4.55632E+01  1.655E-01  2.000E+01  2.000E+04 -1.708E-01
   1   16    8     1     8    1.2686E+05 -3.4286E+03   1.3029E+05  0.000E+00  0.000E+00  0.000E+00  4.50886E+01  1.682E-01  2.000E+01  2.000E+04 -1.714E-01
   1   16    9     1     9    1.3029E+05 -3.4086E+03   1.3369E+05  0.000E+00  0.000E+00  0.000E+00  4.46140E+01  1.709E-01  2.000E+01  2.000E+04 -1.704E-01
   1   16   10     1    10    1.3369E+05 -3.3670E+03   1.3706E+05  0.000E+00  0.000E+00  0.000E+00  4.41394E+01  1.735E-01  2.000E+01  2.000E+04 -1.684E-01
   1   16   11     1    11    1.3706E+05 -3.3470E+03   1.4041E+05  0.000E+00  0.000E+00  0.000E+00  4.36647E+01  1.760E-01  2.000E+01  2.000E+04 -1.673E-01
   1   16   12     1    12    1.4041E+05 -4.5996E+03   1.4501E+05  0.000E+00  0.000E+00  0.000E+00  4.31904E+01  1.791E-01  2.000E+01  2.000E+04 -2.300E-01
   1   15   13     1    13    1.4501E+05 -3.9697E+03   1.4898E+05  0.000E+00  0.000E+00  0.000E+00  4.27164E+01  1.823E-01  2.000E+01  2.000E+04 -1.985E-01
   1   14   14     1    14    1.4898E+05 -3.7108E+03   1.5269E+05  0.000E+00  0.000E+00  0.000E+00  4.22419E+01  1.851E-01  2.000E+01  2.000E+04 -1.855E-01
   1   13   15     1    15    1.5269E+05 -3.5101E+03   1.5620E+05  0.000E+00  0.000E+00  0.000E+00  4.17673E+01  1.878E-01  2.000E+01  2.000E+04 -1.755E-01
   1   12   16     1    16    1.5620E+05 -3.5933E+03   1.5979E+05  0.000E+00  0.000E+00  0.000E+00  4.12926E+01  1.903E-01  2.000E+01  2.000E+04 -1.797E-01
   1   12   17     1    17    1.5979E+05 -2.5319E+03   1.6232E+05  0.000E+00  0.000E+00  0.000E+00  4.08175E+01  1.925E-01  2.000E+01  2.000E+04 -1.266E-01
   1   12   18     1    18    1.6232E+05 -2.5203E+03   1.6484E+05  0.000E+00  0.000E+00  0.000E+00  4.03421E+01  1.943E-01  2.000E+01  2.000E+04 -1.260E-01
   1   12   19     1    19    1.6484E+05 -3.2780E+03   1.6812E+05  0.000E+00  0.000E+00  0.000E+00  3.98669E+01  1.964E-01  2.000E+01  2.000E+04 -1.639E-01
   1   13   20     1    20    1.6812E+05 -2.8085E+03   1.7093E+05  0.000E+00  0.000E+00  0.000E+00  3.93917E+01  1.985E-01  2.000E+01  2.000E+04 -1.404E-01
   1   14   21     1    21    1.7093E+05 -2.5747E+03   1.7350E+05  0.000E+00  0.000E+00  0.000E+00  3.89163E+01  2.004E-01  2.000E+01  2.000E+04 -1.287E-01
   1   14   22     1    22    1.7350E+05  5.0681E+03   1.6844E+05  0.000E+00  0.000E+00  0.000E+00  3.84382E+01  1.996E-01  2.000E+01  2.000E+04  2.534E-01
   1    9   30     2     1    5.0000E+04 -1.9791E+03   5.1979E+04  0.000E+00  0.000E+00  0.000E+00  4.02422E+01  1.172E-01  2.000E+01  2.000E+04 -9.895E-02
   1    9   29     2     2    5.1979E+04 -2.2256E+03   5.4205E+04  0.000E+00  0.000E+00  0.000E+00  3.99951E+01  1.201E-01  2.000E+01  2.000E+04 -1.113E-01
   1    9   28     2     3    5.4205E+04 -2.4209E+03   5.6626E+04  0.000E+00  0.000E+00  0.000E+00  3.97482E+01  1.232E-01  2.000E+01  2.000E+04 -1.210E-01
   1    9   27     2     4    5.6626E+04 -4.2010E+03   6.0827E+04  0.000E+00  0.000E+00  0.000E+00  3.95026E+01  1.276E-01  2.000E+01  2.000E+04 -2.100E-01
   1   10   26     2     5    6.0827E+04 -2.6965E+03   6.3523E+04  0.000E+00  0.000E+00  0.000E+00  3.92571E+01  1.321E-01  2.000E+01  2.000E+04 -1.348E-01
   1   11   25     2     6    6.3523E+04 -2.0122E+03   6.5535E+04  0.000E+00  0.000E+00  0.000E+00  3.90100E+01  1.350E-01  2.000E+01  2.000E+04 -1.006E-01
   1   12   24     2     7    6.5535E+04 -1.4148E+03   6.6950E+04  0.000E+00  0.000E+00  0.000E+00  3.87622E+01  1.372E-01  2.000E+01  2.000E+04 -7.074E-02
   1   13   23     2     8    6.6950E+04 -8.4200E+02   6.7792E+04  0.000E+00  0.000E+00  0.000E+00  3.85136E+01  1.386E-01  2.000E+01  2.000E+04 -4.210E-02
   1   14   22     2     9    6.7792E+04  1.5665E+03   6.6226E+04  0.000E+00  0.000E+00  0.000E+00  3.82631E+01  1.381E-01  2.000E+01  2.000E+04  7.833E-02
   1   14   22     3     1    2.3466E+05 -8.5362E+03   2.4320E+05  0.000E+00  0.000E+00  0.000E+00  3.77580E+01  2.024E-01  2.000E+01  2.000E+04 -4.268E-01
   1   15   23     3     2    2.4320E+05 -3.4435E+03   2.4664E+05  0.000E+00  0.000E+00  0.000E+00  3.68721E+01  2.055E-01  2.000E+01  2.000E+04 -1.722E-01
   1   15   24     3     3    2.4664E+05 -2.3619E+03   2.4900E+05  0.000E+00  0.000E+00  0.000E+00  3.59847E+01  2.069E-01  2.000E+01  2.000E+04 -1.181E-01
   1   15   25     3     4    2.4900E+05 -2.2252E+03   2.5123E+05  0.000E+00  0.000E+00  0.000E+00  3.50969E+01  2.081E-01  2.000E+01  2.000E+04 -1.113E-01
   1   15   26     3     5    2.5123E+05 -2.6320E+03   2.5386E+05  0.000E+00  0.000E+00  0.000E+00  3.42093E+01  2.093E-01  2.000E+01  2.000E+04 -1.316E-01
   1   16   27     3     6    2.5386E+05 -3.6882E+03   2.5755E+05  0.000E+00  0.000E+00  0.000E+00  3.33219E+01  2.108E-01  2.000E+01  2.000E+04 -1.844E-01
   1   17   28     3     7    2.5755E+05 -4.5248E+03   2.6207E+05  0.000E+00  0.000E+00  0.000E+00  3.24351E+01  2.129E-01  2.000E+01  2.000E+04 -2.262E-01
   1   18   29     3     8    2.6207E+05 -6.1835E+03   2.6826E+05  0.000E+00  0.000E+00  0.000E+00  3.15488E+01  2.155E-01  2.000E+01  2.000E+04 -3.092E-01
   1   18   30     3     9    2.6826E+05 -5.1096E+03   2.7337E+05  0.000E+00  0.000E+00  0.000E+00  3.06627E+01  2.182E-01  2.000E+01  2.000E+04 -2.555E-01



1
              HEAD IN LAYER   1 AT END OF TIME STEP   1 IN STRESS PERIOD    6
  ---------------------------------------------------------------------------

          1      2      3      4      5      6      7      8      9     10
         11     12     13     14     15     16     17     18     19     20
         21     22     23     24     25     26     27     28     29     30
 .........................................................................
   1  ****** ****** ****** ****** ****** ****** ****** ****** ****** ******
      ****** ****** ****** ****** ****** ****** ****** ****** ****** ******
      ****** ****** ****** ****** ****** ****** ****** ****** ****** ******
   2  ****** ****** ****** ****** ****** ****** ****** ****** ****** ******
      ****** ****** ****** ****** ****** ****** ****** ****** ****** ******
      ****** ****** ****** ****** ****** ****** ****** ****** ****** ******
   3  ****** ****** ****** ****** ****** ****** ****** ****** ****** ******
      ****** ****** ****** ****** ****** ****** ****** ****** ****** ******
      ****** ****** ****** ****** ****** ****** ****** ****** ****** ******
   4  ****** ****** ****** ****** ****** ****** ****** ****** ****** ******
      ****** ****** ****** ****** ****** ****** ****** ****** ****** ******
      ****** ****** ****** ****** ****** ****** ****** ****** ****** ******
   5  ****** ****** ****** ****** ****** ****** ****** ****** ****** ******
      ****** ****** ****** ****** ****** ****** ****** ****** ****** ******
      ****** ****** ****** ****** ****** ****** ****** ****** ****** ******
   6  ****** ****** ****** ****** ****** ****** ****** ****** ****** ******
      ****** ****** ****** ****** ****** ****** ****** ****** ****** ******
      ****** ****** ****** ****** ****** ****** ****** ****** ****** ******
   7  ****** ****** ****** ****** ****** ****** ****** ****** ****** ******
      ****** ****** ****** ****** ****** ****** ****** ****** ****** ******
      ****** ****** ****** ****** ****** ****** ****** ****** ****** ******
   8  ****** ****** ****** ****** ****** ****** ****** ****** ****** ******
      ****** ****** ****** ****** ****** ****** ****** ****** ****** ******
      ****** ****** ****** ****** ****** ****** ****** ****** ****** ******
   9  ****** ****** ****** ****** ****** ****** ****** ****** ****** ******
      ****** ****** ****** ****** ****** ****** ****** ****** ****** ******
      ****** ****** ****** ****** ****** ****** ****** ****** ****** ******
  10  ****** ****** ****** ****** ****** ****** ****** ****** ****** ******
      ****** ****** ****** ****** ****** ****** ****** ****** ****** ******
      ****** ****** ****** ****** ****** ****** ****** ****** ****** ******
  11  ****** ****** ****** ****** ****** ****** ****** ****** ****** ******
      ****** ****** ****** ****** ****** ****** ****** ****** ****** ******
      ****** ****** ****** ****** ****** ****** ****** ****** ****** ******
  12  ****** ****** ****** ****** ****** ****** ****** ****** ****** ******
      ****** ****** ****** ****** ****** ****** ****** ****** ****** ******
      ****** ****** ****** ****** ****** ****** ****** ****** ****** ******
  13  ****** ****** ****** ****** ****** ****** ****** ****** ****** ******
      ****** ****** ****** ****** ****** ****** ****** ****** ****** ******
      ****** ****** ****** ****** ****** ****** ****** ****** ****** ******
  14  ****** ****** ****** ****** ****** ****** ****** ****** ****** ******
      ****** ****** ****** ****** ****** ****** ****** ****** ****** ******
      ****** ****** ****** ****** ****** ****** ****** ****** ****** ******
  15  ****** ****** ****** ****** ****** ****** ****** ****** ****** ******
      ****** ****** ****** ****** ****** ****** ****** ****** ****** ******
      ****** ****** ****** ****** ****** ****** ****** ****** ****** ******
  16  ****** ****** ****** ****** ****** ****** ****** ****** ****** ******
      ****** ****** ****** ****** ****** ****** ****** ****** ****** ******
      ****** ****** ****** ****** ****** ****** ****** ****** ****** ******
  17  ****** ****** ****** ****** ****** ****** ****** ****** ****** ******
      ****** ****** ****** ****** ****** ****** ****** ****** ****** ******
      ****** ****** ****** ****** ****** ****** ****** ****** ****** ******
  18  ****** ****** ****** ****** ****** ****** ****** ****** ****** ******
      ****** ****** ****** ****** ****** ****** ****** ****** ****** ******
      ****** ****** ****** ****** ****** ****** ****** ****** ****** ******
  19  ****** ****** ****** ****** ****** ****** ****** ****** ****** ******
      ****** ****** ****** ****** ****** ****** ****** ****** ****** ******
      ****** ****** ****** ****** ****** ****** ****** ****** ****** ******
  20  ****** ****** ****** ****** ****** ****** ****** ****** ****** ******
      ****** ****** ****** ****** ****** ****** ****** ****** ****** ******
      ****** ****** ****** ****** ****** ****** ****** ****** ****** ******
  21  ****** ****** ****** ****** ****** ****** ****** ****** ****** ******
      ****** ****** ****** ****** ****** ****** ****** ****** ****** ******
      ****** ****** ****** ****** ****** ****** ****** ****** ****** ******
  22  ****** ****** ****** ****** ****** ****** ****** ****** ****** ******
      ****** ****** ****** ****** ****** ****** ****** ****** ****** ******
      ****** ****** ****** ****** ****** ****** ****** ****** ****** ******
  23  ****** ****** ****** ****** ****** ****** ****** ****** ****** ******
      ****** ****** ****** ****** ****** ****** ****** ****** ****** ******
      ****** ****** ****** ****** ****** ****** ****** ****** ****** ******
  24  ****** ****** ****** ****** ****** ****** ****** ****** ****** ******
      ****** ****** ****** ****** ****** ****** ****** ****** ****** ******
      ****** ****** ****** ****** ****** ****** ****** ****** ****** ******
  25  ****** ****** ****** ****** ****** ****** ****** ****** ****** ******
      ****** ****** ****** ****** ****** ****** ****** ****** ****** ******
      ****** ****** ****** ****** ****** ****** ****** ****** ****** ******

 HEAD WILL BE SAVED ON UNIT   51 AT END OF TIME STEP    1, STRESS PERIOD    6
1
  VOLUMETRIC BUDGET FOR ENTIRE MODEL AT END OF TIME STEP    1, STRESS PERIOD   6
  ------------------------------------------------------------------------------

     CUMULATIVE VOLUMES      L**3       RATES FOR THIS TIME STEP      L**3/T
     ------------------                 ------------------------

           IN:                                      IN:
           ---                                      ---
             STORAGE =    24581553.0716               STORAGE =           0.0000
       CONSTANT HEAD =    89614891.2832         CONSTANT HEAD =      169893.3141
               WELLS =           0.0000                 WELLS =           0.0000
            RECHARGE =    15097200.0000              RECHARGE =       55200.0000
      STREAM LEAKAGE =     3510388.2237        STREAM LEAKAGE =        6634.6759

            TOTAL IN =   132804032.5785              TOTAL IN =      231727.9900

          OUT:                                     OUT:
          ----                                     ----
             STORAGE =      933932.1291               STORAGE =        9919.7387
       CONSTANT HEAD =           0.0000         CONSTANT HEAD =           0.0000
               WELLS =    50309905.6967                 WELLS =       91806.3973
            RECHARGE =           0.0000              RECHARGE =           0.0000
      STREAM LEAKAGE =    81560195.4310        STREAM LEAKAGE =      130001.8524

           TOTAL OUT =   132804033.2567             TOTAL OUT =      231727.9884

            IN - OUT =          -0.6783              IN - OUT =       1.6513E-03

 PERCENT DISCREPANCY =          -0.00     PERCENT DISCREPANCY =           0.00






         TIME SUMMARY AT END OF TIME STEP    1 IN STRESS PERIOD    6
                    SECONDS     MINUTES      HOURS       DAYS        YEARS
                    -----------------------------------------------------------
   TIME STEP LENGTH 7.86240E+06 1.31040E+05  2184.0      91.000     0.24914    
 STRESS PERIOD TIME 7.86240E+06 1.31040E+05  2184.0      91.000     0.24914    
         TOTAL TIME 4.73472E+07 7.89120E+05  13152.      548.00      1.5003    
1
1
                            STRESS PERIOD NO.    7, LENGTH =   91.00000    
                            -----------------------------------------------

                              NUMBER OF TIME STEPS =     1

                               MULTIPLIER FOR DELT =     1.500

                            INITIAL TIME STEP SIZE =   91.00000    

 WELL NO.  LAYER   ROW   COL   STRESS RATE         
 --------------------------------------------------
      1      1      5     14     -0.2088E+05
      2      1      4     17     -0.2248E+05
      3      1      3     26     -0.3099E+05

      3 WELLS

                 RECHARGE =   0.00000    

 REUSING STREAM SEGMENT DATA FROM LAST STRESS PERIOD
 
 SOLVING FOR HEAD 


     7 CALLS TO PCG ROUTINE FOR TIME STEP   1 IN STRESS PERIOD    7
    26 TOTAL ITERATIONS

 OUTPUT CONTROL FOR STRESS PERIOD    7   TIME STEP    1
    SAVE BUDGET
    SAVE HEAD FOR ALL LAYERS
    PRINT HEAD FOR ALL LAYERS
 UBDSV2 SAVING "STREAMFLOW OUT  " ON UNIT  50 AT TIME STEP  1, STRESS PERIOD   7



 STREAM LISTING     PERIOD      7   STEP        1

 LAYER ROW COL. STREAM  RCH.  FLOW INTO     FLOW TO   FLOW OUT OF   OVRLND.     DIRECT     STREAM       STREAM     STREAM     STREAM   STREAMBED  STREAMBED
                SEG.NO.  NO.  STRM. RCH.    AQUIFER    STRM. RCH.    RUNOFF     PRECIP       ET          HEAD       DEPTH      WIDTH   CONDCTNC.   GRADIENT

   1   13    1     1     1    1.0000E+05 -2.4695E+03   1.0247E+05  0.000E+00  0.000E+00  0.000E+00  4.84071E+01  1.457E-01  2.000E+01  2.000E+04 -1.235E-01
   1   13    2     1     2    1.0247E+05 -4.1702E+03   1.0664E+05  0.000E+00  0.000E+00  0.000E+00  4.79327E+01  1.486E-01  2.000E+01  2.000E+04 -2.085E-01
   1   14    3     1     3    1.0664E+05 -3.3226E+03   1.0996E+05  0.000E+00  0.000E+00  0.000E+00  4.74586E+01  1.517E-01  2.000E+01  2.000E+04 -1.661E-01
   1   15    4     1     4    1.0996E+05 -3.2893E+03   1.1325E+05  0.000E+00  0.000E+00  0.000E+00  4.69840E+01  1.545E-01  2.000E+01  2.000E+04 -1.645E-01
   1   16    5     1     5    1.1325E+05 -3.7821E+03   1.1703E+05  0.000E+00  0.000E+00  0.000E+00  4.65097E+01  1.574E-01  2.000E+01  2.000E+04 -1.891E-01
   1   16    6     1     6    1.1703E+05 -2.9123E+03   1.1995E+05  0.000E+00  0.000E+00  0.000E+00  4.60352E+01  1.602E-01  2.000E+01  2.000E+04 -1.456E-01
   1   16    7     1     7    1.1995E+05 -2.9394E+03   1.2289E+05  0.000E+00  0.000E+00  0.000E+00  4.55602E+01  1.625E-01  2.000E+01  2.000E+04 -1.470E-01
   1   16    8     1     8    1.2289E+05 -2.9501E+03   1.2584E+05  0.000E+00  0.000E+00  0.000E+00  4.50853E+01  1.649E-01  2.000E+01  2.000E+04 -1.475E-01
   1   16    9     1     9    1.2584E+05 -2.9328E+03   1.2877E+05  0.000E+00  0.000E+00  0.000E+00  4.46104E+01  1.672E-01  2.000E+01  2.000E+04 -1.466E-01
   1   16   10     1    10    1.2877E+05 -2.8973E+03   1.3167E+05  0.000E+00  0.000E+00  0.000E+00  4.41354E+01  1.695E-01  2.000E+01  2.000E+04 -1.449E-01
   1   16   11     1    11    1.3167E+05 -2.8838E+03   1.3455E+05  0.000E+00  0.000E+00  0.000E+00  4.36604E+01  1.717E-01  2.000E+01  2.000E+04 -1.442E-01
   1   16   12     1    12    1.3455E+05 -3.9989E+03   1.3855E+05  0.000E+00  0.000E+00  0.000E+00  4.31857E+01  1.744E-01  2.000E+01  2.000E+04 -1.999E-01
   1   15   13     1    13    1.3855E+05 -3.3378E+03   1.4189E+05  0.000E+00  0.000E+00  0.000E+00  4.27113E+01  1.772E-01  2.000E+01  2.000E+04 -1.669E-01
   1   14   14     1    14    1.4189E+05 -3.0960E+03   1.4498E+05  0.000E+00  0.000E+00  0.000E+00  4.22364E+01  1.796E-01  2.000E+01  2.000E+04 -1.548E-01
   1   13   15     1    15    1.4498E+05 -2.9533E+03   1.4794E+05  0.000E+00  0.000E+00  0.000E+00  4.17614E+01  1.819E-01  2.000E+01  2.000E+04 -1.477E-01
   1   12   16     1    16    1.4794E+05 -3.1730E+03   1.5111E+05  0.000E+00  0.000E+00  0.000E+00  4.12864E+01  1.841E-01  2.000E+01  2.000E+04 -1.586E-01
   1   12   17     1    17    1.5111E+05 -2.1888E+03   1.5330E+05  0.000E+00  0.000E+00  0.000E+00  4.08111E+01  1.861E-01  2.000E+01  2.000E+04 -1.094E-01
   1   12   18     1    18    1.5330E+05 -2.1706E+03   1.5547E+05  0.000E+00  0.000E+00  0.000E+00  4.03354E+01  1.877E-01  2.000E+01  2.000E+04 -1.085E-01
   1   12   19     1    19    1.5547E+05 -2.8531E+03   1.5832E+05  0.000E+00  0.000E+00  0.000E+00  3.98600E+01  1.895E-01  2.000E+01  2.000E+04 -1.427E-01
   1   13   20     1    20    1.5832E+05 -2.3015E+03   1.6062E+05  0.000E+00  0.000E+00  0.000E+00  3.93846E+01  1.914E-01  2.000E+01  2.000E+04 -1.151E-01
   1   14   21     1    21    1.6062E+05 -2.0745E+03   1.6270E+05  0.000E+00  0.000E+00  0.000E+00  3.89089E+01  1.930E-01  2.000E+01  2.000E+04 -1.037E-01
   1   14   22     1    22    1.6270E+05  5.1584E+03   1.5754E+05  0.000E+00  0.000E+00  0.000E+00  3.84305E+01  1.919E-01  2.000E+01  2.000E+04  2.579E-01
   1    9   30     2     1    5.0000E+04 -1.6672E+03   5.1667E+04  0.000E+00  0.000E+00  0.000E+00  4.02420E+01  1.170E-01  2.000E+01  2.000E+04 -8.336E-02
   1    9   29     2     2    5.1667E+04 -1.9291E+03   5.3596E+04  0.000E+00  0.000E+00  0.000E+00  3.99945E+01  1.195E-01  2.000E+01  2.000E+04 -9.645E-02
   1    9   28     2     3    5.3596E+04 -2.1518E+03   5.5748E+04  0.000E+00  0.000E+00  0.000E+00  3.97472E+01  1.222E-01  2.000E+01  2.000E+04 -1.076E-01
   1    9   27     2     4    5.5748E+04 -3.9125E+03   5.9661E+04  0.000E+00  0.000E+00  0.000E+00  3.95013E+01  1.263E-01  2.000E+01  2.000E+04 -1.956E-01
   1   10   26     2     5    5.9661E+04 -2.2610E+03   6.1922E+04  0.000E+00  0.000E+00  0.000E+00  3.92553E+01  1.303E-01  2.000E+01  2.000E+04 -1.130E-01
   1   11   25     2     6    6.1922E+04 -1.5466E+03   6.3468E+04  0.000E+00  0.000E+00  0.000E+00  3.90077E+01  1.327E-01  2.000E+01  2.000E+04 -7.733E-02
   1   12   24     2     7    6.3468E+04 -9.7832E+02   6.4447E+04  0.000E+00  0.000E+00  0.000E+00  3.87593E+01  1.343E-01  2.000E+01  2.000E+04 -4.892E-02
   1   13   23     2     8    6.4447E+04 -4.8482E+02   6.4931E+04  0.000E+00  0.000E+00  0.000E+00  3.85102E+01  1.352E-01  2.000E+01  2.000E+04 -2.424E-02
   1   14   22     2     9    6.4931E+04  1.7373E+03   6.3194E+04  0.000E+00  0.000E+00  0.000E+00  3.82594E+01  1.344E-01  2.000E+01  2.000E+04  8.686E-02
   1   14   22     3     1    2.2073E+05 -8.4358E+03   2.2917E+05  0.000E+00  0.000E+00  0.000E+00  3.77508E+01  1.952E-01  2.000E+01  2.000E+04 -4.218E-01
   1   15   23     3     2    2.2917E+05 -2.9594E+03   2.3213E+05  0.000E+00  0.000E+00  0.000E+00  3.68649E+01  1.982E-01  2.000E+01  2.000E+04 -1.480E-01
   1   15   24     3     3    2.3213E+05 -2.0057E+03   2.3413E+05  0.000E+00  0.000E+00  0.000E+00  3.59772E+01  1.995E-01  2.000E+01  2.000E+04 -1.003E-01
   1   15   25     3     4    2.3413E+05 -1.8658E+03   2.3600E+05  0.000E+00  0.000E+00  0.000E+00  3.50893E+01  2.005E-01  2.000E+01  2.000E+04 -9.329E-02
   1   15   26     3     5    2.3600E+05 -2.1677E+03   2.3817E+05  0.000E+00  0.000E+00  0.000E+00  3.42015E+01  2.015E-01  2.000E+01  2.000E+04 -1.084E-01
   1   16   27     3     6    2.3817E+05 -3.1106E+03   2.4128E+05  0.000E+00  0.000E+00  0.000E+00  3.33139E+01  2.028E-01  2.000E+01  2.000E+04 -1.555E-01
   1   17   28     3     7    2.4128E+05 -3.9363E+03   2.4521E+05  0.000E+00  0.000E+00  0.000E+00  3.24268E+01  2.046E-01  2.000E+01  2.000E+04 -1.968E-01
   1   18   29     3     8    2.4521E+05 -5.6344E+03   2.5085E+05  0.000E+00  0.000E+00  0.000E+00  3.15403E+01  2.070E-01  2.000E+01  2.000E+04 -2.817E-01
   1   18   30     3     9    2.5085E+05 -4.6914E+03   2.5554E+05  0.000E+00  0.000E+00  0.000E+00  3.06540E+01  2.096E-01  2.000E+01  2.000E+04 -2.346E-01



1
              HEAD IN LAYER   1 AT END OF TIME STEP   1 IN STRESS PERIOD    7
  ---------------------------------------------------------------------------

          1      2      3      4      5      6      7      8      9     10
         11     12     13     14     15     16     17     18     19     20
         21     22     23     24     25     26     27     28     29     30
 .........................................................................
   1  ****** ****** ****** ****** ****** ****** ****** ****** ****** ******
      ****** ****** ****** ****** ****** ****** ****** ****** ****** ******
      ****** ****** ****** ****** ****** ****** ****** ****** ****** ******
   2  ****** ****** ****** ****** ****** ****** ****** ****** ****** ******
      ****** ****** ****** ****** ****** ****** ****** ****** ****** ******
      ****** ****** ****** ****** ****** ****** ****** ****** ****** ******
   3  ****** ****** ****** ****** ****** ****** ****** ****** ****** ******
      ****** ****** ****** ****** ****** ****** ****** ****** ****** ******
      ****** ****** ****** ****** ****** ****** ****** ****** ****** ******
   4  ****** ****** ****** ****** ****** ****** ****** ****** ****** ******
      ****** ****** ****** ****** ****** ****** ****** ****** ****** ******
      ****** ****** ****** ****** ****** ****** ****** ****** ****** ******
   5  ****** ****** ****** ****** ****** ****** ****** ****** ****** ******
      ****** ****** ****** ****** ****** ****** ****** ****** ****** ******
      ****** ****** ****** ****** ****** ****** ****** ****** ****** ******
   6  ****** ****** ****** ****** ****** ****** ****** ****** ****** ******
      ****** ****** ****** ****** ****** ****** ****** ****** ****** ******
      ****** ****** ****** ****** ****** ****** ****** ****** ****** ******
   7  ****** ****** ****** ****** ****** ****** ****** ****** ****** ******
      ****** ****** ****** ****** ****** ****** ****** ****** ****** ******
      ****** ****** ****** ****** ****** ****** ****** ****** ****** ******
   8  ****** ****** ****** ****** ****** ****** ****** ****** ****** ******
      ****** ****** ****** ****** ****** ****** ****** ****** ****** ******
      ****** ****** ****** ****** ****** ****** ****** ****** ****** ******
   9  ****** ****** ****** ****** ****** ****** ****** ****** ****** ******
      ****** ****** ****** ****** ****** ****** ****** ****** ****** ******
      ****** ****** ****** ****** ****** ****** ****** ****** ****** ******
  10  ****** ****** ****** ****** ****** ****** ****** ****** ****** ******
      ****** ****** ****** ****** ****** ****** ****** ****** ****** ******
      ****** ****** ****** ****** ****** ****** ****** ****** ****** ******
  11  ****** ****** ****** ****** ****** ****** ****** ****** ****** ******
      ****** ****** ****** ****** ****** ****** ****** ****** ****** ******
      ****** ****** ****** ****** ****** ****** ****** ****** ****** ******
  12  ****** ****** ****** ****** ****** ****** ****** ****** ****** ******
      ****** ****** ****** ****** ****** ****** ****** ****** ****** ******
      ****** ****** ****** ****** ****** ****** ****** ****** ****** ******
  13  ****** ****** ****** ****** ****** ****** ****** ****** ****** ******
      ****** ****** ****** ****** ****** ****** ****** ****** ****** ******
      ****** ****** ****** ****** ****** ****** ****** ****** ****** ******
  14  ****** ****** ****** ****** ****** ****** ****** ****** ****** ******
      ****** ****** ****** ****** ****** ****** ****** ****** ****** ******
      ****** ****** ****** ****** ****** ****** ****** ****** ****** ******
  15  ****** ****** ****** ****** ****** ****** ****** ****** ****** ******
      ****** ****** ****** ****** ****** ****** ****** ****** ****** ******
      ****** ****** ****** ****** ****** ****** ****** ****** ****** ******
  16  ****** ****** ****** ****** ****** ****** ****** ****** ****** ******
      ****** ****** ****** ****** ****** ****** ****** ****** ****** ******
      ****** ****** ****** ****** ****** ****** ****** ****** ****** ******
  17  ****** ****** ****** ****** ****** ****** ****** ****** ****** ******
      ****** ****** ****** ****** ****** ****** ****** ****** ****** ******
      ****** ****** ****** ****** ****** ****** ****** ****** ****** ******
  18  ****** ****** ****** ****** ****** ****** ****** ****** ****** ******
      ****** ****** ****** ****** ****** ****** ****** ****** ****** ******
      ****** ****** ****** ****** ****** ****** ****** ****** ****** ******
  19  ****** ****** ****** ****** ****** ****** ****** ****** ****** ******
      ****** ****** ****** ****** ****** ****** ****** ****** ****** ******
      ****** ****** ****** ****** ****** ****** ****** ****** ****** ******
  20  ****** ****** ****** ****** ****** ****** ****** ****** ****** ******
      ****** ****** ****** ****** ****** ****** ****** ****** ****** ******
      ****** ****** ****** ****** ****** ****** ****** ****** ****** ******
  21  ****** ****** ****** ****** ****** ****** ****** ****** ****** ******
      ****** ****** ****** ****** ****** ****** ****** ****** ****** ******
      ****** ****** ****** ****** ****** ****** ****** ****** ****** ******
  22  ****** ****** ****** ****** ****** ****** ****** ****** ****** ******
      ****** ****** ****** ****** ****** ****** ****** ****** ****** ******
      ****** ****** ****** ****** ****** ****** ****** ****** ****** ******
  23  ****** ****** ****** ****** ****** ****** ****** ****** ****** ******
      ****** ****** ****** ****** ****** ****** ****** ****** ****** ******
      ****** ****** ****** ****** ****** ****** ****** ****** ****** ******
  24  ****** ****** ****** ****** ****** ****** ****** ****** ****** ******
      ****** ****** ****** ****** ****** ****** ****** ****** ****** ******
      ****** ****** ****** ****** ****** ****** ****** ****** ****** ******
  25  ****** ****** ****** ****** ****** ****** ****** ****** ****** ******
      ****** ****** ****** ****** ****** ****** ****** ****** ****** ******
      ****** ****** ****** ****** ****** ****** ****** ****** ****** ******

 HEAD WILL BE SAVED ON UNIT   51 AT END OF TIME STEP    1, STRESS PERIOD    7
1
  VOLUMETRIC BUDGET FOR ENTIRE MODEL AT END OF TIME STEP    1, STRESS PERIOD   7
  ------------------------------------------------------------------------------

     CUMULATIVE VOLUMES      L**3       RATES FOR THIS TIME STEP      L**3/T
     ------------------                 ------------------------

           IN:                                      IN:
           ---                                      ---
             STORAGE =    25351609.7148               STORAGE =        8462.1609
       CONSTANT HEAD =   105389234.8169         CONSTANT HEAD =      173344.4344
               WELLS =           0.0000                 WELLS =           0.0000
            RECHARGE =    15097200.0000              RECHARGE =           0.0000
      STREAM LEAKAGE =     4137897.7942        STREAM LEAKAGE =        6895.7096

            TOTAL IN =   149975942.3259              TOTAL IN =      188702.3049

          OUT:                                     OUT:
          ----                                     ----
             STORAGE =     1108439.1900               STORAGE =        1917.6600
       CONSTANT HEAD =           0.0000         CONSTANT HEAD =           0.0000
               WELLS =    57075677.8555                 WELLS =       74349.1446
            RECHARGE =           0.0000              RECHARGE =           0.0000
      STREAM LEAKAGE =    91791826.1430        STREAM LEAKAGE =      112435.5023

           TOTAL OUT =   149975943.1885             TOTAL OUT =      188702.3069

            IN - OUT =          -0.8626              IN - OUT =      -2.0256E-03

 PERCENT DISCREPANCY =          -0.00     PERCENT DISCREPANCY =          -0.00






         TIME SUMMARY AT END OF TIME STEP    1 IN STRESS PERIOD    7
                    SECONDS     MINUTES      HOURS       DAYS        YEARS
                    -----------------------------------------------------------
   TIME STEP LENGTH 7.86240E+06 1.31040E+05  2184.0      91.000     0.24914    
 STRESS PERIOD TIME 7.86240E+06 1.31040E+05  2184.0      91.000     0.24914    
         TOTAL TIME 5.52096E+07 9.20160E+05  15336.      639.00      1.7495    
1
1
                            STRESS PERIOD NO.    8, LENGTH =   91.00000    
                            -----------------------------------------------

                              NUMBER OF TIME STEPS =     1

                               MULTIPLIER FOR DELT =     1.500

                            INITIAL TIME STEP SIZE =   91.00000    

 WELL NO.  LAYER   ROW   COL   STRESS RATE         
 --------------------------------------------------
      1      1      5     14     -0.2088E+05
      2      1      4     17     -0.2248E+05
      3      1      3     26     -0.3099E+05

      3 WELLS

                 RECHARGE =  1.000000E-03

 REUSING STREAM SEGMENT DATA FROM LAST STRESS PERIOD
 
 SOLVING FOR HEAD 


     6 CALLS TO PCG ROUTINE FOR TIME STEP   1 IN STRESS PERIOD    8
    23 TOTAL ITERATIONS

 OUTPUT CONTROL FOR STRESS PERIOD    8   TIME STEP    1
    SAVE BUDGET
    SAVE HEAD FOR ALL LAYERS
    PRINT HEAD FOR ALL LAYERS
 UBDSV2 SAVING "STREAMFLOW OUT  " ON UNIT  50 AT TIME STEP  1, STRESS PERIOD   8



 STREAM LISTING     PERIOD      8   STEP        1

 LAYER ROW COL. STREAM  RCH.  FLOW INTO     FLOW TO   FLOW OUT OF   OVRLND.     DIRECT     STREAM       STREAM     STREAM     STREAM   STREAMBED  STREAMBED
                SEG.NO.  NO.  STRM. RCH.    AQUIFER    STRM. RCH.    RUNOFF     PRECIP       ET          HEAD       DEPTH      WIDTH   CONDCTNC.   GRADIENT

   1   13    1     1     1    1.0000E+05 -2.6509E+03   1.0265E+05  0.000E+00  0.000E+00  0.000E+00  4.84072E+01  1.458E-01  2.000E+01  2.000E+04 -1.325E-01
   1   13    2     1     2    1.0265E+05 -4.4042E+03   1.0706E+05  0.000E+00  0.000E+00  0.000E+00  4.79329E+01  1.488E-01  2.000E+01  2.000E+04 -2.202E-01
   1   14    3     1     3    1.0706E+05 -3.5745E+03   1.1063E+05  0.000E+00  0.000E+00  0.000E+00  4.74590E+01  1.522E-01  2.000E+01  2.000E+04 -1.787E-01
   1   15    4     1     4    1.1063E+05 -3.5412E+03   1.1417E+05  0.000E+00  0.000E+00  0.000E+00  4.69847E+01  1.552E-01  2.000E+01  2.000E+04 -1.771E-01
   1   16    5     1     5    1.1417E+05 -4.0092E+03   1.1818E+05  0.000E+00  0.000E+00  0.000E+00  4.65105E+01  1.583E-01  2.000E+01  2.000E+04 -2.005E-01
   1   16    6     1     6    1.1818E+05 -3.0972E+03   1.2128E+05  0.000E+00  0.000E+00  0.000E+00  4.60362E+01  1.612E-01  2.000E+01  2.000E+04 -1.549E-01
   1   16    7     1     7    1.2128E+05 -3.1287E+03   1.2441E+05  0.000E+00  0.000E+00  0.000E+00  4.55614E+01  1.637E-01  2.000E+01  2.000E+04 -1.564E-01
   1   16    8     1     8    1.2441E+05 -3.1427E+03   1.2755E+05  0.000E+00  0.000E+00  0.000E+00  4.50866E+01  1.661E-01  2.000E+01  2.000E+04 -1.571E-01
   1   16    9     1     9    1.2755E+05 -3.1269E+03   1.3068E+05  0.000E+00  0.000E+00  0.000E+00  4.46118E+01  1.686E-01  2.000E+01  2.000E+04 -1.563E-01
   1   16   10     1    10    1.3068E+05 -3.0912E+03   1.3377E+05  0.000E+00  0.000E+00  0.000E+00  4.41370E+01  1.710E-01  2.000E+01  2.000E+04 -1.546E-01
   1   16   11     1    11    1.3377E+05 -3.0750E+03   1.3684E+05  0.000E+00  0.000E+00  0.000E+00  4.36621E+01  1.734E-01  2.000E+01  2.000E+04 -1.538E-01
   1   16   12     1    12    1.3684E+05 -4.2323E+03   1.4107E+05  0.000E+00  0.000E+00  0.000E+00  4.31876E+01  1.762E-01  2.000E+01  2.000E+04 -2.116E-01
   1   15   13     1    13    1.4107E+05 -3.6097E+03   1.4468E+05  0.000E+00  0.000E+00  0.000E+00  4.27133E+01  1.792E-01  2.000E+01  2.000E+04 -1.805E-01
   1   14   14     1    14    1.4468E+05 -3.3876E+03   1.4807E+05  0.000E+00  0.000E+00  0.000E+00  4.22386E+01  1.818E-01  2.000E+01  2.000E+04 -1.694E-01
   1   13   15     1    15    1.4807E+05 -3.2633E+03   1.5133E+05  0.000E+00  0.000E+00  0.000E+00  4.17638E+01  1.843E-01  2.000E+01  2.000E+04 -1.632E-01
   1   12   16     1    16    1.5133E+05 -3.5137E+03   1.5485E+05  0.000E+00  0.000E+00  0.000E+00  4.12890E+01  1.868E-01  2.000E+01  2.000E+04 -1.757E-01
   1   12   17     1    17    1.5485E+05 -2.4378E+03   1.5729E+05  0.000E+00  0.000E+00  0.000E+00  4.08139E+01  1.889E-01  2.000E+01  2.000E+04 -1.219E-01
   1   12   18     1    18    1.5729E+05 -2.4138E+03   1.5970E+05  0.000E+00  0.000E+00  0.000E+00  4.03384E+01  1.907E-01  2.000E+01  2.000E+04 -1.207E-01
   1   12   19     1    19    1.5970E+05 -3.1561E+03   1.6286E+05  0.000E+00  0.000E+00  0.000E+00  3.98631E+01  1.927E-01  2.000E+01  2.000E+04 -1.578E-01
   1   13   20     1    20    1.6286E+05 -2.5595E+03   1.6542E+05  0.000E+00  0.000E+00  0.000E+00  3.93879E+01  1.947E-01  2.000E+01  2.000E+04 -1.280E-01
   1   14   21     1    21    1.6542E+05 -2.2832E+03   1.6770E+05  0.000E+00  0.000E+00  0.000E+00  3.89124E+01  1.965E-01  2.000E+01  2.000E+04 -1.142E-01
   1   14   22     1    22    1.6770E+05  5.1077E+03   1.6259E+05  0.000E+00  0.000E+00  0.000E+00  3.84341E+01  1.955E-01  2.000E+01  2.000E+04  2.554E-01
   1    9   30     2     1    5.0000E+04 -1.9035E+03   5.1904E+04  0.000E+00  0.000E+00  0.000E+00  4.02422E+01  1.172E-01  2.000E+01  2.000E+04 -9.518E-02
   1    9   29     2     2    5.1904E+04 -2.1668E+03   5.4070E+04  0.000E+00  0.000E+00  0.000E+00  3.99950E+01  1.200E-01  2.000E+01  2.000E+04 -1.083E-01
   1    9   28     2     3    5.4070E+04 -2.3949E+03   5.6465E+04  0.000E+00  0.000E+00  0.000E+00  3.97480E+01  1.230E-01  2.000E+01  2.000E+04 -1.197E-01
   1    9   27     2     4    5.6465E+04 -4.2542E+03   6.0719E+04  0.000E+00  0.000E+00  0.000E+00  3.95024E+01  1.274E-01  2.000E+01  2.000E+04 -2.127E-01
   1   10   26     2     5    6.0719E+04 -2.5803E+03   6.3300E+04  0.000E+00  0.000E+00  0.000E+00  3.92568E+01  1.318E-01  2.000E+01  2.000E+04 -1.290E-01
   1   11   25     2     6    6.3300E+04 -1.8419E+03   6.5141E+04  0.000E+00  0.000E+00  0.000E+00  3.90096E+01  1.346E-01  2.000E+01  2.000E+04 -9.209E-02
   1   12   24     2     7    6.5141E+04 -1.2372E+03   6.6379E+04  0.000E+00  0.000E+00  0.000E+00  3.87616E+01  1.366E-01  2.000E+01  2.000E+04 -6.186E-02
   1   13   23     2     8    6.6379E+04 -6.8710E+02   6.7066E+04  0.000E+00  0.000E+00  0.000E+00  3.85128E+01  1.378E-01  2.000E+01  2.000E+04 -3.435E-02
   1   14   22     2     9    6.7066E+04  1.6690E+03   6.5397E+04  0.000E+00  0.000E+00  0.000E+00  3.82622E+01  1.372E-01  2.000E+01  2.000E+04  8.345E-02
   1   14   22     3     1    2.2799E+05 -8.4830E+03   2.3647E+05  0.000E+00  0.000E+00  0.000E+00  3.77546E+01  1.990E-01  2.000E+01  2.000E+04 -4.241E-01
   1   15   23     3     2    2.3647E+05 -3.1436E+03   2.3961E+05  0.000E+00  0.000E+00  0.000E+00  3.68686E+01  2.020E-01  2.000E+01  2.000E+04 -1.572E-01
   1   15   24     3     3    2.3961E+05 -2.1501E+03   2.4176E+05  0.000E+00  0.000E+00  0.000E+00  3.59811E+01  2.033E-01  2.000E+01  2.000E+04 -1.075E-01
   1   15   25     3     4    2.4176E+05 -2.0151E+03   2.4378E+05  0.000E+00  0.000E+00  0.000E+00  3.50933E+01  2.044E-01  2.000E+01  2.000E+04 -1.008E-01
   1   15   26     3     5    2.4378E+05 -2.3631E+03   2.4614E+05  0.000E+00  0.000E+00  0.000E+00  3.42055E+01  2.055E-01  2.000E+01  2.000E+04 -1.182E-01
   1   16   27     3     6    2.4614E+05 -3.3450E+03   2.4949E+05  0.000E+00  0.000E+00  0.000E+00  3.33180E+01  2.069E-01  2.000E+01  2.000E+04 -1.672E-01
   1   17   28     3     7    2.4949E+05 -4.1730E+03   2.5366E+05  0.000E+00  0.000E+00  0.000E+00  3.24310E+01  2.088E-01  2.000E+01  2.000E+04 -2.087E-01
   1   18   29     3     8    2.5366E+05 -5.8506E+03   2.5951E+05  0.000E+00  0.000E+00  0.000E+00  3.15446E+01  2.113E-01  2.000E+01  2.000E+04 -2.925E-01
   1   18   30     3     9    2.5951E+05 -4.8620E+03   2.6437E+05  0.000E+00  0.000E+00  0.000E+00  3.06584E+01  2.139E-01  2.000E+01  2.000E+04 -2.431E-01



1
              HEAD IN LAYER   1 AT END OF TIME STEP   1 IN STRESS PERIOD    8
  ---------------------------------------------------------------------------

          1      2      3      4      5      6      7      8      9     10
         11     12     13     14     15     16     17     18     19     20
         21     22     23     24     25     26     27     28     29     30
 .........................................................................
   1  ****** ****** ****** ****** ****** ****** ****** ****** ****** ******
      ****** ****** ****** ****** ****** ****** ****** ****** ****** ******
      ****** ****** ****** ****** ****** ****** ****** ****** ****** ******
   2  ****** ****** ****** ****** ****** ****** ****** ****** ****** ******
      ****** ****** ****** ****** ****** ****** ****** ****** ****** ******
      ****** ****** ****** ****** ****** ****** ****** ****** ****** ******
   3  ****** ****** ****** ****** ****** ****** ****** ****** ****** ******
      ****** ****** ****** ****** ****** ****** ****** ****** ****** ******
      ****** ****** ****** ****** ****** ****** ****** ****** ****** ******
   4  ****** ****** ****** ****** ****** ****** ****** ****** ****** ******
      ****** ****** ****** ****** ****** ****** ****** ****** ****** ******
      ****** ****** ****** ****** ****** ****** ****** ****** ****** ******
   5  ****** ****** ****** ****** ****** ****** ****** ****** ****** ******
      ****** ****** ****** ****** ****** ****** ****** ****** ****** ******
      ****** ****** ****** ****** ****** ****** ****** ****** ****** ******
   6  ****** ****** ****** ****** ****** ****** ****** ****** ****** ******
      ****** ****** ****** ****** ****** ****** ****** ****** ****** ******
      ****** ****** ****** ****** ****** ****** ****** ****** ****** ******
   7  ****** ****** ****** ****** ****** ****** ****** ****** ****** ******
      ****** ****** ****** ****** ****** ****** ****** ****** ****** ******
      ****** ****** ****** ****** ****** ****** ****** ****** ****** ******
   8  ****** ****** ****** ****** ****** ****** ****** ****** ****** ******
      ****** ****** ****** ****** ****** ****** ****** ****** ****** ******
      ****** ****** ****** ****** ****** ****** ****** ****** ****** ******
   9  ****** ****** ****** ****** ****** ****** ****** ****** ****** ******
      ****** ****** ****** ****** ****** ****** ****** ****** ****** ******
      ****** ****** ****** ****** ****** ****** ****** ****** ****** ******
  10  ****** ****** ****** ****** ****** ****** ****** ****** ****** ******
      ****** ****** ****** ****** ****** ****** ****** ****** ****** ******
      ****** ****** ****** ****** ****** ****** ****** ****** ****** ******
  11  ****** ****** ****** ****** ****** ****** ****** ****** ****** ******
      ****** ****** ****** ****** ****** ****** ****** ****** ****** ******
      ****** ****** ****** ****** ****** ****** ****** ****** ****** ******
  12  ****** ****** ****** ****** ****** ****** ****** ****** ****** ******
      ****** ****** ****** ****** ****** ****** ****** ****** ****** ******
      ****** ****** ****** ****** ****** ****** ****** ****** ****** ******
  13  ****** ****** ****** ****** ****** ****** ****** ****** ****** ******
      ****** ****** ****** ****** ****** ****** ****** ****** ****** ******
      ****** ****** ****** ****** ****** ****** ****** ****** ****** ******
  14  ****** ****** ****** ****** ****** ****** ****** ****** ****** ******
      ****** ****** ****** ****** ****** ****** ****** ****** ****** ******
      ****** ****** ****** ****** ****** ****** ****** ****** ****** ******
  15  ****** ****** ****** ****** ****** ****** ****** ****** ****** ******
      ****** ****** ****** ****** ****** ****** ****** ****** ****** ******
      ****** ****** ****** ****** ****** ****** ****** ****** ****** ******
  16  ****** ****** ****** ****** ****** ****** ****** ****** ****** ******
      ****** ****** ****** ****** ****** ****** ****** ****** ****** ******
      ****** ****** ****** ****** ****** ****** ****** ****** ****** ******
  17  ****** ****** ****** ****** ****** ****** ****** ****** ****** ******
      ****** ****** ****** ****** ****** ****** ****** ****** ****** ******
      ****** ****** ****** ****** ****** ****** ****** ****** ****** ******
  18  ****** ****** ****** ****** ****** ****** ****** ****** ****** ******
      ****** ****** ****** ****** ****** ****** ****** ****** ****** ******
      ****** ****** ****** ****** ****** ****** ****** ****** ****** ******
  19  ****** ****** ****** ****** ****** ****** ****** ****** ****** ******
      ****** ****** ****** ****** ****** ****** ****** ****** ****** ******
      ****** ****** ****** ****** ****** ****** ****** ****** ****** ******
  20  ****** ****** ****** ****** ****** ****** ****** ****** ****** ******
      ****** ****** ****** ****** ****** ****** ****** ****** ****** ******
      ****** ****** ****** ****** ****** ****** ****** ****** ****** ******
  21  ****** ****** ****** ****** ****** ****** ****** ****** ****** ******
      ****** ****** ****** ****** ****** ****** ****** ****** ****** ******
      ****** ****** ****** ****** ****** ****** ****** ****** ****** ******
  22  ****** ****** ****** ****** ****** ****** ****** ****** ****** ******
      ****** ****** ****** ****** ****** ****** ****** ****** ****** ******
      ****** ****** ****** ****** ****** ****** ****** ****** ****** ******
  23  ****** ****** ****** ****** ****** ****** ****** ****** ****** ******
      ****** ****** ****** ****** ****** ****** ****** ****** ****** ******
      ****** ****** ****** ****** ****** ****** ****** ****** ****** ******
  24  ****** ****** ****** ****** ****** ****** ****** ****** ****** ******
      ****** ****** ****** ****** ****** ****** ****** ****** ****** ******
      ****** ****** ****** ****** ****** ****** ****** ****** ****** ******
  25  ****** ****** ****** ****** ****** ****** ****** ****** ****** ******
      ****** ****** ****** ****** ****** ****** ****** ****** ****** ******
      ****** ****** ****** ****** ****** ****** ****** ****** ****** ******

 HEAD WILL BE SAVED ON UNIT   51 AT END OF TIME STEP    1, STRESS PERIOD    8
1
  VOLUMETRIC BUDGET FOR ENTIRE MODEL AT END OF TIME STEP    1, STRESS PERIOD   8
  ------------------------------------------------------------------------------

     CUMULATIVE VOLUMES      L**3       RATES FOR THIS TIME STEP      L**3/T
     ------------------                 ------------------------

           IN:                                      IN:
           ---                                      ---
             STORAGE =    25351609.7148               STORAGE =           0.0000
       CONSTANT HEAD =   120560002.1427         CONSTANT HEAD =      166711.7289
               WELLS =           0.0000                 WELLS =           0.0000
            RECHARGE =    17608800.0000              RECHARGE =       27600.0000
      STREAM LEAKAGE =     4754580.2611        STREAM LEAKAGE =        6776.7304

            TOTAL IN =   168274992.1186              TOTAL IN =      201088.4593

          OUT:                                     OUT:
          ----                                     ----
             STORAGE =     1617061.2182               STORAGE =        5589.2531
       CONSTANT HEAD =           0.0000         CONSTANT HEAD =           0.0000
               WELLS =    63841450.0143                 WELLS =       74349.1446
            RECHARGE =           0.0000              RECHARGE =           0.0000
      STREAM LEAKAGE =   102816481.6651        STREAM LEAKAGE =      121150.0607

           TOTAL OUT =   168274992.8976             TOTAL OUT =      201088.4583

            IN - OUT =          -0.7790              IN - OUT =       9.1831E-04

 PERCENT DISCREPANCY =          -0.00     PERCENT DISCREPANCY =           0.00






         TIME SUMMARY AT END OF TIME STEP    1 IN STRESS PERIOD    8
                    SECONDS     MINUTES      HOURS       DAYS        YEARS
                    -----------------------------------------------------------
   TIME STEP LENGTH 7.86240E+06 1.31040E+05  2184.0      91.000     0.24914    
 STRESS PERIOD TIME 7.86240E+06 1.31040E+05  2184.0      91.000     0.24914    
         TOTAL TIME 6.30720E+07 1.05120E+06  17520.      730.00      1.9986    
1
1
                            STRESS PERIOD NO.    9, LENGTH =   92.00000    
                            -----------------------------------------------

                              NUMBER OF TIME STEPS =     1

                               MULTIPLIER FOR DELT =     1.500

                            INITIAL TIME STEP SIZE =   92.00000    

 WELL NO.  LAYER   ROW   COL   STRESS RATE         
 --------------------------------------------------
      1      1      5     14     -0.2088E+05
      2      1      4     17     -0.2248E+05
      3      1      3     26     -0.3099E+05

      3 WELLS

                 RECHARGE =  5.000000E-04

 REUSING STREAM SEGMENT DATA FROM LAST STRESS PERIOD
 
 SOLVING FOR HEAD 


     6 CALLS TO PCG ROUTINE FOR TIME STEP   1 IN STRESS PERIOD    9
    22 TOTAL ITERATIONS

 OUTPUT CONTROL FOR STRESS PERIOD    9   TIME STEP    1
    SAVE BUDGET
    SAVE HEAD FOR ALL LAYERS
    PRINT HEAD FOR ALL LAYERS
 UBDSV2 SAVING "STREAMFLOW OUT  " ON UNIT  50 AT TIME STEP  1, STRESS PERIOD   9



 STREAM LISTING     PERIOD      9   STEP        1

 LAYER ROW COL. STREAM  RCH.  FLOW INTO     FLOW TO   FLOW OUT OF   OVRLND.     DIRECT     STREAM       STREAM     STREAM     STREAM   STREAMBED  STREAMBED
                SEG.NO.  NO.  STRM. RCH.    AQUIFER    STRM. RCH.    RUNOFF     PRECIP       ET          HEAD       DEPTH      WIDTH   CONDCTNC.   GRADIENT

   1   13    1     1     1    1.0000E+05 -2.5447E+03   1.0254E+05  0.000E+00  0.000E+00  0.000E+00  4.84071E+01  1.458E-01  2.000E+01  2.000E+04 -1.272E-01
   1   13    2     1     2    1.0254E+05 -4.2688E+03   1.0681E+05  0.000E+00  0.000E+00  0.000E+00  4.79328E+01  1.487E-01  2.000E+01  2.000E+04 -2.134E-01
   1   14    3     1     3    1.0681E+05 -3.4325E+03   1.1025E+05  0.000E+00  0.000E+00  0.000E+00  4.74588E+01  1.519E-01  2.000E+01  2.000E+04 -1.716E-01
   1   15    4     1     4    1.1025E+05 -3.3993E+03   1.1365E+05  0.000E+00  0.000E+00  0.000E+00  4.69843E+01  1.548E-01  2.000E+01  2.000E+04 -1.700E-01
   1   16    5     1     5    1.1365E+05 -3.8762E+03   1.1752E+05  0.000E+00  0.000E+00  0.000E+00  4.65101E+01  1.578E-01  2.000E+01  2.000E+04 -1.938E-01
   1   16    6     1     6    1.1752E+05 -2.9935E+03   1.2051E+05  0.000E+00  0.000E+00  0.000E+00  4.60356E+01  1.606E-01  2.000E+01  2.000E+04 -1.497E-01
   1   16    7     1     7    1.2051E+05 -3.0246E+03   1.2354E+05  0.000E+00  0.000E+00  0.000E+00  4.55607E+01  1.630E-01  2.000E+01  2.000E+04 -1.512E-01
   1   16    8     1     8    1.2354E+05 -3.0387E+03   1.2658E+05  0.000E+00  0.000E+00  0.000E+00  4.50859E+01  1.654E-01  2.000E+01  2.000E+04 -1.519E-01
   1   16    9     1     9    1.2658E+05 -3.0236E+03   1.2960E+05  0.000E+00  0.000E+00  0.000E+00  4.46110E+01  1.678E-01  2.000E+01  2.000E+04 -1.512E-01
   1   16   10     1    10    1.2960E+05 -2.9890E+03   1.3259E+05  0.000E+00  0.000E+00  0.000E+00  4.41361E+01  1.702E-01  2.000E+01  2.000E+04 -1.495E-01
   1   16   11     1    11    1.3259E+05 -2.9738E+03   1.3556E+05  0.000E+00  0.000E+00  0.000E+00  4.36611E+01  1.725E-01  2.000E+01  2.000E+04 -1.487E-01
   1   16   12     1    12    1.3556E+05 -4.0998E+03   1.3966E+05  0.000E+00  0.000E+00  0.000E+00  4.31866E+01  1.752E-01  2.000E+01  2.000E+04 -2.050E-01
   1   15   13     1    13    1.3966E+05 -3.4722E+03   1.4314E+05  0.000E+00  0.000E+00  0.000E+00  4.27122E+01  1.781E-01  2.000E+01  2.000E+04 -1.736E-01
   1   14   14     1    14    1.4314E+05 -3.2542E+03   1.4639E+05  0.000E+00  0.000E+00  0.000E+00  4.22374E+01  1.806E-01  2.000E+01  2.000E+04 -1.627E-01
   1   13   15     1    15    1.4639E+05 -3.1410E+03   1.4953E+05  0.000E+00  0.000E+00  0.000E+00  4.17625E+01  1.830E-01  2.000E+01  2.000E+04 -1.571E-01
   1   12   16     1    16    1.4953E+05 -3.4184E+03   1.5295E+05  0.000E+00  0.000E+00  0.000E+00  4.12877E+01  1.854E-01  2.000E+01  2.000E+04 -1.709E-01
   1   12   17     1    17    1.5295E+05 -2.3591E+03   1.5531E+05  0.000E+00  0.000E+00  0.000E+00  4.08125E+01  1.875E-01  2.000E+01  2.000E+04 -1.180E-01
   1   12   18     1    18    1.5531E+05 -2.3350E+03   1.5764E+05  0.000E+00  0.000E+00  0.000E+00  4.03370E+01  1.892E-01  2.000E+01  2.000E+04 -1.168E-01
   1   12   19     1    19    1.5764E+05 -3.0644E+03   1.6071E+05  0.000E+00  0.000E+00  0.000E+00  3.98616E+01  1.912E-01  2.000E+01  2.000E+04 -1.532E-01
   1   13   20     1    20    1.6071E+05 -2.4477E+03   1.6316E+05  0.000E+00  0.000E+00  0.000E+00  3.93863E+01  1.932E-01  2.000E+01  2.000E+04 -1.224E-01
   1   14   21     1    21    1.6316E+05 -2.1714E+03   1.6533E+05  0.000E+00  0.000E+00  0.000E+00  3.89107E+01  1.948E-01  2.000E+01  2.000E+04 -1.086E-01
   1   14   22     1    22    1.6533E+05  5.1294E+03   1.6020E+05  0.000E+00  0.000E+00  0.000E+00  3.84324E+01  1.938E-01  2.000E+01  2.000E+04  2.565E-01
   1    9   30     2     1    5.0000E+04 -1.8218E+03   5.1822E+04  0.000E+00  0.000E+00  0.000E+00  4.02421E+01  1.171E-01  2.000E+01  2.000E+04 -9.109E-02
   1    9   29     2     2    5.1822E+04 -2.0868E+03   5.3909E+04  0.000E+00  0.000E+00  0.000E+00  3.99948E+01  1.198E-01  2.000E+01  2.000E+04 -1.043E-01
   1    9   28     2     3    5.3909E+04 -2.3179E+03   5.6226E+04  0.000E+00  0.000E+00  0.000E+00  3.97478E+01  1.228E-01  2.000E+01  2.000E+04 -1.159E-01
   1    9   27     2     4    5.6226E+04 -4.1651E+03   6.0392E+04  0.000E+00  0.000E+00  0.000E+00  3.95021E+01  1.271E-01  2.000E+01  2.000E+04 -2.083E-01
   1   10   26     2     5    6.0392E+04 -2.4749E+03   6.2866E+04  0.000E+00  0.000E+00  0.000E+00  3.92564E+01  1.314E-01  2.000E+01  2.000E+04 -1.237E-01
   1   11   25     2     6    6.2866E+04 -1.7368E+03   6.4603E+04  0.000E+00  0.000E+00  0.000E+00  3.90090E+01  1.340E-01  2.000E+01  2.000E+04 -8.684E-02
   1   12   24     2     7    6.4603E+04 -1.1406E+03   6.5744E+04  0.000E+00  0.000E+00  0.000E+00  3.87608E+01  1.358E-01  2.000E+01  2.000E+04 -5.703E-02
   1   13   23     2     8    6.5744E+04 -6.0722E+02   6.6351E+04  0.000E+00  0.000E+00  0.000E+00  3.85119E+01  1.369E-01  2.000E+01  2.000E+04 -3.036E-02
   1   14   22     2     9    6.6351E+04  1.7064E+03   6.4645E+04  0.000E+00  0.000E+00  0.000E+00  3.82612E+01  1.362E-01  2.000E+01  2.000E+04  8.532E-02
   1   14   22     3     1    2.2484E+05 -8.4599E+03   2.3330E+05  0.000E+00  0.000E+00  0.000E+00  3.77529E+01  1.974E-01  2.000E+01  2.000E+04 -4.230E-01
   1   15   23     3     2    2.3330E+05 -3.0342E+03   2.3634E+05  0.000E+00  0.000E+00  0.000E+00  3.68670E+01  2.003E-01  2.000E+01  2.000E+04 -1.517E-01
   1   15   24     3     3    2.3634E+05 -2.0687E+03   2.3841E+05  0.000E+00  0.000E+00  0.000E+00  3.59794E+01  2.016E-01  2.000E+01  2.000E+04 -1.034E-01
   1   15   25     3     4    2.3841E+05 -1.9328E+03   2.4034E+05  0.000E+00  0.000E+00  0.000E+00  3.50915E+01  2.026E-01  2.000E+01  2.000E+04 -9.664E-02
   1   15   26     3     5    2.4034E+05 -2.2580E+03   2.4260E+05  0.000E+00  0.000E+00  0.000E+00  3.42037E+01  2.037E-01  2.000E+01  2.000E+04 -1.129E-01
   1   16   27     3     6    2.4260E+05 -3.2151E+03   2.4581E+05  0.000E+00  0.000E+00  0.000E+00  3.33162E+01  2.051E-01  2.000E+01  2.000E+04 -1.608E-01
   1   17   28     3     7    2.4581E+05 -4.0409E+03   2.4985E+05  0.000E+00  0.000E+00  0.000E+00  3.24291E+01  2.069E-01  2.000E+01  2.000E+04 -2.020E-01
   1   18   29     3     8    2.4985E+05 -5.7278E+03   2.5558E+05  0.000E+00  0.000E+00  0.000E+00  3.15427E+01  2.094E-01  2.000E+01  2.000E+04 -2.864E-01
   1   18   30     3     9    2.5558E+05 -4.7678E+03   2.6035E+05  0.000E+00  0.000E+00  0.000E+00  3.06564E+01  2.120E-01  2.000E+01  2.000E+04 -2.384E-01



1
              HEAD IN LAYER   1 AT END OF TIME STEP   1 IN STRESS PERIOD    9
  ---------------------------------------------------------------------------

          1      2      3      4      5      6      7      8      9     10
         11     12     13     14     15     16     17     18     19     20
         21     22     23     24     25     26     27     28     29     30
 .........................................................................
   1  ****** ****** ****** ****** ****** ****** ****** ****** ****** ******
      ****** ****** ****** ****** ****** ****** ****** ****** ****** ******
      ****** ****** ****** ****** ****** ****** ****** ****** ****** ******
   2  ****** ****** ****** ****** ****** ****** ****** ****** ****** ******
      ****** ****** ****** ****** ****** ****** ****** ****** ****** ******
      ****** ****** ****** ****** ****** ****** ****** ****** ****** ******
   3  ****** ****** ****** ****** ****** ****** ****** ****** ****** ******
      ****** ****** ****** ****** ****** ****** ****** ****** ****** ******
      ****** ****** ****** ****** ****** ****** ****** ****** ****** ******
   4  ****** ****** ****** ****** ****** ****** ****** ****** ****** ******
      ****** ****** ****** ****** ****** ****** ****** ****** ****** ******
      ****** ****** ****** ****** ****** ****** ****** ****** ****** ******
   5  ****** ****** ****** ****** ****** ****** ****** ****** ****** ******
      ****** ****** ****** ****** ****** ****** ****** ****** ****** ******
      ****** ****** ****** ****** ****** ****** ****** ****** ****** ******
   6  ****** ****** ****** ****** ****** ****** ****** ****** ****** ******
      ****** ****** ****** ****** ****** ****** ****** ****** ****** ******
      ****** ****** ****** ****** ****** ****** ****** ****** ****** ******
   7  ****** ****** ****** ****** ****** ****** ****** ****** ****** ******
      ****** ****** ****** ****** ****** ****** ****** ****** ****** ******
      ****** ****** ****** ****** ****** ****** ****** ****** ****** ******
   8  ****** ****** ****** ****** ****** ****** ****** ****** ****** ******
      ****** ****** ****** ****** ****** ****** ****** ****** ****** ******
      ****** ****** ****** ****** ****** ****** ****** ****** ****** ******
   9  ****** ****** ****** ****** ****** ****** ****** ****** ****** ******
      ****** ****** ****** ****** ****** ****** ****** ****** ****** ******
      ****** ****** ****** ****** ****** ****** ****** ****** ****** ******
  10  ****** ****** ****** ****** ****** ****** ****** ****** ****** ******
      ****** ****** ****** ****** ****** ****** ****** ****** ****** ******
      ****** ****** ****** ****** ****** ****** ****** ****** ****** ******
  11  ****** ****** ****** ****** ****** ****** ****** ****** ****** ******
      ****** ****** ****** ****** ****** ****** ****** ****** ****** ******
      ****** ****** ****** ****** ****** ****** ****** ****** ****** ******
  12  ****** ****** ****** ****** ****** ****** ****** ****** ****** ******
      ****** ****** ****** ****** ****** ****** ****** ****** ****** ******
      ****** ****** ****** ****** ****** ****** ****** ****** ****** ******
  13  ****** ****** ****** ****** ****** ****** ****** ****** ****** ******
      ****** ****** ****** ****** ****** ****** ****** ****** ****** ******
      ****** ****** ****** ****** ****** ****** ****** ****** ****** ******
  14  ****** ****** ****** ****** ****** ****** ****** ****** ****** ******
      ****** ****** ****** ****** ****** ****** ****** ****** ****** ******
      ****** ****** ****** ****** ****** ****** ****** ****** ****** ******
  15  ****** ****** ****** ****** ****** ****** ****** ****** ****** ******
      ****** ****** ****** ****** ****** ****** ****** ****** ****** ******
      ****** ****** ****** ****** ****** ****** ****** ****** ****** ******
  16  ****** ****** ****** ****** ****** ****** ****** ****** ****** ******
      ****** ****** ****** ****** ****** ****** ****** ****** ****** ******
      ****** ****** ****** ****** ****** ****** ****** ****** ****** ******
  17  ****** ****** ****** ****** ****** ****** ****** ****** ****** ******
      ****** ****** ****** ****** ****** ****** ****** ****** ****** ******
      ****** ****** ****** ****** ****** ****** ****** ****** ****** ******
  18  ****** ****** ****** ****** ****** ****** ****** ****** ****** ******
      ****** ****** ****** ****** ****** ****** ****** ****** ****** ******
      ****** ****** ****** ****** ****** ****** ****** ****** ****** ******
  19  ****** ****** ****** ****** ****** ****** ****** ****** ****** ******
      ****** ****** ****** ****** ****** ****** ****** ****** ****** ******
      ****** ****** ****** ****** ****** ****** ****** ****** ****** ******
  20  ****** ****** ****** ****** ****** ****** ****** ****** ****** ******
      ****** ****** ****** ****** ****** ****** ****** ****** ****** ******
      ****** ****** ****** ****** ****** ****** ****** ****** ****** ******
  21  ****** ****** ****** ****** ****** ****** ****** ****** ****** ******
      ****** ****** ****** ****** ****** ****** ****** ****** ****** ******
      ****** ****** ****** ****** ****** ****** ****** ****** ****** ******
  22  ****** ****** ****** ****** ****** ****** ****** ****** ****** ******
      ****** ****** ****** ****** ****** ****** ****** ****** ****** ******
      ****** ****** ****** ****** ****** ****** ****** ****** ****** ******
  23  ****** ****** ****** ****** ****** ****** ****** ****** ****** ******
      ****** ****** ****** ****** ****** ****** ****** ****** ****** ******
      ****** ****** ****** ****** ****** ****** ****** ****** ****** ******
  24  ****** ****** ****** ****** ****** ****** ****** ****** ****** ******
      ****** ****** ****** ****** ****** ****** ****** ****** ****** ******
      ****** ****** ****** ****** ****** ****** ****** ****** ****** ******
  25  ****** ****** ****** ****** ****** ****** ****** ****** ****** ******
      ****** ****** ****** ****** ****** ****** ****** ****** ****** ******
      ****** ****** ****** ****** ****** ****** ****** ****** ****** ******

 HEAD WILL BE SAVED ON UNIT   51 AT END OF TIME STEP    1, STRESS PERIOD    9
1
  VOLUMETRIC BUDGET FOR ENTIRE MODEL AT END OF TIME STEP    1, STRESS PERIOD   9
  ------------------------------------------------------------------------------

     CUMULATIVE VOLUMES      L**3       RATES FOR THIS TIME STEP      L**3/T
     ------------------                 ------------------------

           IN:                                      IN:
           ---                                      ---
             STORAGE =    25531872.8078               STORAGE =        1959.3814
       CONSTANT HEAD =   136102326.4925         CONSTANT HEAD =      168938.3082
               WELLS =           0.0000                 WELLS =           0.0000
            RECHARGE =    18878400.0000              RECHARGE =       13800.0000
      STREAM LEAKAGE =     5383469.7566        STREAM LEAKAGE =        6835.7554

            TOTAL IN =   185896069.0569              TOTAL IN =      191533.4450

          OUT:                                     OUT:
          ----                                     ----
             STORAGE =     1617061.2182               STORAGE =           0.0000
       CONSTANT HEAD =           0.0000         CONSTANT HEAD =           0.0000
               WELLS =    70681571.3177                 WELLS =       74349.1446
            RECHARGE =           0.0000              RECHARGE =           0.0000
      STREAM LEAKAGE =   113597437.5551        STREAM LEAKAGE =      117184.3032

           TOTAL OUT =   185896070.0910             TOTAL OUT =      191533.4478

            IN - OUT =          -1.0340              IN - OUT =      -2.7718E-03

 PERCENT DISCREPANCY =          -0.00     PERCENT DISCREPANCY =          -0.00






         TIME SUMMARY AT END OF TIME STEP    1 IN STRESS PERIOD    9
                    SECONDS     MINUTES      HOURS       DAYS        YEARS
                    -----------------------------------------------------------
   TIME STEP LENGTH 7.94880E+06 1.32480E+05  2208.0      92.000     0.25188    
 STRESS PERIOD TIME 7.94880E+06 1.32480E+05  2208.0      92.000     0.25188    
         TOTAL TIME 7.10208E+07 1.18368E+06  19728.      822.00      2.2505    
1
1
                            STRESS PERIOD NO.   10, LENGTH =   91.00000    
                            -----------------------------------------------

                              NUMBER OF TIME STEPS =     1

                               MULTIPLIER FOR DELT =     1.500

                            INITIAL TIME STEP SIZE =   91.00000    

 WELL NO.  LAYER   ROW   COL   STRESS RATE         
 --------------------------------------------------
      1      1      5     14     -0.2088E+05
      2      1      4     17     -0.2248E+05
      3      1      3     26     -0.3099E+05

      3 WELLS

                 RECHARGE =  2.000000E-03

 REUSING STREAM SEGMENT DATA FROM LAST STRESS PERIOD
 
 SOLVING FOR HEAD 


     7 CALLS TO PCG ROUTINE FOR TIME STEP   1 IN STRESS PERIOD   10
    26 TOTAL ITERATIONS

 OUTPUT CONTROL FOR STRESS PERIOD   10   TIME STEP    1
    SAVE BUDGET
    SAVE HEAD FOR ALL LAYERS
    PRINT HEAD FOR ALL LAYERS
 UBDSV2 SAVING "STREAMFLOW OUT  " ON UNIT  50 AT TIME STEP  1, STRESS PERIOD  10



 STREAM LISTING     PERIOD     10   STEP        1

 LAYER ROW COL. STREAM  RCH.  FLOW INTO     FLOW TO   FLOW OUT OF   OVRLND.     DIRECT     STREAM       STREAM     STREAM     STREAM   STREAMBED  STREAMBED
                SEG.NO.  NO.  STRM. RCH.    AQUIFER    STRM. RCH.    RUNOFF     PRECIP       ET          HEAD       DEPTH      WIDTH   CONDCTNC.   GRADIENT

   1   13    1     1     1    1.0000E+05 -2.9734E+03   1.0297E+05  0.000E+00  0.000E+00  0.000E+00  4.84073E+01  1.459E-01  2.000E+01  2.000E+04 -1.487E-01
   1   13    2     1     2    1.0297E+05 -4.8405E+03   1.0781E+05  0.000E+00  0.000E+00  0.000E+00  4.79334E+01  1.493E-01  2.000E+01  2.000E+04 -2.420E-01
   1   14    3     1     3    1.0781E+05 -4.0061E+03   1.1182E+05  0.000E+00  0.000E+00  0.000E+00  4.74598E+01  1.530E-01  2.000E+01  2.000E+04 -2.003E-01
   1   15    4     1     4    1.1182E+05 -3.9643E+03   1.1578E+05  0.000E+00  0.000E+00  0.000E+00  4.69859E+01  1.563E-01  2.000E+01  2.000E+04 -1.982E-01
   1   16    5     1     5    1.1578E+05 -4.3937E+03   1.2018E+05  0.000E+00  0.000E+00  0.000E+00  4.65120E+01  1.597E-01  2.000E+01  2.000E+04 -2.197E-01
   1   16    6     1     6    1.2018E+05 -3.4044E+03   1.2358E+05  0.000E+00  0.000E+00  0.000E+00  4.60379E+01  1.629E-01  2.000E+01  2.000E+04 -1.702E-01
   1   16    7     1     7    1.2358E+05 -3.4430E+03   1.2703E+05  0.000E+00  0.000E+00  0.000E+00  4.55633E+01  1.656E-01  2.000E+01  2.000E+04 -1.721E-01
   1   16    8     1     8    1.2703E+05 -3.4613E+03   1.3049E+05  0.000E+00  0.000E+00  0.000E+00  4.50888E+01  1.683E-01  2.000E+01  2.000E+04 -1.731E-01
   1   16    9     1     9    1.3049E+05 -3.4464E+03   1.3393E+05  0.000E+00  0.000E+00  0.000E+00  4.46142E+01  1.710E-01  2.000E+01  2.000E+04 -1.723E-01
   1   16   10     1    10    1.3393E+05 -3.4078E+03   1.3734E+05  0.000E+00  0.000E+00  0.000E+00  4.41396E+01  1.737E-01  2.000E+01  2.000E+04 -1.704E-01
   1   16   11     1    11    1.3734E+05 -3.3862E+03   1.4073E+05  0.000E+00  0.000E+00  0.000E+00  4.36649E+01  1.763E-01  2.000E+01  2.000E+04 -1.693E-01
   1   16   12     1    12    1.4073E+05 -4.6277E+03   1.4535E+05  0.000E+00  0.000E+00  0.000E+00  4.31907E+01  1.793E-01  2.000E+01  2.000E+04 -2.314E-01
   1   15   13     1    13    1.4535E+05 -4.0516E+03   1.4941E+05  0.000E+00  0.000E+00  0.000E+00  4.27166E+01  1.826E-01  2.000E+01  2.000E+04 -2.026E-01
   1   14   14     1    14    1.4941E+05 -3.8478E+03   1.5325E+05  0.000E+00  0.000E+00  0.000E+00  4.22423E+01  1.855E-01  2.000E+01  2.000E+04 -1.924E-01
   1   13   15     1    15    1.5325E+05 -3.7288E+03   1.5698E+05  0.000E+00  0.000E+00  0.000E+00  4.17678E+01  1.882E-01  2.000E+01  2.000E+04 -1.864E-01
   1   12   16     1    16    1.5698E+05 -3.9906E+03   1.6097E+05  0.000E+00  0.000E+00  0.000E+00  4.12933E+01  1.910E-01  2.000E+01  2.000E+04 -1.995E-01
   1   12   17     1    17    1.6097E+05 -2.7791E+03   1.6375E+05  0.000E+00  0.000E+00  0.000E+00  4.08185E+01  1.935E-01  2.000E+01  2.000E+04 -1.390E-01
   1   12   18     1    18    1.6375E+05 -2.7463E+03   1.6650E+05  0.000E+00  0.000E+00  0.000E+00  4.03432E+01  1.954E-01  2.000E+01  2.000E+04 -1.373E-01
   1   12   19     1    19    1.6650E+05 -3.5666E+03   1.7007E+05  0.000E+00  0.000E+00  0.000E+00  3.98681E+01  1.977E-01  2.000E+01  2.000E+04 -1.783E-01
   1   13   20     1    20    1.7007E+05 -2.9271E+03   1.7299E+05  0.000E+00  0.000E+00  0.000E+00  3.93931E+01  2.000E-01  2.000E+01  2.000E+04 -1.464E-01
   1   14   21     1    21    1.7299E+05 -2.6091E+03   1.7560E+05  0.000E+00  0.000E+00  0.000E+00  3.89178E+01  2.019E-01  2.000E+01  2.000E+04 -1.305E-01
   1   14   22     1    22    1.7560E+05  5.0469E+03   1.7055E+05  0.000E+00  0.000E+00  0.000E+00  3.84397E+01  2.010E-01  2.000E+01  2.000E+04  2.523E-01
   1    9   30     2     1    5.0000E+04 -2.1883E+03   5.2188E+04  0.000E+00  0.000E+00  0.000E+00  4.02424E+01  1.174E-01  2.000E+01  2.000E+04 -1.094E-01
   1    9   29     2     2    5.2188E+04 -2.4509E+03   5.4639E+04  0.000E+00  0.000E+00  0.000E+00  3.99955E+01  1.205E-01  2.000E+01  2.000E+04 -1.225E-01
   1    9   28     2     3    5.4639E+04 -2.6813E+03   5.7320E+04  0.000E+00  0.000E+00  0.000E+00  3.97490E+01  1.240E-01  2.000E+01  2.000E+04 -1.341E-01
   1    9   27     2     4    5.7320E+04 -4.6572E+03   6.1978E+04  0.000E+00  0.000E+00  0.000E+00  3.95038E+01  1.288E-01  2.000E+01  2.000E+04 -2.329E-01
   1   10   26     2     5    6.1978E+04 -2.9804E+03   6.4958E+04  0.000E+00  0.000E+00  0.000E+00  3.92587E+01  1.337E-01  2.000E+01  2.000E+04 -1.490E-01
   1   11   25     2     6    6.4958E+04 -2.2199E+03   6.7178E+04  0.000E+00  0.000E+00  0.000E+00  3.90120E+01  1.370E-01  2.000E+01  2.000E+04 -1.110E-01
   1   12   24     2     7    6.7178E+04 -1.5670E+03   6.8745E+04  0.000E+00  0.000E+00  0.000E+00  3.87643E+01  1.393E-01  2.000E+01  2.000E+04 -7.835E-02
   1   13   23     2     8    6.8745E+04 -9.3870E+02   6.9684E+04  0.000E+00  0.000E+00  0.000E+00  3.85158E+01  1.408E-01  2.000E+01  2.000E+04 -4.694E-02
   1   14   22     2     9    6.9684E+04  1.5624E+03   6.8121E+04  0.000E+00  0.000E+00  0.000E+00  3.82654E+01  1.404E-01  2.000E+01  2.000E+04  7.812E-02
   1   14   22     3     1    2.3868E+05 -8.5462E+03   2.4722E+05  0.000E+00  0.000E+00  0.000E+00  3.77600E+01  2.045E-01  2.000E+01  2.000E+04 -4.273E-01
   1   15   23     3     2    2.4722E+05 -3.4406E+03   2.5066E+05  0.000E+00  0.000E+00  0.000E+00  3.68741E+01  2.075E-01  2.000E+01  2.000E+04 -1.720E-01
   1   15   24     3     3    2.5066E+05 -2.3609E+03   2.5302E+05  0.000E+00  0.000E+00  0.000E+00  3.59867E+01  2.089E-01  2.000E+01  2.000E+04 -1.180E-01
   1   15   25     3     4    2.5302E+05 -2.2248E+03   2.5525E+05  0.000E+00  0.000E+00  0.000E+00  3.50989E+01  2.101E-01  2.000E+01  2.000E+04 -1.112E-01
   1   15   26     3     5    2.5525E+05 -2.6328E+03   2.5788E+05  0.000E+00  0.000E+00  0.000E+00  3.42113E+01  2.113E-01  2.000E+01  2.000E+04 -1.316E-01
   1   16   27     3     6    2.5788E+05 -3.6869E+03   2.6157E+05  0.000E+00  0.000E+00  0.000E+00  3.33239E+01  2.128E-01  2.000E+01  2.000E+04 -1.843E-01
   1   17   28     3     7    2.6157E+05 -4.5228E+03   2.6609E+05  0.000E+00  0.000E+00  0.000E+00  3.24371E+01  2.148E-01  2.000E+01  2.000E+04 -2.261E-01
   1   18   29     3     8    2.6609E+05 -6.1808E+03   2.7227E+05  0.000E+00  0.000E+00  0.000E+00  3.15508E+01  2.174E-01  2.000E+01  2.000E+04 -3.090E-01
   1   18   30     3     9    2.7227E+05 -5.1083E+03   2.7738E+05  0.000E+00  0.000E+00  0.000E+00  3.06646E+01  2.202E-01  2.000E+01  2.000E+04 -2.554E-01



1
              HEAD IN LAYER   1 AT END OF TIME STEP   1 IN STRESS PERIOD   10
  ---------------------------------------------------------------------------

          1      2      3      4      5      6      7      8      9     10
         11     12     13     14     15     16     17     18     19     20
         21     22     23     24     25     26     27     28     29     30
 .........................................................................
   1  ****** ****** ****** ****** ****** ****** ****** ****** ****** ******
      ****** ****** ****** ****** ****** ****** ****** ****** ****** ******
      ****** ****** ****** ****** ****** ****** ****** ****** ****** ******
   2  ****** ****** ****** ****** ****** ****** ****** ****** ****** ******
      ****** ****** ****** ****** ****** ****** ****** ****** ****** ******
      ****** ****** ****** ****** ****** ****** ****** ****** ****** ******
   3  ****** ****** ****** ****** ****** ****** ****** ****** ****** ******
      ****** ****** ****** ****** ****** ****** ****** ****** ****** ******
      ****** ****** ****** ****** ****** ****** ****** ****** ****** ******
   4  ****** ****** ****** ****** ****** ****** ****** ****** ****** ******
      ****** ****** ****** ****** ****** ****** ****** ****** ****** ******
      ****** ****** ****** ****** ****** ****** ****** ****** ****** ******
   5  ****** ****** ****** ****** ****** ****** ****** ****** ****** ******
      ****** ****** ****** ****** ****** ****** ****** ****** ****** ******
      ****** ****** ****** ****** ****** ****** ****** ****** ****** ******
   6  ****** ****** ****** ****** ****** ****** ****** ****** ****** ******
      ****** ****** ****** ****** ****** ****** ****** ****** ****** ******
      ****** ****** ****** ****** ****** ****** ****** ****** ****** ******
   7  ****** ****** ****** ****** ****** ****** ****** ****** ****** ******
      ****** ****** ****** ****** ****** ****** ****** ****** ****** ******
      ****** ****** ****** ****** ****** ****** ****** ****** ****** ******
   8  ****** ****** ****** ****** ****** ****** ****** ****** ****** ******
      ****** ****** ****** ****** ****** ****** ****** ****** ****** ******
      ****** ****** ****** ****** ****** ****** ****** ****** ****** ******
   9  ****** ****** ****** ****** ****** ****** ****** ****** ****** ******
      ****** ****** ****** ****** ****** ****** ****** ****** ****** ******
      ****** ****** ****** ****** ****** ****** ****** ****** ****** ******
  10  ****** ****** ****** ****** ****** ****** ****** ****** ****** ******
      ****** ****** ****** ****** ****** ****** ****** ****** ****** ******
      ****** ****** ****** ****** ****** ****** ****** ****** ****** ******
  11  ****** ****** ****** ****** ****** ****** ****** ****** ****** ******
      ****** ****** ****** ****** ****** ****** ****** ****** ****** ******
      ****** ****** ****** ****** ****** ****** ****** ****** ****** ******
  12  ****** ****** ****** ****** ****** ****** ****** ****** ****** ******
      ****** ****** ****** ****** ****** ****** ****** ****** ****** ******
      ****** ****** ****** ****** ****** ****** ****** ****** ****** ******
  13  ****** ****** ****** ****** ****** ****** ****** ****** ****** ******
      ****** ****** ****** ****** ****** ****** ****** ****** ****** ******
      ****** ****** ****** ****** ****** ****** ****** ****** ****** ******
  14  ****** ****** ****** ****** ****** ****** ****** ****** ****** ******
      ****** ****** ****** ****** ****** ****** ****** ****** ****** ******
      ****** ****** ****** ****** ****** ****** ****** ****** ****** ******
  15  ****** ****** ****** ****** ****** ****** ****** ****** ****** ******
      ****** ****** ****** ****** ****** ****** ****** ****** ****** ******
      ****** ****** ****** ****** ****** ****** ****** ****** ****** ******
  16  ****** ****** ****** ****** ****** ****** ****** ****** ****** ******
      ****** ****** ****** ****** ****** ****** ****** ****** ****** ******
      ****** ****** ****** ****** ****** ****** ****** ****** ****** ******
  17  ****** ****** ****** ****** ****** ****** ****** ****** ****** ******
      ****** ****** ****** ****** ****** ****** ****** ****** ****** ******
      ****** ****** ****** ****** ****** ****** ****** ****** ****** ******
  18  ****** ****** ****** ****** ****** ****** ****** ****** ****** ******
      ****** ****** ****** ****** ****** ****** ****** ****** ****** ******
      ****** ****** ****** ****** ****** ****** ****** ****** ****** ******
  19  ****** ****** ****** ****** ****** ****** ****** ****** ****** ******
      ****** ****** ****** ****** ****** ****** ****** ****** ****** ******
      ****** ****** ****** ****** ****** ****** ****** ****** ****** ******
  20  ****** ****** ****** ****** ****** ****** ****** ****** ****** ******
      ****** ****** ****** ****** ****** ****** ****** ****** ****** ******
      ****** ****** ****** ****** ****** ****** ****** ****** ****** ******
  21  ****** ****** ****** ****** ****** ****** ****** ****** ****** ******
      ****** ****** ****** ****** ****** ****** ****** ****** ****** ******
      ****** ****** ****** ****** ****** ****** ****** ****** ****** ******
  22  ****** ****** ****** ****** ****** ****** ****** ****** ****** ******
      ****** ****** ****** ****** ****** ****** ****** ****** ****** ******
      ****** ****** ****** ****** ****** ****** ****** ****** ****** ******
  23  ****** ****** ****** ****** ****** ****** ****** ****** ****** ******
      ****** ****** ****** ****** ****** ****** ****** ****** ****** ******
      ****** ****** ****** ****** ****** ****** ****** ****** ****** ******
  24  ****** ****** ****** ****** ****** ****** ****** ****** ****** ******
      ****** ****** ****** ****** ****** ****** ****** ****** ****** ******
      ****** ****** ****** ****** ****** ****** ****** ****** ****** ******
  25  ****** ****** ****** ****** ****** ****** ****** ****** ****** ******
      ****** ****** ****** ****** ****** ****** ****** ****** ****** ******
      ****** ****** ****** ****** ****** ****** ****** ****** ****** ******

 HEAD WILL BE SAVED ON UNIT   51 AT END OF TIME STEP    1, STRESS PERIOD   10
1
  VOLUMETRIC BUDGET FOR ENTIRE MODEL AT END OF TIME STEP    1, STRESS PERIOD  10
  ------------------------------------------------------------------------------

     CUMULATIVE VOLUMES      L**3       RATES FOR THIS TIME STEP      L**3/T
     ------------------                 ------------------------

           IN:                                      IN:
           ---                                      ---
             STORAGE =    25531872.8078               STORAGE =           0.0000
       CONSTANT HEAD =   150440693.4016         CONSTANT HEAD =      157564.4715
               WELLS =           0.0000                 WELLS =           0.0000
            RECHARGE =    23901600.0000              RECHARGE =       55200.0000
      STREAM LEAKAGE =     5984914.9091        STREAM LEAKAGE =        6609.2874

            TOTAL IN =   205859081.1186              TOTAL IN =      219373.7589

          OUT:                                     OUT:
          ----                                     ----
             STORAGE =     2621252.9151               STORAGE =       11035.0736
       CONSTANT HEAD =           0.0000         CONSTANT HEAD =           0.0000
               WELLS =    77447343.4765                 WELLS =       74349.1446
            RECHARGE =           0.0000              RECHARGE =           0.0000
      STREAM LEAKAGE =   125790485.6024        STREAM LEAKAGE =      133989.5390

           TOTAL OUT =   205859081.9940             TOTAL OUT =      219373.7572

            IN - OUT =          -0.8753              IN - OUT =       1.7440E-03

 PERCENT DISCREPANCY =          -0.00     PERCENT DISCREPANCY =           0.00






         TIME SUMMARY AT END OF TIME STEP    1 IN STRESS PERIOD   10
                    SECONDS     MINUTES      HOURS       DAYS        YEARS
                    -----------------------------------------------------------
   TIME STEP LENGTH 7.86240E+06 1.31040E+05  2184.0      91.000     0.24914    
 STRESS PERIOD TIME 7.86240E+06 1.31040E+05  2184.0      91.000     0.24914    
         TOTAL TIME 7.88832E+07 1.31472E+06  21912.      913.00      2.4997    
1
1
                            STRESS PERIOD NO.   11, LENGTH =   91.00000    
                            -----------------------------------------------

                              NUMBER OF TIME STEPS =     1

                               MULTIPLIER FOR DELT =     1.500

                            INITIAL TIME STEP SIZE =   91.00000    

 WELL NO.  LAYER   ROW   COL   STRESS RATE         
 --------------------------------------------------
      1      1      5     14     -0.2088E+05
      2      1      4     17     -0.2248E+05
      3      1      3     26     -0.3099E+05

      3 WELLS

                 RECHARGE =   0.00000    

 REUSING STREAM SEGMENT DATA FROM LAST STRESS PERIOD
 
 SOLVING FOR HEAD 


     7 CALLS TO PCG ROUTINE FOR TIME STEP   1 IN STRESS PERIOD   11
    26 TOTAL ITERATIONS

 OUTPUT CONTROL FOR STRESS PERIOD   11   TIME STEP    1
    SAVE BUDGET
    SAVE HEAD FOR ALL LAYERS
    PRINT HEAD FOR ALL LAYERS
 UBDSV2 SAVING "STREAMFLOW OUT  " ON UNIT  50 AT TIME STEP  1, STRESS PERIOD  11



 STREAM LISTING     PERIOD     11   STEP        1

 LAYER ROW COL. STREAM  RCH.  FLOW INTO     FLOW TO   FLOW OUT OF   OVRLND.     DIRECT     STREAM       STREAM     STREAM     STREAM   STREAMBED  STREAMBED
                SEG.NO.  NO.  STRM. RCH.    AQUIFER    STRM. RCH.    RUNOFF     PRECIP       ET          HEAD       DEPTH      WIDTH   CONDCTNC.   GRADIENT

   1   13    1     1     1    1.0000E+05 -2.4921E+03   1.0249E+05  0.000E+00  0.000E+00  0.000E+00  4.84071E+01  1.457E-01  2.000E+01  2.000E+04 -1.246E-01
   1   13    2     1     2    1.0249E+05 -4.2124E+03   1.0670E+05  0.000E+00  0.000E+00  0.000E+00  4.79327E+01  1.486E-01  2.000E+01  2.000E+04 -2.106E-01
   1   14    3     1     3    1.0670E+05 -3.3546E+03   1.1006E+05  0.000E+00  0.000E+00  0.000E+00  4.74586E+01  1.518E-01  2.000E+01  2.000E+04 -1.677E-01
   1   15    4     1     4    1.1006E+05 -3.3152E+03   1.1337E+05  0.000E+00  0.000E+00  0.000E+00  4.69841E+01  1.546E-01  2.000E+01  2.000E+04 -1.658E-01
   1   16    5     1     5    1.1337E+05 -3.7933E+03   1.1717E+05  0.000E+00  0.000E+00  0.000E+00  4.65098E+01  1.575E-01  2.000E+01  2.000E+04 -1.897E-01
   1   16    6     1     6    1.1717E+05 -2.9302E+03   1.2010E+05  0.000E+00  0.000E+00  0.000E+00  4.60353E+01  1.603E-01  2.000E+01  2.000E+04 -1.465E-01
   1   16    7     1     7    1.2010E+05 -2.9622E+03   1.2306E+05  0.000E+00  0.000E+00  0.000E+00  4.55604E+01  1.626E-01  2.000E+01  2.000E+04 -1.481E-01
   1   16    8     1     8    1.2306E+05 -2.9767E+03   1.2604E+05  0.000E+00  0.000E+00  0.000E+00  4.50855E+01  1.650E-01  2.000E+01  2.000E+04 -1.488E-01
   1   16    9     1     9    1.2604E+05 -2.9620E+03   1.2900E+05  0.000E+00  0.000E+00  0.000E+00  4.46105E+01  1.674E-01  2.000E+01  2.000E+04 -1.481E-01
   1   16   10     1    10    1.2900E+05 -2.9274E+03   1.3193E+05  0.000E+00  0.000E+00  0.000E+00  4.41356E+01  1.697E-01  2.000E+01  2.000E+04 -1.464E-01
   1   16   11     1    11    1.3193E+05 -2.9118E+03   1.3484E+05  0.000E+00  0.000E+00  0.000E+00  4.36606E+01  1.719E-01  2.000E+01  2.000E+04 -1.456E-01
   1   16   12     1    12    1.3484E+05 -4.0195E+03   1.3886E+05  0.000E+00  0.000E+00  0.000E+00  4.31860E+01  1.746E-01  2.000E+01  2.000E+04 -2.010E-01
   1   15   13     1    13    1.3886E+05 -3.3909E+03   1.4225E+05  0.000E+00  0.000E+00  0.000E+00  4.27115E+01  1.774E-01  2.000E+01  2.000E+04 -1.695E-01
   1   14   14     1    14    1.4225E+05 -3.1770E+03   1.4543E+05  0.000E+00  0.000E+00  0.000E+00  4.22367E+01  1.799E-01  2.000E+01  2.000E+04 -1.588E-01
   1   13   15     1    15    1.4543E+05 -3.0711E+03   1.4850E+05  0.000E+00  0.000E+00  0.000E+00  4.17618E+01  1.822E-01  2.000E+01  2.000E+04 -1.536E-01
   1   12   16     1    16    1.4850E+05 -3.3705E+03   1.5187E+05  0.000E+00  0.000E+00  0.000E+00  4.12869E+01  1.846E-01  2.000E+01  2.000E+04 -1.685E-01
   1   12   17     1    17    1.5187E+05 -2.3099E+03   1.5418E+05  0.000E+00  0.000E+00  0.000E+00  4.08117E+01  1.867E-01  2.000E+01  2.000E+04 -1.155E-01
   1   12   18     1    18    1.5418E+05 -2.2834E+03   1.5646E+05  0.000E+00  0.000E+00  0.000E+00  4.03361E+01  1.884E-01  2.000E+01  2.000E+04 -1.142E-01
   1   12   19     1    19    1.5646E+05 -3.0026E+03   1.5946E+05  0.000E+00  0.000E+00  0.000E+00  3.98608E+01  1.903E-01  2.000E+01  2.000E+04 -1.501E-01
   1   13   20     1    20    1.5946E+05 -2.3664E+03   1.6183E+05  0.000E+00  0.000E+00  0.000E+00  3.93854E+01  1.922E-01  2.000E+01  2.000E+04 -1.183E-01
   1   14   21     1    21    1.6183E+05 -2.0945E+03   1.6392E+05  0.000E+00  0.000E+00  0.000E+00  3.89097E+01  1.938E-01  2.000E+01  2.000E+04 -1.047E-01
   1   14   22     1    22    1.6392E+05  5.1496E+03   1.5877E+05  0.000E+00  0.000E+00  0.000E+00  3.84314E+01  1.927E-01  2.000E+01  2.000E+04  2.575E-01
   1    9   30     2     1    5.0000E+04 -1.7484E+03   5.1748E+04  0.000E+00  0.000E+00  0.000E+00  4.02421E+01  1.171E-01  2.000E+01  2.000E+04 -8.742E-02
   1    9   29     2     2    5.1748E+04 -2.0148E+03   5.3763E+04  0.000E+00  0.000E+00  0.000E+00  3.99947E+01  1.197E-01  2.000E+01  2.000E+04 -1.007E-01
   1    9   28     2     3    5.3763E+04 -2.2490E+03   5.6012E+04  0.000E+00  0.000E+00  0.000E+00  3.97475E+01  1.225E-01  2.000E+01  2.000E+04 -1.124E-01
   1    9   27     2     4    5.6012E+04 -4.0895E+03   6.0102E+04  0.000E+00  0.000E+00  0.000E+00  3.95017E+01  1.267E-01  2.000E+01  2.000E+04 -2.045E-01
   1   10   26     2     5    6.0102E+04 -2.3862E+03   6.2488E+04  0.000E+00  0.000E+00  0.000E+00  3.92559E+01  1.309E-01  2.000E+01  2.000E+04 -1.193E-01
   1   11   25     2     6    6.2488E+04 -1.6487E+03   6.4137E+04  0.000E+00  0.000E+00  0.000E+00  3.90085E+01  1.335E-01  2.000E+01  2.000E+04 -8.244E-02
   1   12   24     2     7    6.4137E+04 -1.0586E+03   6.5195E+04  0.000E+00  0.000E+00  0.000E+00  3.87602E+01  1.352E-01  2.000E+01  2.000E+04 -5.293E-02
   1   13   23     2     8    6.5195E+04 -5.3782E+02   6.5733E+04  0.000E+00  0.000E+00  0.000E+00  3.85112E+01  1.362E-01  2.000E+01  2.000E+04 -2.689E-02
   1   14   22     2     9    6.5733E+04  1.7311E+03   6.4002E+04  0.000E+00  0.000E+00  0.000E+00  3.82605E+01  1.355E-01  2.000E+01  2.000E+04  8.655E-02
   1   14   22     3     1    2.2278E+05 -8.4410E+03   2.3122E+05  0.000E+00  0.000E+00  0.000E+00  3.77519E+01  1.963E-01  2.000E+01  2.000E+04 -4.220E-01
   1   15   23     3     2    2.3122E+05 -2.9590E+03   2.3418E+05  0.000E+00  0.000E+00  0.000E+00  3.68659E+01  1.992E-01  2.000E+01  2.000E+04 -1.480E-01
   1   15   24     3     3    2.3418E+05 -2.0058E+03   2.3618E+05  0.000E+00  0.000E+00  0.000E+00  3.59783E+01  2.005E-01  2.000E+01  2.000E+04 -1.003E-01
   1   15   25     3     4    2.3618E+05 -1.8661E+03   2.3805E+05  0.000E+00  0.000E+00  0.000E+00  3.50904E+01  2.015E-01  2.000E+01  2.000E+04 -9.330E-02
   1   15   26     3     5    2.3805E+05 -2.1685E+03   2.4022E+05  0.000E+00  0.000E+00  0.000E+00  3.42025E+01  2.025E-01  2.000E+01  2.000E+04 -1.084E-01
   1   16   27     3     6    2.4022E+05 -3.1107E+03   2.4333E+05  0.000E+00  0.000E+00  0.000E+00  3.33150E+01  2.039E-01  2.000E+01  2.000E+04 -1.555E-01
   1   17   28     3     7    2.4333E+05 -3.9361E+03   2.4726E+05  0.000E+00  0.000E+00  0.000E+00  3.24279E+01  2.056E-01  2.000E+01  2.000E+04 -1.968E-01
   1   18   29     3     8    2.4726E+05 -5.6338E+03   2.5290E+05  0.000E+00  0.000E+00  0.000E+00  3.15414E+01  2.080E-01  2.000E+01  2.000E+04 -2.817E-01
   1   18   30     3     9    2.5290E+05 -4.6912E+03   2.5759E+05  0.000E+00  0.000E+00  0.000E+00  3.06551E+01  2.106E-01  2.000E+01  2.000E+04 -2.346E-01



1
              HEAD IN LAYER   1 AT END OF TIME STEP   1 IN STRESS PERIOD   11
  ---------------------------------------------------------------------------

          1      2      3      4      5      6      7      8      9     10
         11     12     13     14     15     16     17     18     19     20
         21     22     23     24     25     26     27     28     29     30
 .........................................................................
   1  ****** ****** ****** ****** ****** ****** ****** ****** ****** ******
      ****** ****** ****** ****** ****** ****** ****** ****** ****** ******
      ****** ****** ****** ****** ****** ****** ****** ****** ****** ******
   2  ****** ****** ****** ****** ****** ****** ****** ****** ****** ******
      ****** ****** ****** ****** ****** ****** ****** ****** ****** ******
      ****** ****** ****** ****** ****** ****** ****** ****** ****** ******
   3  ****** ****** ****** ****** ****** ****** ****** ****** ****** ******
      ****** ****** ****** ****** ****** ****** ****** ****** ****** ******
      ****** ****** ****** ****** ****** ****** ****** ****** ****** ******
   4  ****** ****** ****** ****** ****** ****** ****** ****** ****** ******
      ****** ****** ****** ****** ****** ****** ****** ****** ****** ******
      ****** ****** ****** ****** ****** ****** ****** ****** ****** ******
   5  ****** ****** ****** ****** ****** ****** ****** ****** ****** ******
      ****** ****** ****** ****** ****** ****** ****** ****** ****** ******
      ****** ****** ****** ****** ****** ****** ****** ****** ****** ******
   6  ****** ****** ****** ****** ****** ****** ****** ****** ****** ******
      ****** ****** ****** ****** ****** ****** ****** ****** ****** ******
      ****** ****** ****** ****** ****** ****** ****** ****** ****** ******
   7  ****** ****** ****** ****** ****** ****** ****** ****** ****** ******
      ****** ****** ****** ****** ****** ****** ****** ****** ****** ******
      ****** ****** ****** ****** ****** ****** ****** ****** ****** ******
   8  ****** ****** ****** ****** ****** ****** ****** ****** ****** ******
      ****** ****** ****** ****** ****** ****** ****** ****** ****** ******
      ****** ****** ****** ****** ****** ****** ****** ****** ****** ******
   9  ****** ****** ****** ****** ****** ****** ****** ****** ****** ******
      ****** ****** ****** ****** ****** ****** ****** ****** ****** ******
      ****** ****** ****** ****** ****** ****** ****** ****** ****** ******
  10  ****** ****** ****** ****** ****** ****** ****** ****** ****** ******
      ****** ****** ****** ****** ****** ****** ****** ****** ****** ******
      ****** ****** ****** ****** ****** ****** ****** ****** ****** ******
  11  ****** ****** ****** ****** ****** ****** ****** ****** ****** ******
      ****** ****** ****** ****** ****** ****** ****** ****** ****** ******
      ****** ****** ****** ****** ****** ****** ****** ****** ****** ******
  12  ****** ****** ****** ****** ****** ****** ****** ****** ****** ******
      ****** ****** ****** ****** ****** ****** ****** ****** ****** ******
      ****** ****** ****** ****** ****** ****** ****** ****** ****** ******
  13  ****** ****** ****** ****** ****** ****** ****** ****** ****** ******
      ****** ****** ****** ****** ****** ****** ****** ****** ****** ******
      ****** ****** ****** ****** ****** ****** ****** ****** ****** ******
  14  ****** ****** ****** ****** ****** ****** ****** ****** ****** ******
      ****** ****** ****** ****** ****** ****** ****** ****** ****** ******
      ****** ****** ****** ****** ****** ****** ****** ****** ****** ******
  15  ****** ****** ****** ****** ****** ****** ****** ****** ****** ******
      ****** ****** ****** ****** ****** ****** ****** ****** ****** ******
      ****** ****** ****** ****** ****** ****** ****** ****** ****** ******
  16  ****** ****** ****** ****** ****** ****** ****** ****** ****** ******
      ****** ****** ****** ****** ****** ****** ****** ****** ****** ******
      ****** ****** ****** ****** ****** ****** ****** ****** ****** ******
  17  ****** ****** ****** ****** ****** ****** ****** ****** ****** ******
      ****** ****** ****** ****** ****** ****** ****** ****** ****** ******
      ****** ****** ****** ****** ****** ****** ****** ****** ****** ******
  18  ****** ****** ****** ****** ****** ****** ****** ****** ****** ******
      ****** ****** ****** ****** ****** ****** ****** ****** ****** ******
      ****** ****** ****** ****** ****** ****** ****** ****** ****** ******
  19  ****** ****** ****** ****** ****** ****** ****** ****** ****** ******
      ****** ****** ****** ****** ****** ****** ****** ****** ****** ******
      ****** ****** ****** ****** ****** ****** ****** ****** ****** ******
  20  ****** ****** ****** ****** ****** ****** ****** ****** ****** ******
      ****** ****** ****** ****** ****** ****** ****** ****** ****** ******
      ****** ****** ****** ****** ****** ****** ****** ****** ****** ******
  21  ****** ****** ****** ****** ****** ****** ****** ****** ****** ******
      ****** ****** ****** ****** ****** ****** ****** ****** ****** ******
      ****** ****** ****** ****** ****** ****** ****** ****** ****** ******
  22  ****** ****** ****** ****** ****** ****** ****** ****** ****** ******
      ****** ****** ****** ****** ****** ****** ****** ****** ****** ******
      ****** ****** ****** ****** ****** ****** ****** ****** ****** ******
  23  ****** ****** ****** ****** ****** ****** ****** ****** ****** ******
      ****** ****** ****** ****** ****** ****** ****** ****** ****** ******
      ****** ****** ****** ****** ****** ****** ****** ****** ****** ******
  24  ****** ****** ****** ****** ****** ****** ****** ****** ****** ******
      ****** ****** ****** ****** ****** ****** ****** ****** ****** ******
      ****** ****** ****** ****** ****** ****** ****** ****** ****** ******
  25  ****** ****** ****** ****** ****** ****** ****** ****** ****** ******
      ****** ****** ****** ****** ****** ****** ****** ****** ****** ******
      ****** ****** ****** ****** ****** ****** ****** ****** ****** ******

 HEAD WILL BE SAVED ON UNIT   51 AT END OF TIME STEP    1, STRESS PERIOD   11
1
  VOLUMETRIC BUDGET FOR ENTIRE MODEL AT END OF TIME STEP    1, STRESS PERIOD  11
  ------------------------------------------------------------------------------

     CUMULATIVE VOLUMES      L**3       RATES FOR THIS TIME STEP      L**3/T
     ------------------                 ------------------------

           IN:                                      IN:
           ---                                      ---
             STORAGE =    26600310.3835               STORAGE =       11741.0723
       CONSTANT HEAD =   165928567.0240         CONSTANT HEAD =      170196.4134
               WELLS =           0.0000                 WELLS =           0.0000
            RECHARGE =    23901600.0000              RECHARGE =           0.0000
      STREAM LEAKAGE =     6611059.6298        STREAM LEAKAGE =        6880.7112

            TOTAL IN =   223041537.0373              TOTAL IN =      188818.1969

          OUT:                                     OUT:
          ----                                     ----
             STORAGE =     2621252.9151               STORAGE =           0.0000
       CONSTANT HEAD =           0.0000         CONSTANT HEAD =           0.0000
               WELLS =    84213115.6353                 WELLS =       74349.1446
            RECHARGE =           0.0000              RECHARGE =           0.0000
      STREAM LEAKAGE =   136207169.5545        STREAM LEAKAGE =      114469.0544

           TOTAL OUT =   223041538.1049             TOTAL OUT =      188818.1990

            IN - OUT =          -1.0676              IN - OUT =      -2.1123E-03

 PERCENT DISCREPANCY =          -0.00     PERCENT DISCREPANCY =          -0.00






         TIME SUMMARY AT END OF TIME STEP    1 IN STRESS PERIOD   11
                    SECONDS     MINUTES      HOURS       DAYS        YEARS
                    -----------------------------------------------------------
   TIME STEP LENGTH 7.86240E+06 1.31040E+05  2184.0      91.000     0.24914    
 STRESS PERIOD TIME 7.86240E+06 1.31040E+05  2184.0      91.000     0.24914    
         TOTAL TIME 8.67456E+07 1.44576E+06  24096.      1004.0      2.7488    
1
1
                            STRESS PERIOD NO.   12, LENGTH =   91.00000    
                            -----------------------------------------------

                              NUMBER OF TIME STEPS =     1

                               MULTIPLIER FOR DELT =     1.500

                            INITIAL TIME STEP SIZE =   91.00000    

 WELL NO.  LAYER   ROW   COL   STRESS RATE         
 --------------------------------------------------
      1      1      5     14     -0.2088E+05
      2      1      4     17     -0.2248E+05
      3      1      3     26     -0.3099E+05

      3 WELLS

                 RECHARGE =  1.000000E-03

 REUSING STREAM SEGMENT DATA FROM LAST STRESS PERIOD
 
 SOLVING FOR HEAD 


     6 CALLS TO PCG ROUTINE FOR TIME STEP   1 IN STRESS PERIOD   12
    23 TOTAL ITERATIONS

 OUTPUT CONTROL FOR STRESS PERIOD   12   TIME STEP    1
    SAVE BUDGET
    SAVE HEAD FOR ALL LAYERS
    PRINT HEAD FOR ALL LAYERS
 UBDSV2 SAVING "STREAMFLOW OUT  " ON UNIT  50 AT TIME STEP  1, STRESS PERIOD  12



 STREAM LISTING     PERIOD     12   STEP        1

 LAYER ROW COL. STREAM  RCH.  FLOW INTO     FLOW TO   FLOW OUT OF   OVRLND.     DIRECT     STREAM       STREAM     STREAM     STREAM   STREAMBED  STREAMBED
                SEG.NO.  NO.  STRM. RCH.    AQUIFER    STRM. RCH.    RUNOFF     PRECIP       ET          HEAD       DEPTH      WIDTH   CONDCTNC.   GRADIENT

   1   13    1     1     1    1.0000E+05 -2.6670E+03   1.0267E+05  0.000E+00  0.000E+00  0.000E+00  4.84072E+01  1.458E-01  2.000E+01  2.000E+04 -1.333E-01
   1   13    2     1     2    1.0267E+05 -4.4328E+03   1.0710E+05  0.000E+00  0.000E+00  0.000E+00  4.79329E+01  1.488E-01  2.000E+01  2.000E+04 -2.216E-01
   1   14    3     1     3    1.0710E+05 -3.5952E+03   1.1070E+05  0.000E+00  0.000E+00  0.000E+00  4.74591E+01  1.522E-01  2.000E+01  2.000E+04 -1.798E-01
   1   15    4     1     4    1.1070E+05 -3.5576E+03   1.1425E+05  0.000E+00  0.000E+00  0.000E+00  4.69848E+01  1.552E-01  2.000E+01  2.000E+04 -1.779E-01
   1   16    5     1     5    1.1425E+05 -4.0164E+03   1.1827E+05  0.000E+00  0.000E+00  0.000E+00  4.65106E+01  1.583E-01  2.000E+01  2.000E+04 -2.008E-01
   1   16    6     1     6    1.1827E+05 -3.1081E+03   1.2138E+05  0.000E+00  0.000E+00  0.000E+00  4.60362E+01  1.612E-01  2.000E+01  2.000E+04 -1.554E-01
   1   16    7     1     7    1.2138E+05 -3.1421E+03   1.2452E+05  0.000E+00  0.000E+00  0.000E+00  4.55615E+01  1.637E-01  2.000E+01  2.000E+04 -1.571E-01
   1   16    8     1     8    1.2452E+05 -3.1578E+03   1.2768E+05  0.000E+00  0.000E+00  0.000E+00  4.50867E+01  1.662E-01  2.000E+01  2.000E+04 -1.579E-01
   1   16    9     1     9    1.2768E+05 -3.1430E+03   1.3082E+05  0.000E+00  0.000E+00  0.000E+00  4.46119E+01  1.687E-01  2.000E+01  2.000E+04 -1.571E-01
   1   16   10     1    10    1.3082E+05 -3.1072E+03   1.3393E+05  0.000E+00  0.000E+00  0.000E+00  4.41371E+01  1.712E-01  2.000E+01  2.000E+04 -1.554E-01
   1   16   11     1    11    1.3393E+05 -3.0895E+03   1.3702E+05  0.000E+00  0.000E+00  0.000E+00  4.36622E+01  1.736E-01  2.000E+01  2.000E+04 -1.545E-01
   1   16   12     1    12    1.3702E+05 -4.2429E+03   1.4126E+05  0.000E+00  0.000E+00  0.000E+00  4.31877E+01  1.764E-01  2.000E+01  2.000E+04 -2.121E-01
   1   15   13     1    13    1.4126E+05 -3.6356E+03   1.4490E+05  0.000E+00  0.000E+00  0.000E+00  4.27134E+01  1.793E-01  2.000E+01  2.000E+04 -1.818E-01
   1   14   14     1    14    1.4490E+05 -3.4247E+03   1.4832E+05  0.000E+00  0.000E+00  0.000E+00  4.22388E+01  1.820E-01  2.000E+01  2.000E+04 -1.712E-01
   1   13   15     1    15    1.4832E+05 -3.3137E+03   1.5163E+05  0.000E+00  0.000E+00  0.000E+00  4.17640E+01  1.845E-01  2.000E+01  2.000E+04 -1.657E-01
   1   12   16     1    16    1.5163E+05 -3.5929E+03   1.5523E+05  0.000E+00  0.000E+00  0.000E+00  4.12893E+01  1.870E-01  2.000E+01  2.000E+04 -1.796E-01
   1   12   17     1    17    1.5523E+05 -2.4852E+03   1.5771E+05  0.000E+00  0.000E+00  0.000E+00  4.08142E+01  1.892E-01  2.000E+01  2.000E+04 -1.243E-01
   1   12   18     1    18    1.5771E+05 -2.4581E+03   1.6017E+05  0.000E+00  0.000E+00  0.000E+00  4.03387E+01  1.910E-01  2.000E+01  2.000E+04 -1.229E-01
   1   12   19     1    19    1.6017E+05 -3.2158E+03   1.6339E+05  0.000E+00  0.000E+00  0.000E+00  3.98635E+01  1.931E-01  2.000E+01  2.000E+04 -1.608E-01
   1   13   20     1    20    1.6339E+05 -2.5861E+03   1.6597E+05  0.000E+00  0.000E+00  0.000E+00  3.93883E+01  1.951E-01  2.000E+01  2.000E+04 -1.293E-01
   1   14   21     1    21    1.6597E+05 -2.2917E+03   1.6826E+05  0.000E+00  0.000E+00  0.000E+00  3.89128E+01  1.969E-01  2.000E+01  2.000E+04 -1.146E-01
   1   14   22     1    22    1.6826E+05  5.1051E+03   1.6316E+05  0.000E+00  0.000E+00  0.000E+00  3.84345E+01  1.959E-01  2.000E+01  2.000E+04  2.553E-01
   1    9   30     2     1    5.0000E+04 -1.9283E+03   5.1928E+04  0.000E+00  0.000E+00  0.000E+00  4.02422E+01  1.172E-01  2.000E+01  2.000E+04 -9.642E-02
   1    9   29     2     2    5.1928E+04 -2.1930E+03   5.4121E+04  0.000E+00  0.000E+00  0.000E+00  3.99950E+01  1.200E-01  2.000E+01  2.000E+04 -1.096E-01
   1    9   28     2     3    5.4121E+04 -2.4247E+03   5.6546E+04  0.000E+00  0.000E+00  0.000E+00  3.97481E+01  1.231E-01  2.000E+01  2.000E+04 -1.212E-01
   1    9   27     2     4    5.6546E+04 -4.3114E+03   6.0857E+04  0.000E+00  0.000E+00  0.000E+00  3.95026E+01  1.276E-01  2.000E+01  2.000E+04 -2.156E-01
   1   10   26     2     5    6.0857E+04 -2.6248E+03   6.3482E+04  0.000E+00  0.000E+00  0.000E+00  3.92570E+01  1.320E-01  2.000E+01  2.000E+04 -1.312E-01
   1   11   25     2     6    6.3482E+04 -1.8808E+03   6.5363E+04  0.000E+00  0.000E+00  0.000E+00  3.90099E+01  1.349E-01  2.000E+01  2.000E+04 -9.404E-02
   1   12   24     2     7    6.5363E+04 -1.2693E+03   6.6632E+04  0.000E+00  0.000E+00  0.000E+00  3.87619E+01  1.369E-01  2.000E+01  2.000E+04 -6.346E-02
   1   13   23     2     8    6.6632E+04 -7.0883E+02   6.7341E+04  0.000E+00  0.000E+00  0.000E+00  3.85131E+01  1.381E-01  2.000E+01  2.000E+04 -3.544E-02
   1   14   22     2     9    6.7341E+04  1.6652E+03   6.5676E+04  0.000E+00  0.000E+00  0.000E+00  3.82625E+01  1.375E-01  2.000E+01  2.000E+04  8.326E-02
   1   14   22     3     1    2.2883E+05 -8.4850E+03   2.3732E+05  0.000E+00  0.000E+00  0.000E+00  3.77550E+01  1.994E-01  2.000E+01  2.000E+04 -4.242E-01
   1   15   23     3     2    2.3732E+05 -3.1437E+03   2.4046E+05  0.000E+00  0.000E+00  0.000E+00  3.68691E+01  2.024E-01  2.000E+01  2.000E+04 -1.572E-01
   1   15   24     3     3    2.4046E+05 -2.1503E+03   2.4261E+05  0.000E+00  0.000E+00  0.000E+00  3.59815E+01  2.037E-01  2.000E+01  2.000E+04 -1.075E-01
   1   15   25     3     4    2.4261E+05 -2.0153E+03   2.4463E+05  0.000E+00  0.000E+00  0.000E+00  3.50937E+01  2.048E-01  2.000E+01  2.000E+04 -1.008E-01
   1   15   26     3     5    2.4463E+05 -2.3635E+03   2.4699E+05  0.000E+00  0.000E+00  0.000E+00  3.42059E+01  2.059E-01  2.000E+01  2.000E+04 -1.182E-01
   1   16   27     3     6    2.4699E+05 -3.3452E+03   2.5034E+05  0.000E+00  0.000E+00  0.000E+00  3.33184E+01  2.073E-01  2.000E+01  2.000E+04 -1.673E-01
   1   17   28     3     7    2.5034E+05 -4.1731E+03   2.5451E+05  0.000E+00  0.000E+00  0.000E+00  3.24314E+01  2.092E-01  2.000E+01  2.000E+04 -2.087E-01
   1   18   29     3     8    2.5451E+05 -5.8505E+03   2.6036E+05  0.000E+00  0.000E+00  0.000E+00  3.15450E+01  2.117E-01  2.000E+01  2.000E+04 -2.925E-01
   1   18   30     3     9    2.6036E+05 -4.8620E+03   2.6522E+05  0.000E+00  0.000E+00  0.000E+00  3.06588E+01  2.143E-01  2.000E+01  2.000E+04 -2.431E-01



1
              HEAD IN LAYER   1 AT END OF TIME STEP   1 IN STRESS PERIOD   12
  ---------------------------------------------------------------------------

          1      2      3      4      5      6      7      8      9     10
         11     12     13     14     15     16     17     18     19     20
         21     22     23     24     25     26     27     28     29     30
 .........................................................................
   1  ****** ****** ****** ****** ****** ****** ****** ****** ****** ******
      ****** ****** ****** ****** ****** ****** ****** ****** ****** ******
      ****** ****** ****** ****** ****** ****** ****** ****** ****** ******
   2  ****** ****** ****** ****** ****** ****** ****** ****** ****** ******
      ****** ****** ****** ****** ****** ****** ****** ****** ****** ******
      ****** ****** ****** ****** ****** ****** ****** ****** ****** ******
   3  ****** ****** ****** ****** ****** ****** ****** ****** ****** ******
      ****** ****** ****** ****** ****** ****** ****** ****** ****** ******
      ****** ****** ****** ****** ****** ****** ****** ****** ****** ******
   4  ****** ****** ****** ****** ****** ****** ****** ****** ****** ******
      ****** ****** ****** ****** ****** ****** ****** ****** ****** ******
      ****** ****** ****** ****** ****** ****** ****** ****** ****** ******
   5  ****** ****** ****** ****** ****** ****** ****** ****** ****** ******
      ****** ****** ****** ****** ****** ****** ****** ****** ****** ******
      ****** ****** ****** ****** ****** ****** ****** ****** ****** ******
   6  ****** ****** ****** ****** ****** ****** ****** ****** ****** ******
      ****** ****** ****** ****** ****** ****** ****** ****** ****** ******
      ****** ****** ****** ****** ****** ****** ****** ****** ****** ******
   7  ****** ****** ****** ****** ****** ****** ****** ****** ****** ******
      ****** ****** ****** ****** ****** ****** ****** ****** ****** ******
      ****** ****** ****** ****** ****** ****** ****** ****** ****** ******
   8  ****** ****** ****** ****** ****** ****** ****** ****** ****** ******
      ****** ****** ****** ****** ****** ****** ****** ****** ****** ******
      ****** ****** ****** ****** ****** ****** ****** ****** ****** ******
   9  ****** ****** ****** ****** ****** ****** ****** ****** ****** ******
      ****** ****** ****** ****** ****** ****** ****** ****** ****** ******
      ****** ****** ****** ****** ****** ****** ****** ****** ****** ******
  10  ****** ****** ****** ****** ****** ****** ****** ****** ****** ******
      ****** ****** ****** ****** ****** ****** ****** ****** ****** ******
      ****** ****** ****** ****** ****** ****** ****** ****** ****** ******
  11  ****** ****** ****** ****** ****** ****** ****** ****** ****** ******
      ****** ****** ****** ****** ****** ****** ****** ****** ****** ******
      ****** ****** ****** ****** ****** ****** ****** ****** ****** ******
  12  ****** ****** ****** ****** ****** ****** ****** ****** ****** ******
      ****** ****** ****** ****** ****** ****** ****** ****** ****** ******
      ****** ****** ****** ****** ****** ****** ****** ****** ****** ******
  13  ****** ****** ****** ****** ****** ****** ****** ****** ****** ******
      ****** ****** ****** ****** ****** ****** ****** ****** ****** ******
      ****** ****** ****** ****** ****** ****** ****** ****** ****** ******
  14  ****** ****** ****** ****** ****** ****** ****** ****** ****** ******
      ****** ****** ****** ****** ****** ****** ****** ****** ****** ******
      ****** ****** ****** ****** ****** ****** ****** ****** ****** ******
  15  ****** ****** ****** ****** ****** ****** ****** ****** ****** ******
      ****** ****** ****** ****** ****** ****** ****** ****** ****** ******
      ****** ****** ****** ****** ****** ****** ****** ****** ****** ******
  16  ****** ****** ****** ****** ****** ****** ****** ****** ****** ******
      ****** ****** ****** ****** ****** ****** ****** ****** ****** ******
      ****** ****** ****** ****** ****** ****** ****** ****** ****** ******
  17  ****** ****** ****** ****** ****** ****** ****** ****** ****** ******
      ****** ****** ****** ****** ****** ****** ****** ****** ****** ******
      ****** ****** ****** ****** ****** ****** ****** ****** ****** ******
  18  ****** ****** ****** ****** ****** ****** ****** ****** ****** ******
      ****** ****** ****** ****** ****** ****** ****** ****** ****** ******
      ****** ****** ****** ****** ****** ****** ****** ****** ****** ******
  19  ****** ****** ****** ****** ****** ****** ****** ****** ****** ******
      ****** ****** ****** ****** ****** ****** ****** ****** ****** ******
      ****** ****** ****** ****** ****** ****** ****** ****** ****** ******
  20  ****** ****** ****** ****** ****** ****** ****** ****** ****** ******
      ****** ****** ****** ****** ****** ****** ****** ****** ****** ******
      ****** ****** ****** ****** ****** ****** ****** ****** ****** ******
  21  ****** ****** ****** ****** ****** ****** ****** ****** ****** ******
      ****** ****** ****** ****** ****** ****** ****** ****** ****** ******
      ****** ****** ****** ****** ****** ****** ****** ****** ****** ******
  22  ****** ****** ****** ****** ****** ****** ****** ****** ****** ******
      ****** ****** ****** ****** ****** ****** ****** ****** ****** ******
      ****** ****** ****** ****** ****** ****** ****** ****** ****** ******
  23  ****** ****** ****** ****** ****** ****** ****** ****** ****** ******
      ****** ****** ****** ****** ****** ****** ****** ****** ****** ******
      ****** ****** ****** ****** ****** ****** ****** ****** ****** ******
  24  ****** ****** ****** ****** ****** ****** ****** ****** ****** ******
      ****** ****** ****** ****** ****** ****** ****** ****** ****** ******
      ****** ****** ****** ****** ****** ****** ****** ****** ****** ******
  25  ****** ****** ****** ****** ****** ****** ****** ****** ****** ******
      ****** ****** ****** ****** ****** ****** ****** ****** ****** ******
      ****** ****** ****** ****** ****** ****** ****** ****** ****** ******

 HEAD WILL BE SAVED ON UNIT   51 AT END OF TIME STEP    1, STRESS PERIOD   12
1
  VOLUMETRIC BUDGET FOR ENTIRE MODEL AT END OF TIME STEP    1, STRESS PERIOD  12
  ------------------------------------------------------------------------------

     CUMULATIVE VOLUMES      L**3       RATES FOR THIS TIME STEP      L**3/T
     ------------------                 ------------------------

           IN:                                      IN:
           ---                                      ---
             STORAGE =    26600310.3835               STORAGE =           0.0000
       CONSTANT HEAD =   181011712.3332         CONSTANT HEAD =      165748.8496
               WELLS =           0.0000                 WELLS =           0.0000
            RECHARGE =    26413200.0000              RECHARGE =       27600.0000
      STREAM LEAKAGE =     7227153.7170        STREAM LEAKAGE =        6770.2647

            TOTAL IN =   241252376.4337              TOTAL IN =      200119.1142

          OUT:                                     OUT:
          ----                                     ----
             STORAGE =     2964955.4199               STORAGE =        3776.9506
       CONSTANT HEAD =           0.0000         CONSTANT HEAD =           0.0000
               WELLS =    90978887.7941                 WELLS =       74349.1446
            RECHARGE =           0.0000              RECHARGE =           0.0000
      STREAM LEAKAGE =   147308534.2111        STREAM LEAKAGE =      121993.0182

           TOTAL OUT =   241252377.4251             TOTAL OUT =      200119.1134

            IN - OUT =          -0.9914              IN - OUT =       8.3663E-04

 PERCENT DISCREPANCY =          -0.00     PERCENT DISCREPANCY =           0.00






         TIME SUMMARY AT END OF TIME STEP    1 IN STRESS PERIOD   12
                    SECONDS     MINUTES      HOURS       DAYS        YEARS
                    -----------------------------------------------------------
   TIME STEP LENGTH 7.86240E+06 1.31040E+05  2184.0      91.000     0.24914    
 STRESS PERIOD TIME 7.86240E+06 1.31040E+05  2184.0      91.000     0.24914    
         TOTAL TIME 9.46080E+07 1.57680E+06  26280.      1095.0      2.9979    
1

 Run end date and time (yyyy/mm/dd hh:mm:ss): 2018/10/08 23:36:22
 Elapsed run time:  0.067 Seconds

