                                  MODFLOW-2005     
      U.S. GEOLOGICAL SURVEY MODULAR FINITE-DIFFERENCE GROUND-WATER FLOW MODEL
                            VERSION 1.11.00 8/8/2013

 LIST FILE: supply2.lst
                         UNIT   10

 OPENING ..\data\supply.dis
 FILE TYPE:DIS   UNIT   11   STATUS:OLD    
 FORMAT:FORMATTED              ACCESS:SEQUENTIAL          

 OPENING ..\data\supply.ba6
 FILE TYPE:BAS6   UNIT   12   STATUS:OLD    
 FORMAT:FORMATTED              ACCESS:SEQUENTIAL          

 OPENING ..\data\supply_het.bc6
 FILE TYPE:BCF6   UNIT   13   STATUS:OLD    
 FORMAT:FORMATTED              ACCESS:SEQUENTIAL          

 OPENING ..\data\supply.rch
 FILE TYPE:RCH   UNIT   15   STATUS:OLD    
 FORMAT:FORMATTED              ACCESS:SEQUENTIAL          

 OPENING ..\data\supply2.sfr
 FILE TYPE:SFR   UNIT   16   STATUS:OLD    
 FORMAT:FORMATTED              ACCESS:SEQUENTIAL          

 OPENING ..\data\supply.oc
 FILE TYPE:OC   UNIT   17   STATUS:OLD    
 FORMAT:FORMATTED              ACCESS:SEQUENTIAL          

 OPENING ..\data\supply.pcg
 FILE TYPE:PCG   UNIT   18   STATUS:OLD    
 FORMAT:FORMATTED              ACCESS:SEQUENTIAL          

 OPENING supply2.wel
 FILE TYPE:WEL   UNIT   19   STATUS:OLD    
 FORMAT:FORMATTED              ACCESS:SEQUENTIAL          

 OPENING supply2sf.cbc
 FILE TYPE:DATA(BINARY)   UNIT   50   STATUS:UNKNOWN
 FORMAT:BINARY                 ACCESS:SEQUENTIAL          

 OPENING supply2hd.bhd
 FILE TYPE:DATA(BINARY)   UNIT   51   STATUS:UNKNOWN
 FORMAT:BINARY                 ACCESS:SEQUENTIAL          

 BAS -- BASIC PACKAGE, VERSION 7, 5/2/2005 INPUT READ FROM UNIT   12
 
 MODFLOW was compiled using uniform precision
 Precision of REAL and DOUBLE PRECISION variables:          15

 DISCRETIZATION INPUT DATA READ FROM UNIT   11
    1 LAYERS        25 ROWS        30 COLUMNS
   12 STRESS PERIOD(S) IN SIMULATION
 MODEL TIME UNIT IS DAYS
 MODEL LENGTH UNIT IS UNDEFINED
  Confining bed flag for each layer:
   0

                     DELR =   200.000    

                     DELC =   200.000    

 TOP ELEVATION OF LAYER 1 =  100.0000    

   MODEL LAYER BOTTOM EL. =   0.00000     FOR LAYER   1


 STRESS PERIOD     LENGTH       TIME STEPS     MULTIPLIER FOR DELT    SS FLAG
 ----------------------------------------------------------------------------
        1         92.00000          1                    1.500         TR
        2         91.00000          1                    1.500         TR
        3         91.00000          1                    1.500         TR
        4         91.00000          1                    1.500         TR
        5         92.00000          1                    1.500         TR
        6         91.00000          1                    1.500         TR
        7         91.00000          1                    1.500         TR
        8         91.00000          1                    1.500         TR
        9         92.00000          1                    1.500         TR
       10         91.00000          1                    1.500         TR
       11         91.00000          1                    1.500         TR
       12         91.00000          1                    1.500         TR

 TRANSIENT SIMULATION



 
 #MODOFC transient water supply sample problem                                   
 #                                                                               
 THE FREE FORMAT OPTION HAS BEEN SELECTED



                     BOUNDARY ARRAY FOR LAYER   1
 READING ON UNIT   12 WITH FORMAT: (20I4)              

 AQUIFER HEAD WILL BE SET TO   0.0000     AT ALL NO-FLOW NODES (IBOUND=0).



                       INITIAL HEAD FOR LAYER   1
 READING ON UNIT   12 WITH FORMAT: (10F13.0)           

 OUTPUT CONTROL IS SPECIFIED ONLY AT TIME STEPS FOR WHICH OUTPUT IS DESIRED
 COMPACT CELL-BY-CELL BUDGET FILES WILL BE WRITTEN
 HEAD PRINT FORMAT CODE IS  18    DRAWDOWN PRINT FORMAT CODE IS   0
 HEADS WILL BE SAVED ON UNIT   51    DRAWDOWNS WILL BE SAVED ON UNIT    0

 BCF -- BLOCK-CENTERED FLOW PACKAGE, VERSION 7, 5/2/2005
         INPUT READ FROM UNIT 13
 TRANSIENT SIMULATION
 HEAD AT CELLS THAT CONVERT TO DRY=   0.0000    
 WETTING CAPABILITY IS NOT ACTIVE
      LAYER  LAYER-TYPE CODE     INTERBLOCK T
      --------------------------------------------
         1            0          0 -- HARMONIC    

 COLUMN TO ROW ANISOTROPY =  1.000000    

     PRIMARY STORAGE COEF =  5.000000E-02 FOR LAYER   1



               TRANSMIS. ALONG ROWS FOR LAYER   1
 READING ON UNIT   13 WITH FORMAT: (FREE)              

 WEL -- WELL PACKAGE, VERSION 7, 5/2/2005 INPUT READ FROM UNIT   19
 # Well package input file written by MMProc
 No named parameters
 MAXIMUM OF      4 ACTIVE WELLS AT ONE TIME


     0 Well parameters

 RCH -- RECHARGE PACKAGE, VERSION 7, 5/2/2005 INPUT READ FROM UNIT   15
 No named parameters
 OPTION 1 -- RECHARGE TO TOP LAYER


     0 Recharge parameters

 SFR7 -- STREAMFLOW ROUTING PACKAGE, VERSION 1.0.7, 2013-01-15
         INPUT READ FROM UNIT  16
 #  Supply2 test problem for GWM-VI
 #  The eighth entry in the first data line is ISTCB2 -
 #    Setting this to a negative number indicates that
 #    streamflows out of the reach will be saved to a
 #    binary file.  The absolute value of ISTCB2 is the
 #    unit to which unformatted flows will be written.
 #
 No named parameters
 Segment information will not be 
 read by reach
 No named parameters
 No specifed inflow files


 NUMBER OF STREAM REACHES IS   40

 NUMBER OF STREAM SEGMENTS IS    3

 NUMBER OF STREAM PARAMETERS IS    0

 NUMBER OF STREAM SEGMENTS DEFINED USING PARAMETERS IS              0

 MAXIMUM ERROR FOR STREAM LEAKAGE RATES IS  1.00E-04

 CONSTANT FOR MANNINGS EQUATION IS  1.2839E+05





   STREAM NETWORK DESCRIPTION: 

   LAYER    ROW    COL   SEGMENT   REACH     LENGTH
                          NUMBER   NUMBER    IN CELL        
   --------------------------------------------------
      1     13      1       1        1    2.0000E+02
      1     13      2       1        2    2.0000E+02
      1     14      3       1        3    2.0000E+02
      1     15      4       1        4    2.0000E+02
      1     16      5       1        5    2.0000E+02
      1     16      6       1        6    2.0000E+02
      1     16      7       1        7    2.0000E+02
      1     16      8       1        8    2.0000E+02
      1     16      9       1        9    2.0000E+02
      1     16     10       1       10    2.0000E+02
      1     16     11       1       11    2.0000E+02
      1     16     12       1       12    2.0000E+02
      1     15     13       1       13    2.0000E+02
      1     14     14       1       14    2.0000E+02
      1     13     15       1       15    2.0000E+02
      1     12     16       1       16    2.0000E+02
      1     12     17       1       17    2.0000E+02
      1     12     18       1       18    2.0000E+02
      1     12     19       1       19    2.0000E+02
      1     13     20       1       20    2.0000E+02
      1     14     21       1       21    2.0000E+02
      1     14     22       1       22    2.0000E+02
      1      9     30       2        1    2.0000E+02
      1      9     29       2        2    2.0000E+02
      1      9     28       2        3    2.0000E+02
      1      9     27       2        4    2.0000E+02
      1     10     26       2        5    2.0000E+02
      1     11     25       2        6    2.0000E+02
      1     12     24       2        7    2.0000E+02
      1     13     23       2        8    2.0000E+02
      1     14     22       2        9    2.0000E+02
      1     14     22       3        1    2.0000E+02
      1     15     23       3        2    2.0000E+02
      1     15     24       3        3    2.0000E+02
      1     15     25       3        4    2.0000E+02
      1     15     26       3        5    2.0000E+02
      1     16     27       3        6    2.0000E+02
      1     17     28       3        7    2.0000E+02
      1     18     29       3        8    2.0000E+02
      1     18     30       3        9    2.0000E+02




 PCG -- CONJUGATE-GRADIENT SOLUTION PACKAGE, VERSION 7, 5/2/2005
 MAXIMUM OF    500 CALLS OF SOLUTION ROUTINE
 MAXIMUM OF      5 INTERNAL ITERATIONS PER CALL TO SOLUTION ROUTINE
 MATRIX PRECONDITIONING TYPE :    1



                                    SOLUTION BY THE CONJUGATE-GRADIENT METHOD
                                   -------------------------------------------
                    MAXIMUM NUMBER OF CALLS TO PCG ROUTINE =      500
                        MAXIMUM ITERATIONS PER CALL TO PCG =        5
                               MATRIX PRECONDITIONING TYPE =        1
        RELAXATION FACTOR (ONLY USED WITH PRECOND. TYPE 1) =    0.10000E+01
 PARAMETER OF POLYNOMIAL PRECOND. = 2 (2) OR IS CALCULATED :        0
                         HEAD CHANGE CRITERION FOR CLOSURE =    0.10000E-05
                     RESIDUAL CHANGE CRITERION FOR CLOSURE =    0.10000E+01
            PCG HEAD AND RESIDUAL CHANGE PRINTOUT INTERVAL =        1
     PRINTING FROM SOLVER IS LIMITED(1) OR SUPPRESSED (>1) =        1
                            STEADY-STATE DAMPING PARAMETER =    0.10000E+01
                               TRANSIENT DAMPING PARAMETER =    0.10000E+01
1
                            STRESS PERIOD NO.    1, LENGTH =   92.00000    
                            -----------------------------------------------

                              NUMBER OF TIME STEPS =     1

                               MULTIPLIER FOR DELT =     1.500

                            INITIAL TIME STEP SIZE =   92.00000    

 WELL NO.  LAYER   ROW   COL   STRESS RATE         
 --------------------------------------------------
      1      1     19     11     -0.1013E+05
      2      1     15     28      -7561.    
      3      1     15      7      -7227.    
      4      1     12     26      -9522.    

      4 WELLS

                 RECHARGE =  5.000000E-04



 CLASSIFICATION & COUNT OF STREAM SEGMENTS BASED ON SOURCE OF INFLOW:

                HEADWATER     DIVERSION     RECEIVES TRIBUTARY FLOW
                ---------     ---------     -----------------------
                     2              0               1



                    INPUT DATA FOR EACH STREAM SEGMENT
 ---------------------------------------------------------------------------------------------

 SEGMENT    SEG.     INFLOW   OVERLAND   STREAM    STREAM   ICALC  OUTFLOW  DIVERSION PRIORITY
    NO.    LENGTH     RATE     RUNOFF      ET       PPT.    METH.  TO SEG.  FROM SEG.    NO.

      1  4.400E+03 1.000E+05 0.000E+00 0.000E+00 0.000E+00    1        3        0        0
      2  1.800E+03 5.000E+04 0.000E+00 0.000E+00 0.000E+00    1        3        0        0
      3  1.800E+03 0.000E+00 0.000E+00 0.000E+00 0.000E+00    1        0        0        0


         STREAMBED PROPERTIES AND STREAM DIMENSIONS

 SEGMENT     BED HYD. COND.      BED THICKNESS     ELEV.-TOP OF BED     WIDTH OF STREAM     DEPTH OF STREAM    STREAM ROUGHNESS
    No.     UPPER     LOWER     UPPER     LOWER     UPPER     LOWER     UPPER     LOWER     UPPER     LOWER   CHANNEL      BANK

     1  5.000E+00 5.000E+00 1.000E+00 1.000E+00 4.850E+01 3.800E+01 2.000E+01 2.000E+01                     5.000E-02
     2  5.000E+00 5.000E+00 1.000E+00 1.000E+00 4.025E+01 3.800E+01 2.000E+01 2.000E+01                     5.000E-02
     3  5.000E+00 5.000E+00 1.000E+00 1.000E+00 3.800E+01 3.000E+01 2.000E+01 2.000E+01                     5.000E-02



 
 SOLVING FOR HEAD 


     9 CALLS TO PCG ROUTINE FOR TIME STEP   1 IN STRESS PERIOD    1
    36 TOTAL ITERATIONS

 OUTPUT CONTROL FOR STRESS PERIOD    1   TIME STEP    1
    SAVE BUDGET
    SAVE HEAD FOR ALL LAYERS
    PRINT HEAD FOR ALL LAYERS
 UBDSV2 SAVING "STREAMFLOW OUT  " ON UNIT  50 AT TIME STEP  1, STRESS PERIOD   1



 STREAM LISTING     PERIOD      1   STEP        1

 LAYER ROW COL. STREAM  RCH.  FLOW INTO     FLOW TO   FLOW OUT OF   OVRLND.     DIRECT     STREAM       STREAM     STREAM     STREAM   STREAMBED  STREAMBED
                SEG.NO.  NO.  STRM. RCH.    AQUIFER    STRM. RCH.    RUNOFF     PRECIP       ET          HEAD       DEPTH      WIDTH   CONDCTNC.   GRADIENT

   1   13    1     1     1    1.0000E+05 -6.0949E+03   1.0609E+05  0.000E+00  0.000E+00  0.000E+00  4.84086E+01  1.473E-01  2.000E+01  2.000E+04 -3.047E-01
   1   13    2     1     2    1.0609E+05 -7.5527E+03   1.1365E+05  0.000E+00  0.000E+00  0.000E+00  4.79371E+01  1.531E-01  2.000E+01  2.000E+04 -3.776E-01
   1   14    3     1     3    1.1365E+05 -2.1562E+03   1.1580E+05  0.000E+00  0.000E+00  0.000E+00  4.74639E+01  1.571E-01  2.000E+01  2.000E+04 -1.078E-01
   1   15    4     1     4    1.1580E+05 -2.1354E+03   1.1794E+05  0.000E+00  0.000E+00  0.000E+00  4.69884E+01  1.588E-01  2.000E+01  2.000E+04 -1.068E-01
   1   16    5     1     5    1.1794E+05 -6.8084E+03   1.2475E+05  0.000E+00  0.000E+00  0.000E+00  4.65147E+01  1.625E-01  2.000E+01  2.000E+04 -3.404E-01
   1   16    6     1     6    1.2475E+05 -3.4082E+03   1.2816E+05  0.000E+00  0.000E+00  0.000E+00  4.60415E+01  1.665E-01  2.000E+01  2.000E+04 -1.704E-01
   1   16    7     1     7    1.2816E+05 -1.0962E+03   1.2925E+05  0.000E+00  0.000E+00  0.000E+00  4.55660E+01  1.683E-01  2.000E+01  2.000E+04 -5.481E-02
   1   16    8     1     8    1.2925E+05 -3.0067E+03   1.3226E+05  0.000E+00  0.000E+00  0.000E+00  4.50904E+01  1.699E-01  2.000E+01  2.000E+04 -1.503E-01
   1   16    9     1     9    1.3226E+05 -3.3496E+03   1.3561E+05  0.000E+00  0.000E+00  0.000E+00  4.46156E+01  1.724E-01  2.000E+01  2.000E+04 -1.675E-01
   1   16   10     1    10    1.3561E+05 -3.2593E+03   1.3887E+05  0.000E+00  0.000E+00  0.000E+00  4.41408E+01  1.749E-01  2.000E+01  2.000E+04 -1.630E-01
   1   16   11     1    11    1.3887E+05 -3.1595E+03   1.4203E+05  0.000E+00  0.000E+00  0.000E+00  4.36660E+01  1.774E-01  2.000E+01  2.000E+04 -1.580E-01
   1   16   12     1    12    1.4203E+05 -5.9822E+03   1.4801E+05  0.000E+00  0.000E+00  0.000E+00  4.31922E+01  1.808E-01  2.000E+01  2.000E+04 -2.991E-01
   1   15   13     1    13    1.4801E+05 -6.9856E+03   1.5499E+05  0.000E+00  0.000E+00  0.000E+00  4.27197E+01  1.856E-01  2.000E+01  2.000E+04 -3.493E-01
   1   14   14     1    14    1.5499E+05 -7.6911E+03   1.6269E+05  0.000E+00  0.000E+00  0.000E+00  4.22478E+01  1.909E-01  2.000E+01  2.000E+04 -3.846E-01
   1   13   15     1    15    1.6269E+05 -8.1364E+03   1.7082E+05  0.000E+00  0.000E+00  0.000E+00  4.17761E+01  1.966E-01  2.000E+01  2.000E+04 -4.068E-01
   1   12   16     1    16    1.7082E+05 -8.8699E+03   1.7969E+05  0.000E+00  0.000E+00  0.000E+00  4.13048E+01  2.025E-01  2.000E+01  2.000E+04 -4.435E-01
   1   12   17     1    17    1.7969E+05 -6.3045E+03   1.8600E+05  0.000E+00  0.000E+00  0.000E+00  4.08328E+01  2.078E-01  2.000E+01  2.000E+04 -3.152E-01
   1   12   18     1    18    1.8600E+05 -6.1551E+03   1.9215E+05  0.000E+00  0.000E+00  0.000E+00  4.03597E+01  2.120E-01  2.000E+01  2.000E+04 -3.078E-01
   1   12   19     1    19    1.9215E+05 -7.7626E+03   1.9991E+05  0.000E+00  0.000E+00  0.000E+00  3.98871E+01  2.166E-01  2.000E+01  2.000E+04 -3.881E-01
   1   13   20     1    20    1.9991E+05 -6.8361E+03   2.0675E+05  0.000E+00  0.000E+00  0.000E+00  3.94146E+01  2.214E-01  2.000E+01  2.000E+04 -3.418E-01
   1   14   21     1    21    2.0675E+05 -6.3927E+03   2.1314E+05  0.000E+00  0.000E+00  0.000E+00  3.89416E+01  2.257E-01  2.000E+01  2.000E+04 -3.196E-01
   1   14   22     1    22    2.1314E+05  3.6880E+03   2.0945E+05  0.000E+00  0.000E+00  0.000E+00  3.84652E+01  2.266E-01  2.000E+01  2.000E+04  1.844E-01
   1    9   30     2     1    5.0000E+04 -4.3317E+03   5.4332E+04  0.000E+00  0.000E+00  0.000E+00  4.02439E+01  1.189E-01  2.000E+01  2.000E+04 -2.166E-01
   1    9   29     2     2    5.4332E+04 -4.5982E+03   5.8930E+04  0.000E+00  0.000E+00  0.000E+00  3.99999E+01  1.249E-01  2.000E+01  2.000E+04 -2.299E-01
   1    9   28     2     3    5.8930E+04 -4.8502E+03   6.3780E+04  0.000E+00  0.000E+00  0.000E+00  3.97560E+01  1.310E-01  2.000E+01  2.000E+04 -2.425E-01
   1    9   27     2     4    6.3780E+04 -7.7528E+03   7.1533E+04  0.000E+00  0.000E+00  0.000E+00  3.95139E+01  1.389E-01  2.000E+01  2.000E+04 -3.876E-01
   1   10   26     2     5    7.1533E+04 -5.2729E+03   7.6806E+04  0.000E+00  0.000E+00  0.000E+00  3.92718E+01  1.468E-01  2.000E+01  2.000E+04 -2.636E-01
   1   11   25     2     6    7.6806E+04 -3.7184E+03   8.0524E+04  0.000E+00  0.000E+00  0.000E+00  3.90271E+01  1.521E-01  2.000E+01  2.000E+04 -1.859E-01
   1   12   24     2     7    8.0524E+04 -4.6820E+03   8.5206E+04  0.000E+00  0.000E+00  0.000E+00  3.87819E+01  1.569E-01  2.000E+01  2.000E+04 -2.341E-01
   1   13   23     2     8    8.5206E+04 -1.6200E+03   8.6826E+04  0.000E+00  0.000E+00  0.000E+00  3.85354E+01  1.604E-01  2.000E+01  2.000E+04 -8.100E-02
   1   14   22     2     9    8.6826E+04  1.0899E+02   8.6717E+04  0.000E+00  0.000E+00  0.000E+00  3.82863E+01  1.613E-01  2.000E+01  2.000E+04  5.450E-03
   1   14   22     3     1    2.9617E+05 -9.8545E+03   3.0603E+05  0.000E+00  0.000E+00  0.000E+00  3.77881E+01  2.326E-01  2.000E+01  2.000E+04 -4.927E-01
   1   15   23     3     2    3.0603E+05 -1.9769E+03   3.0800E+05  0.000E+00  0.000E+00  0.000E+00  3.69020E+01  2.353E-01  2.000E+01  2.000E+04 -9.885E-02
   1   15   24     3     3    3.0800E+05 -1.5075E+03   3.0951E+05  0.000E+00  0.000E+00  0.000E+00  3.60139E+01  2.361E-01  2.000E+01  2.000E+04 -7.538E-02
   1   15   25     3     4    3.0951E+05 -1.5177E+03   3.1103E+05  0.000E+00  0.000E+00  0.000E+00  3.51257E+01  2.368E-01  2.000E+01  2.000E+04 -7.588E-02
   1   15   26     3     5    3.1103E+05 -1.5466E+03   3.1258E+05  0.000E+00  0.000E+00  0.000E+00  3.42375E+01  2.375E-01  2.000E+01  2.000E+04 -7.733E-02
   1   16   27     3     6    3.1258E+05 -1.5684E+03   3.1414E+05  0.000E+00  0.000E+00  0.000E+00  3.33493E+01  2.382E-01  2.000E+01  2.000E+04 -7.842E-02
   1   17   28     3     7    3.1414E+05 -4.0058E+03   3.1815E+05  0.000E+00  0.000E+00  0.000E+00  3.24617E+01  2.395E-01  2.000E+01  2.000E+04 -2.003E-01
   1   18   29     3     8    3.1815E+05 -7.3591E+03   3.2551E+05  0.000E+00  0.000E+00  0.000E+00  3.15754E+01  2.420E-01  2.000E+01  2.000E+04 -3.680E-01
   1   18   30     3     9    3.2551E+05 -6.4847E+03   3.3199E+05  0.000E+00  0.000E+00  0.000E+00  3.06896E+01  2.451E-01  2.000E+01  2.000E+04 -3.242E-01



1
              HEAD IN LAYER   1 AT END OF TIME STEP   1 IN STRESS PERIOD    1
  ---------------------------------------------------------------------------

          1      2      3      4      5      6      7      8      9     10
         11     12     13     14     15     16     17     18     19     20
         21     22     23     24     25     26     27     28     29     30
 .........................................................................
   1  ****** ****** ****** ****** ****** ****** ****** ****** ****** ******
      ****** ****** ****** ****** ****** ****** ****** ****** ****** ******
      ****** ****** ****** ****** ****** ****** ****** ****** ****** ******
   2  ****** ****** ****** ****** ****** ****** ****** ****** ****** ******
      ****** ****** ****** ****** ****** ****** ****** ****** ****** ******
      ****** ****** ****** ****** ****** ****** ****** ****** ****** ******
   3  ****** ****** ****** ****** ****** ****** ****** ****** ****** ******
      ****** ****** ****** ****** ****** ****** ****** ****** ****** ******
      ****** ****** ****** ****** ****** ****** ****** ****** ****** ******
   4  ****** ****** ****** ****** ****** ****** ****** ****** ****** ******
      ****** ****** ****** ****** ****** ****** ****** ****** ****** ******
      ****** ****** ****** ****** ****** ****** ****** ****** ****** ******
   5  ****** ****** ****** ****** ****** ****** ****** ****** ****** ******
      ****** ****** ****** ****** ****** ****** ****** ****** ****** ******
      ****** ****** ****** ****** ****** ****** ****** ****** ****** ******
   6  ****** ****** ****** ****** ****** ****** ****** ****** ****** ******
      ****** ****** ****** ****** ****** ****** ****** ****** ****** ******
      ****** ****** ****** ****** ****** ****** ****** ****** ****** ******
   7  ****** ****** ****** ****** ****** ****** ****** ****** ****** ******
      ****** ****** ****** ****** ****** ****** ****** ****** ****** ******
      ****** ****** ****** ****** ****** ****** ****** ****** ****** ******
   8  ****** ****** ****** ****** ****** ****** ****** ****** ****** ******
      ****** ****** ****** ****** ****** ****** ****** ****** ****** ******
      ****** ****** ****** ****** ****** ****** ****** ****** ****** ******
   9  ****** ****** ****** ****** ****** ****** ****** ****** ****** ******
      ****** ****** ****** ****** ****** ****** ****** ****** ****** ******
      ****** ****** ****** ****** ****** ****** ****** ****** ****** ******
  10  ****** ****** ****** ****** ****** ****** ****** ****** ****** ******
      ****** ****** ****** ****** ****** ****** ****** ****** ****** ******
      ****** ****** ****** ****** ****** ****** ****** ****** ****** ******
  11  ****** ****** ****** ****** ****** ****** ****** ****** ****** ******
      ****** ****** ****** ****** ****** ****** ****** ****** ****** ******
      ****** ****** ****** ****** ****** ****** ****** ****** ****** ******
  12  ****** ****** ****** ****** ****** ****** ****** ****** ****** ******
      ****** ****** ****** ****** ****** ****** ****** ****** ****** ******
      ****** ****** ****** ****** ****** ****** ****** ****** ****** ******
  13  ****** ****** ****** ****** ****** ****** ****** ****** ****** ******
      ****** ****** ****** ****** ****** ****** ****** ****** ****** ******
      ****** ****** ****** ****** ****** ****** ****** ****** ****** ******
  14  ****** ****** ****** ****** ****** ****** ****** ****** ****** ******
      ****** ****** ****** ****** ****** ****** ****** ****** ****** ******
      ****** ****** ****** ****** ****** ****** ****** ****** ****** ******
  15  ****** ****** ****** ****** ****** ****** ****** ****** ****** ******
      ****** ****** ****** ****** ****** ****** ****** ****** ****** ******
      ****** ****** ****** ****** ****** ****** ****** ****** ****** ******
  16  ****** ****** ****** ****** ****** ****** ****** ****** ****** ******
      ****** ****** ****** ****** ****** ****** ****** ****** ****** ******
      ****** ****** ****** ****** ****** ****** ****** ****** ****** ******
  17  ****** ****** ****** ****** ****** ****** ****** ****** ****** ******
      ****** ****** ****** ****** ****** ****** ****** ****** ****** ******
      ****** ****** ****** ****** ****** ****** ****** ****** ****** ******
  18  ****** ****** ****** ****** ****** ****** ****** ****** ****** ******
      ****** ****** ****** ****** ****** ****** ****** ****** ****** ******
      ****** ****** ****** ****** ****** ****** ****** ****** ****** ******
  19  ****** ****** ****** ****** ****** ****** ****** ****** ****** ******
      ****** ****** ****** ****** ****** ****** ****** ****** ****** ******
      ****** ****** ****** ****** ****** ****** ****** ****** ****** ******
  20  ****** ****** ****** ****** ****** ****** ****** ****** ****** ******
      ****** ****** ****** ****** ****** ****** ****** ****** ****** ******
      ****** ****** ****** ****** ****** ****** ****** ****** ****** ******
  21  ****** ****** ****** ****** ****** ****** ****** ****** ****** ******
      ****** ****** ****** ****** ****** ****** ****** ****** ****** ******
      ****** ****** ****** ****** ****** ****** ****** ****** ****** ******
  22  ****** ****** ****** ****** ****** ****** ****** ****** ****** ******
      ****** ****** ****** ****** ****** ****** ****** ****** ****** ******
      ****** ****** ****** ****** ****** ****** ****** ****** ****** ******
  23  ****** ****** ****** ****** ****** ****** ****** ****** ****** ******
      ****** ****** ****** ****** ****** ****** ****** ****** ****** ******
      ****** ****** ****** ****** ****** ****** ****** ****** ****** ******
  24  ****** ****** ****** ****** ****** ****** ****** ****** ****** ******
      ****** ****** ****** ****** ****** ****** ****** ****** ****** ******
      ****** ****** ****** ****** ****** ****** ****** ****** ****** ******
  25  ****** ****** ****** ****** ****** ****** ****** ****** ****** ******
      ****** ****** ****** ****** ****** ****** ****** ****** ****** ******
      ****** ****** ****** ****** ****** ****** ****** ****** ****** ******

 HEAD WILL BE SAVED ON UNIT   51 AT END OF TIME STEP    1, STRESS PERIOD    1
1
  VOLUMETRIC BUDGET FOR ENTIRE MODEL AT END OF TIME STEP    1, STRESS PERIOD   1
  ------------------------------------------------------------------------------

     CUMULATIVE VOLUMES      L**3       RATES FOR THIS TIME STEP      L**3/T
     ------------------                 ------------------------

           IN:                                      IN:
           ---                                      ---
             STORAGE =    17522561.8836               STORAGE =      190462.6292
       CONSTANT HEAD =     1119919.3610         CONSTANT HEAD =       12173.0365
               WELLS =           0.0000                 WELLS =           0.0000
            RECHARGE =     1269600.0000              RECHARGE =       13800.0000
      STREAM LEAKAGE =      349324.7970        STREAM LEAKAGE =        3797.0087

            TOTAL IN =    20261406.0417              TOTAL IN =      220232.6744

          OUT:                                     OUT:
          ----                                     ----
             STORAGE =           0.0000               STORAGE =           0.0000
       CONSTANT HEAD =           0.0000         CONSTANT HEAD =           0.0000
               WELLS =     3168692.1090                 WELLS =       34442.3055
            RECHARGE =           0.0000              RECHARGE =           0.0000
      STREAM LEAKAGE =    17092714.2353        STREAM LEAKAGE =      185790.3721

           TOTAL OUT =    20261406.3443             TOTAL OUT =      220232.6777

            IN - OUT =          -0.3026              IN - OUT =      -3.2893E-03

 PERCENT DISCREPANCY =          -0.00     PERCENT DISCREPANCY =          -0.00






         TIME SUMMARY AT END OF TIME STEP    1 IN STRESS PERIOD    1
                    SECONDS     MINUTES      HOURS       DAYS        YEARS
                    -----------------------------------------------------------
   TIME STEP LENGTH 7.94880E+06 1.32480E+05  2208.0      92.000     0.25188    
 STRESS PERIOD TIME 7.94880E+06 1.32480E+05  2208.0      92.000     0.25188    
         TOTAL TIME 7.94880E+06 1.32480E+05  2208.0      92.000     0.25188    
1
1
                            STRESS PERIOD NO.    2, LENGTH =   91.00000    
                            -----------------------------------------------

                              NUMBER OF TIME STEPS =     1

                               MULTIPLIER FOR DELT =     1.500

                            INITIAL TIME STEP SIZE =   91.00000    

 WELL NO.  LAYER   ROW   COL   STRESS RATE         
 --------------------------------------------------
      1      1     19     11     -0.1013E+05
      2      1     15     28      -7561.    
      3      1     15      7      -7227.    
      4      1     12     26      -9522.    

      4 WELLS

                 RECHARGE =  2.000000E-03

 REUSING STREAM SEGMENT DATA FROM LAST STRESS PERIOD
 
 SOLVING FOR HEAD 


     7 CALLS TO PCG ROUTINE FOR TIME STEP   1 IN STRESS PERIOD    2
    27 TOTAL ITERATIONS

 OUTPUT CONTROL FOR STRESS PERIOD    2   TIME STEP    1
    SAVE BUDGET
    SAVE HEAD FOR ALL LAYERS
    PRINT HEAD FOR ALL LAYERS
 UBDSV2 SAVING "STREAMFLOW OUT  " ON UNIT  50 AT TIME STEP  1, STRESS PERIOD   2



 STREAM LISTING     PERIOD      2   STEP        1

 LAYER ROW COL. STREAM  RCH.  FLOW INTO     FLOW TO   FLOW OUT OF   OVRLND.     DIRECT     STREAM       STREAM     STREAM     STREAM   STREAMBED  STREAMBED
                SEG.NO.  NO.  STRM. RCH.    AQUIFER    STRM. RCH.    RUNOFF     PRECIP       ET          HEAD       DEPTH      WIDTH   CONDCTNC.   GRADIENT

   1   13    1     1     1    1.0000E+05 -3.9517E+03   1.0395E+05  0.000E+00  0.000E+00  0.000E+00  4.84077E+01  1.464E-01  2.000E+01  2.000E+04 -1.976E-01
   1   13    2     1     2    1.0395E+05 -5.1879E+03   1.0914E+05  0.000E+00  0.000E+00  0.000E+00  4.79344E+01  1.503E-01  2.000E+01  2.000E+04 -2.594E-01
   1   14    3     1     3    1.0914E+05 -1.0345E+03   1.1017E+05  0.000E+00  0.000E+00  0.000E+00  4.74597E+01  1.529E-01  2.000E+01  2.000E+04 -5.172E-02
   1   15    4     1     4    1.1017E+05 -9.3209E+02   1.1111E+05  0.000E+00  0.000E+00  0.000E+00  4.69832E+01  1.537E-01  2.000E+01  2.000E+04 -4.660E-02
   1   16    5     1     5    1.1111E+05 -3.6654E+03   1.1477E+05  0.000E+00  0.000E+00  0.000E+00  4.65079E+01  1.556E-01  2.000E+01  2.000E+04 -1.833E-01
   1   16    6     1     6    1.1477E+05 -1.3314E+03   1.1610E+05  0.000E+00  0.000E+00  0.000E+00  4.60327E+01  1.577E-01  2.000E+01  2.000E+04 -6.657E-02
   1   16    7     1     7    1.1610E+05  1.1042E+03   1.1500E+05  0.000E+00  0.000E+00  0.000E+00  4.55555E+01  1.578E-01  2.000E+01  2.000E+04  5.521E-02
   1   16    8     1     8    1.1500E+05 -9.7456E+02   1.1597E+05  0.000E+00  0.000E+00  0.000E+00  4.50782E+01  1.577E-01  2.000E+01  2.000E+04 -4.873E-02
   1   16    9     1     9    1.1597E+05 -1.3892E+03   1.1736E+05  0.000E+00  0.000E+00  0.000E+00  4.46019E+01  1.587E-01  2.000E+01  2.000E+04 -6.946E-02
   1   16   10     1    10    1.1736E+05 -1.3021E+03   1.1866E+05  0.000E+00  0.000E+00  0.000E+00  4.41257E+01  1.598E-01  2.000E+01  2.000E+04 -6.510E-02
   1   16   11     1    11    1.1866E+05 -1.1793E+03   1.1984E+05  0.000E+00  0.000E+00  0.000E+00  4.36494E+01  1.608E-01  2.000E+01  2.000E+04 -5.896E-02
   1   16   12     1    12    1.1984E+05 -2.8355E+03   1.2268E+05  0.000E+00  0.000E+00  0.000E+00  4.31738E+01  1.624E-01  2.000E+01  2.000E+04 -1.418E-01
   1   15   13     1    13    1.2268E+05 -3.6438E+03   1.2632E+05  0.000E+00  0.000E+00  0.000E+00  4.26991E+01  1.650E-01  2.000E+01  2.000E+04 -1.822E-01
   1   14   14     1    14    1.2632E+05 -4.3075E+03   1.3063E+05  0.000E+00  0.000E+00  0.000E+00  4.22249E+01  1.681E-01  2.000E+01  2.000E+04 -2.154E-01
   1   13   15     1    15    1.3063E+05 -4.8124E+03   1.3544E+05  0.000E+00  0.000E+00  0.000E+00  4.17512E+01  1.717E-01  2.000E+01  2.000E+04 -2.406E-01
   1   12   16     1    16    1.3544E+05 -5.7970E+03   1.4124E+05  0.000E+00  0.000E+00  0.000E+00  4.12780E+01  1.758E-01  2.000E+01  2.000E+04 -2.899E-01
   1   12   17     1    17    1.4124E+05 -3.8548E+03   1.4509E+05  0.000E+00  0.000E+00  0.000E+00  4.08044E+01  1.794E-01  2.000E+01  2.000E+04 -1.927E-01
   1   12   18     1    18    1.4509E+05 -3.7027E+03   1.4880E+05  0.000E+00  0.000E+00  0.000E+00  4.03300E+01  1.822E-01  2.000E+01  2.000E+04 -1.851E-01
   1   12   19     1    19    1.4880E+05 -4.7203E+03   1.5352E+05  0.000E+00  0.000E+00  0.000E+00  3.98558E+01  1.853E-01  2.000E+01  2.000E+04 -2.360E-01
   1   13   20     1    20    1.5352E+05 -3.7614E+03   1.5728E+05  0.000E+00  0.000E+00  0.000E+00  3.93816E+01  1.884E-01  2.000E+01  2.000E+04 -1.881E-01
   1   14   21     1    21    1.5728E+05 -3.6705E+03   1.6095E+05  0.000E+00  0.000E+00  0.000E+00  3.89070E+01  1.911E-01  2.000E+01  2.000E+04 -1.835E-01
   1   14   22     1    22    1.6095E+05  4.4451E+03   1.5650E+05  0.000E+00  0.000E+00  0.000E+00  3.84295E+01  1.909E-01  2.000E+01  2.000E+04  2.223E-01
   1    9   30     2     1    5.0000E+04 -1.4591E+03   5.1459E+04  0.000E+00  0.000E+00  0.000E+00  4.02419E+01  1.169E-01  2.000E+01  2.000E+04 -7.296E-02
   1    9   29     2     2    5.1459E+04 -1.7460E+03   5.3205E+04  0.000E+00  0.000E+00  0.000E+00  3.99941E+01  1.191E-01  2.000E+01  2.000E+04 -8.730E-02
   1    9   28     2     3    5.3205E+04 -2.0357E+03   5.5241E+04  0.000E+00  0.000E+00  0.000E+00  3.97466E+01  1.216E-01  2.000E+01  2.000E+04 -1.018E-01
   1    9   27     2     4    5.5241E+04 -4.2323E+03   5.9473E+04  0.000E+00  0.000E+00  0.000E+00  3.95008E+01  1.258E-01  2.000E+01  2.000E+04 -2.116E-01
   1   10   26     2     5    5.9473E+04 -1.4615E+03   6.0935E+04  0.000E+00  0.000E+00  0.000E+00  3.92545E+01  1.295E-01  2.000E+01  2.000E+04 -7.307E-02
   1   11   25     2     6    6.0935E+04 -3.1568E+01   6.0966E+04  0.000E+00  0.000E+00  0.000E+00  3.90055E+01  1.305E-01  2.000E+01  2.000E+04 -1.578E-03
   1   12   24     2     7    6.0966E+04 -1.4846E+03   6.2451E+04  0.000E+00  0.000E+00  0.000E+00  3.87565E+01  1.315E-01  2.000E+01  2.000E+04 -7.423E-02
   1   13   23     2     8    6.2451E+04 -5.7192E+02   6.3023E+04  0.000E+00  0.000E+00  0.000E+00  3.85078E+01  1.328E-01  2.000E+01  2.000E+04 -2.860E-02
   1   14   22     2     9    6.3023E+04  1.0049E+03   6.2018E+04  0.000E+00  0.000E+00  0.000E+00  3.82575E+01  1.325E-01  2.000E+01  2.000E+04  5.025E-02
   1   14   22     3     1    2.1852E+05 -9.1484E+03   2.2767E+05  0.000E+00  0.000E+00  0.000E+00  3.77498E+01  1.943E-01  2.000E+01  2.000E+04 -4.574E-01
   1   15   23     3     2    2.2767E+05 -1.0311E+03   2.2870E+05  0.000E+00  0.000E+00  0.000E+00  3.68636E+01  1.969E-01  2.000E+01  2.000E+04 -5.155E-02
   1   15   24     3     3    2.2870E+05 -6.2942E+02   2.2933E+05  0.000E+00  0.000E+00  0.000E+00  3.59751E+01  1.973E-01  2.000E+01  2.000E+04 -3.147E-02
   1   15   25     3     4    2.2933E+05 -5.8101E+02   2.2991E+05  0.000E+00  0.000E+00  0.000E+00  3.50865E+01  1.977E-01  2.000E+01  2.000E+04 -2.905E-02
   1   15   26     3     5    2.2991E+05 -3.3802E+02   2.3025E+05  0.000E+00  0.000E+00  0.000E+00  3.41979E+01  1.979E-01  2.000E+01  2.000E+04 -1.690E-02
   1   16   27     3     6    2.3025E+05 -1.9437E+02   2.3044E+05  0.000E+00  0.000E+00  0.000E+00  3.33091E+01  1.980E-01  2.000E+01  2.000E+04 -9.718E-03
   1   17   28     3     7    2.3044E+05 -2.5298E+02   2.3070E+05  0.000E+00  0.000E+00  0.000E+00  3.24204E+01  1.981E-01  2.000E+01  2.000E+04 -1.265E-02
   1   18   29     3     8    2.3070E+05 -4.2662E+03   2.3496E+05  0.000E+00  0.000E+00  0.000E+00  3.15326E+01  1.993E-01  2.000E+01  2.000E+04 -2.133E-01
   1   18   30     3     9    2.3496E+05 -3.8155E+03   2.3878E+05  0.000E+00  0.000E+00  0.000E+00  3.06458E+01  2.014E-01  2.000E+01  2.000E+04 -1.908E-01



1
              HEAD IN LAYER   1 AT END OF TIME STEP   1 IN STRESS PERIOD    2
  ---------------------------------------------------------------------------

          1      2      3      4      5      6      7      8      9     10
         11     12     13     14     15     16     17     18     19     20
         21     22     23     24     25     26     27     28     29     30
 .........................................................................
   1  ****** ****** ****** ****** ****** ****** ****** ****** ****** ******
      ****** ****** ****** ****** ****** ****** ****** ****** ****** ******
      ****** ****** ****** ****** ****** ****** ****** ****** ****** ******
   2  ****** ****** ****** ****** ****** ****** ****** ****** ****** ******
      ****** ****** ****** ****** ****** ****** ****** ****** ****** ******
      ****** ****** ****** ****** ****** ****** ****** ****** ****** ******
   3  ****** ****** ****** ****** ****** ****** ****** ****** ****** ******
      ****** ****** ****** ****** ****** ****** ****** ****** ****** ******
      ****** ****** ****** ****** ****** ****** ****** ****** ****** ******
   4  ****** ****** ****** ****** ****** ****** ****** ****** ****** ******
      ****** ****** ****** ****** ****** ****** ****** ****** ****** ******
      ****** ****** ****** ****** ****** ****** ****** ****** ****** ******
   5  ****** ****** ****** ****** ****** ****** ****** ****** ****** ******
      ****** ****** ****** ****** ****** ****** ****** ****** ****** ******
      ****** ****** ****** ****** ****** ****** ****** ****** ****** ******
   6  ****** ****** ****** ****** ****** ****** ****** ****** ****** ******
      ****** ****** ****** ****** ****** ****** ****** ****** ****** ******
      ****** ****** ****** ****** ****** ****** ****** ****** ****** ******
   7  ****** ****** ****** ****** ****** ****** ****** ****** ****** ******
      ****** ****** ****** ****** ****** ****** ****** ****** ****** ******
      ****** ****** ****** ****** ****** ****** ****** ****** ****** ******
   8  ****** ****** ****** ****** ****** ****** ****** ****** ****** ******
      ****** ****** ****** ****** ****** ****** ****** ****** ****** ******
      ****** ****** ****** ****** ****** ****** ****** ****** ****** ******
   9  ****** ****** ****** ****** ****** ****** ****** ****** ****** ******
      ****** ****** ****** ****** ****** ****** ****** ****** ****** ******
      ****** ****** ****** ****** ****** ****** ****** ****** ****** ******
  10  ****** ****** ****** ****** ****** ****** ****** ****** ****** ******
      ****** ****** ****** ****** ****** ****** ****** ****** ****** ******
      ****** ****** ****** ****** ****** ****** ****** ****** ****** ******
  11  ****** ****** ****** ****** ****** ****** ****** ****** ****** ******
      ****** ****** ****** ****** ****** ****** ****** ****** ****** ******
      ****** ****** ****** ****** ****** ****** ****** ****** ****** ******
  12  ****** ****** ****** ****** ****** ****** ****** ****** ****** ******
      ****** ****** ****** ****** ****** ****** ****** ****** ****** ******
      ****** ****** ****** ****** ****** ****** ****** ****** ****** ******
  13  ****** ****** ****** ****** ****** ****** ****** ****** ****** ******
      ****** ****** ****** ****** ****** ****** ****** ****** ****** ******
      ****** ****** ****** ****** ****** ****** ****** ****** ****** ******
  14  ****** ****** ****** ****** ****** ****** ****** ****** ****** ******
      ****** ****** ****** ****** ****** ****** ****** ****** ****** ******
      ****** ****** ****** ****** ****** ****** ****** ****** ****** ******
  15  ****** ****** ****** ****** ****** ****** ****** ****** ****** ******
      ****** ****** ****** ****** ****** ****** ****** ****** ****** ******
      ****** ****** ****** ****** ****** ****** ****** ****** ****** ******
  16  ****** ****** ****** ****** ****** ****** ****** ****** ****** ******
      ****** ****** ****** ****** ****** ****** ****** ****** ****** ******
      ****** ****** ****** ****** ****** ****** ****** ****** ****** ******
  17  ****** ****** ****** ****** ****** ****** ****** ****** ****** ******
      ****** ****** ****** ****** ****** ****** ****** ****** ****** ******
      ****** ****** ****** ****** ****** ****** ****** ****** ****** ******
  18  ****** ****** ****** ****** ****** ****** ****** ****** ****** ******
      ****** ****** ****** ****** ****** ****** ****** ****** ****** ******
      ****** ****** ****** ****** ****** ****** ****** ****** ****** ******
  19  ****** ****** ****** ****** ****** ****** ****** ****** ****** ******
      ****** ****** ****** ****** ****** ****** ****** ****** ****** ******
      ****** ****** ****** ****** ****** ****** ****** ****** ****** ******
  20  ****** ****** ****** ****** ****** ****** ****** ****** ****** ******
      ****** ****** ****** ****** ****** ****** ****** ****** ****** ******
      ****** ****** ****** ****** ****** ****** ****** ****** ****** ******
  21  ****** ****** ****** ****** ****** ****** ****** ****** ****** ******
      ****** ****** ****** ****** ****** ****** ****** ****** ****** ******
      ****** ****** ****** ****** ****** ****** ****** ****** ****** ******
  22  ****** ****** ****** ****** ****** ****** ****** ****** ****** ******
      ****** ****** ****** ****** ****** ****** ****** ****** ****** ******
      ****** ****** ****** ****** ****** ****** ****** ****** ****** ******
  23  ****** ****** ****** ****** ****** ****** ****** ****** ****** ******
      ****** ****** ****** ****** ****** ****** ****** ****** ****** ******
      ****** ****** ****** ****** ****** ****** ****** ****** ****** ******
  24  ****** ****** ****** ****** ****** ****** ****** ****** ****** ******
      ****** ****** ****** ****** ****** ****** ****** ****** ****** ******
      ****** ****** ****** ****** ****** ****** ****** ****** ****** ******
  25  ****** ****** ****** ****** ****** ****** ****** ****** ****** ******
      ****** ****** ****** ****** ****** ****** ****** ****** ****** ******
      ****** ****** ****** ****** ****** ****** ****** ****** ****** ******

 HEAD WILL BE SAVED ON UNIT   51 AT END OF TIME STEP    1, STRESS PERIOD    2
1
  VOLUMETRIC BUDGET FOR ENTIRE MODEL AT END OF TIME STEP    1, STRESS PERIOD   2
  ------------------------------------------------------------------------------

     CUMULATIVE VOLUMES      L**3       RATES FOR THIS TIME STEP      L**3/T
     ------------------                 ------------------------

           IN:                                      IN:
           ---                                      ---
             STORAGE =    22227681.6184               STORAGE =       51704.6125
       CONSTANT HEAD =     2604792.5446         CONSTANT HEAD =       16317.2877
               WELLS =           0.0000                 WELLS =           0.0000
            RECHARGE =     6292800.0000              RECHARGE =       55200.0000
      STREAM LEAKAGE =      945759.2970        STREAM LEAKAGE =        6554.2253

            TOTAL IN =    32071033.4600              TOTAL IN =      129776.1255

          OUT:                                     OUT:
          ----                                     ----
             STORAGE =           0.0000               STORAGE =           0.0000
       CONSTANT HEAD =           0.0000         CONSTANT HEAD =           0.0000
               WELLS =     6302941.9125                 WELLS =       34442.3055
            RECHARGE =           0.0000              RECHARGE =           0.0000
      STREAM LEAKAGE =    25768092.8848        STREAM LEAKAGE =       95333.8313

           TOTAL OUT =    32071034.7973             TOTAL OUT =      129776.1368

            IN - OUT =          -1.3373              IN - OUT =      -1.1370E-02

 PERCENT DISCREPANCY =          -0.00     PERCENT DISCREPANCY =          -0.00






         TIME SUMMARY AT END OF TIME STEP    1 IN STRESS PERIOD    2
                    SECONDS     MINUTES      HOURS       DAYS        YEARS
                    -----------------------------------------------------------
   TIME STEP LENGTH 7.86240E+06 1.31040E+05  2184.0      91.000     0.24914    
 STRESS PERIOD TIME 7.86240E+06 1.31040E+05  2184.0      91.000     0.24914    
         TOTAL TIME 1.58112E+07 2.63520E+05  4392.0      183.00     0.50103    
1
1
                            STRESS PERIOD NO.    3, LENGTH =   91.00000    
                            -----------------------------------------------

                              NUMBER OF TIME STEPS =     1

                               MULTIPLIER FOR DELT =     1.500

                            INITIAL TIME STEP SIZE =   91.00000    

 WELL NO.  LAYER   ROW   COL   STRESS RATE         
 --------------------------------------------------
      1      1     19     11     -0.1013E+05
      2      1     15     28      -7561.    
      3      1     15      7      -7227.    
      4      1     12     26      -9522.    

      4 WELLS

                 RECHARGE =   0.00000    

 REUSING STREAM SEGMENT DATA FROM LAST STRESS PERIOD
 
 SOLVING FOR HEAD 


     7 CALLS TO PCG ROUTINE FOR TIME STEP   1 IN STRESS PERIOD    3
    27 TOTAL ITERATIONS

 OUTPUT CONTROL FOR STRESS PERIOD    3   TIME STEP    1
    SAVE BUDGET
    SAVE HEAD FOR ALL LAYERS
    PRINT HEAD FOR ALL LAYERS
 UBDSV2 SAVING "STREAMFLOW OUT  " ON UNIT  50 AT TIME STEP  1, STRESS PERIOD   3



 STREAM LISTING     PERIOD      3   STEP        1

 LAYER ROW COL. STREAM  RCH.  FLOW INTO     FLOW TO   FLOW OUT OF   OVRLND.     DIRECT     STREAM       STREAM     STREAM     STREAM   STREAMBED  STREAMBED
                SEG.NO.  NO.  STRM. RCH.    AQUIFER    STRM. RCH.    RUNOFF     PRECIP       ET          HEAD       DEPTH      WIDTH   CONDCTNC.   GRADIENT

   1   13    1     1     1    1.0000E+05 -2.6864E+03   1.0269E+05  0.000E+00  0.000E+00  0.000E+00  4.84072E+01  1.458E-01  2.000E+01  2.000E+04 -1.343E-01
   1   13    2     1     2    1.0269E+05 -3.7585E+03   1.0644E+05  0.000E+00  0.000E+00  0.000E+00  4.79327E+01  1.486E-01  2.000E+01  2.000E+04 -1.879E-01
   1   14    3     1     3    1.0644E+05 -5.4928E+02   1.0699E+05  0.000E+00  0.000E+00  0.000E+00  4.74572E+01  1.504E-01  2.000E+01  2.000E+04 -2.746E-02
   1   15    4     1     4    1.0699E+05 -3.8955E+02   1.0738E+05  0.000E+00  0.000E+00  0.000E+00  4.69804E+01  1.508E-01  2.000E+01  2.000E+04 -1.948E-02
   1   16    5     1     5    1.0738E+05 -1.7690E+03   1.0915E+05  0.000E+00  0.000E+00  0.000E+00  4.65040E+01  1.517E-01  2.000E+01  2.000E+04 -8.845E-02
   1   16    6     1     6    1.0915E+05 -2.3330E+02   1.0939E+05  0.000E+00  0.000E+00  0.000E+00  4.60276E+01  1.526E-01  2.000E+01  2.000E+04 -1.166E-02
   1   16    7     1     7    1.0939E+05  2.1653E+03   1.0722E+05  0.000E+00  0.000E+00  0.000E+00  4.55495E+01  1.517E-01  2.000E+01  2.000E+04  1.083E-01
   1   16    8     1     8    1.0722E+05  5.2482E+01   1.0717E+05  0.000E+00  0.000E+00  0.000E+00  4.50713E+01  1.508E-01  2.000E+01  2.000E+04  2.624E-03
   1   16    9     1     9    1.0717E+05 -3.8501E+02   1.0755E+05  0.000E+00  0.000E+00  0.000E+00  4.45941E+01  1.509E-01  2.000E+01  2.000E+04 -1.925E-02
   1   16   10     1    10    1.0755E+05 -3.1123E+02   1.0786E+05  0.000E+00  0.000E+00  0.000E+00  4.41172E+01  1.512E-01  2.000E+01  2.000E+04 -1.556E-02
   1   16   11     1    11    1.0786E+05 -1.9076E+02   1.0806E+05  0.000E+00  0.000E+00  0.000E+00  4.36401E+01  1.515E-01  2.000E+01  2.000E+04 -9.538E-03
   1   16   12     1    12    1.0806E+05 -1.1405E+03   1.0920E+05  0.000E+00  0.000E+00  0.000E+00  4.31634E+01  1.520E-01  2.000E+01  2.000E+04 -5.702E-02
   1   15   13     1    13    1.0920E+05 -1.9514E+03   1.1115E+05  0.000E+00  0.000E+00  0.000E+00  4.26874E+01  1.533E-01  2.000E+01  2.000E+04 -9.757E-02
   1   14   14     1    14    1.1115E+05 -2.5960E+03   1.1374E+05  0.000E+00  0.000E+00  0.000E+00  4.22120E+01  1.552E-01  2.000E+01  2.000E+04 -1.298E-01
   1   13   15     1    15    1.1374E+05 -3.1203E+03   1.1686E+05  0.000E+00  0.000E+00  0.000E+00  4.17371E+01  1.576E-01  2.000E+01  2.000E+04 -1.560E-01
   1   12   16     1    16    1.1686E+05 -4.0740E+03   1.2094E+05  0.000E+00  0.000E+00  0.000E+00  4.12628E+01  1.605E-01  2.000E+01  2.000E+04 -2.037E-01
   1   12   17     1    17    1.2094E+05 -2.6038E+03   1.2354E+05  0.000E+00  0.000E+00  0.000E+00  4.07882E+01  1.632E-01  2.000E+01  2.000E+04 -1.302E-01
   1   12   18     1    18    1.2354E+05 -2.4705E+03   1.2601E+05  0.000E+00  0.000E+00  0.000E+00  4.03129E+01  1.652E-01  2.000E+01  2.000E+04 -1.235E-01
   1   12   19     1    19    1.2601E+05 -3.1797E+03   1.2919E+05  0.000E+00  0.000E+00  0.000E+00  3.98379E+01  1.674E-01  2.000E+01  2.000E+04 -1.590E-01
   1   13   20     1    20    1.2919E+05 -2.3270E+03   1.3152E+05  0.000E+00  0.000E+00  0.000E+00  3.93628E+01  1.696E-01  2.000E+01  2.000E+04 -1.163E-01
   1   14   21     1    21    1.3152E+05 -2.1969E+03   1.3372E+05  0.000E+00  0.000E+00  0.000E+00  3.88873E+01  1.713E-01  2.000E+01  2.000E+04 -1.098E-01
   1   14   22     1    22    1.3372E+05  4.7978E+03   1.2892E+05  0.000E+00  0.000E+00  0.000E+00  3.84090E+01  1.703E-01  2.000E+01  2.000E+04  2.399E-01
   1    9   30     2     1    5.0000E+04 -2.3129E+02   5.0231E+04  0.000E+00  0.000E+00  0.000E+00  4.02410E+01  1.160E-01  2.000E+01  2.000E+04 -1.156E-02
   1    9   29     2     2    5.0231E+04 -5.2331E+02   5.0755E+04  0.000E+00  0.000E+00  0.000E+00  3.99915E+01  1.165E-01  2.000E+01  2.000E+04 -2.617E-02
   1    9   28     2     3    5.0755E+04 -8.0820E+02   5.1563E+04  0.000E+00  0.000E+00  0.000E+00  3.97425E+01  1.175E-01  2.000E+01  2.000E+04 -4.041E-02
   1    9   27     2     4    5.1563E+04 -2.5015E+03   5.4064E+04  0.000E+00  0.000E+00  0.000E+00  3.94947E+01  1.197E-01  2.000E+01  2.000E+04 -1.251E-01
   1   10   26     2     5    5.4064E+04  1.8365E+02   5.3881E+04  0.000E+00  0.000E+00  0.000E+00  3.92463E+01  1.213E-01  2.000E+01  2.000E+04  9.183E-03
   1   11   25     2     6    5.3881E+04  1.5046E+03   5.2376E+04  0.000E+00  0.000E+00  0.000E+00  3.89952E+01  1.202E-01  2.000E+01  2.000E+04  7.523E-02
   1   12   24     2     7    5.2376E+04 -1.2845E+02   5.2504E+04  0.000E+00  0.000E+00  0.000E+00  3.87442E+01  1.192E-01  2.000E+01  2.000E+04 -6.423E-03
   1   13   23     2     8    5.2504E+04 -2.3599E+02   5.2740E+04  0.000E+00  0.000E+00  0.000E+00  3.84945E+01  1.195E-01  2.000E+01  2.000E+04 -1.180E-02
   1   14   22     2     9    5.2740E+04  1.4907E+03   5.1250E+04  0.000E+00  0.000E+00  0.000E+00  3.82436E+01  1.186E-01  2.000E+01  2.000E+04  7.453E-02
   1   14   22     3     1    1.8017E+05 -8.8030E+03   1.8897E+05  0.000E+00  0.000E+00  0.000E+00  3.77289E+01  1.734E-01  2.000E+01  2.000E+04 -4.402E-01
   1   15   23     3     2    1.8897E+05 -6.3739E+02   1.8961E+05  0.000E+00  0.000E+00  0.000E+00  3.68427E+01  1.760E-01  2.000E+01  2.000E+04 -3.187E-02
   1   15   24     3     3    1.8961E+05 -3.0328E+02   1.8991E+05  0.000E+00  0.000E+00  0.000E+00  3.59541E+01  1.763E-01  2.000E+01  2.000E+04 -1.516E-02
   1   15   25     3     4    1.8991E+05 -2.3371E+02   1.9014E+05  0.000E+00  0.000E+00  0.000E+00  3.50653E+01  1.764E-01  2.000E+01  2.000E+04 -1.169E-02
   1   15   26     3     5    1.9014E+05  9.1020E+01   1.9005E+05  0.000E+00  0.000E+00  0.000E+00  3.41765E+01  1.765E-01  2.000E+01  2.000E+04  4.551E-03
   1   16   27     3     6    1.9005E+05  2.9348E+02   1.8976E+05  0.000E+00  0.000E+00  0.000E+00  3.32875E+01  1.764E-01  2.000E+01  2.000E+04  1.467E-02
   1   17   28     3     7    1.8976E+05  1.2450E+03   1.8852E+05  0.000E+00  0.000E+00  0.000E+00  3.23982E+01  1.759E-01  2.000E+01  2.000E+04  6.225E-02
   1   18   29     3     8    1.8852E+05 -2.7189E+03   1.9123E+05  0.000E+00  0.000E+00  0.000E+00  3.15097E+01  1.764E-01  2.000E+01  2.000E+04 -1.359E-01
   1   18   30     3     9    1.9123E+05 -2.6414E+03   1.9388E+05  0.000E+00  0.000E+00  0.000E+00  3.06223E+01  1.778E-01  2.000E+01  2.000E+04 -1.321E-01



1
              HEAD IN LAYER   1 AT END OF TIME STEP   1 IN STRESS PERIOD    3
  ---------------------------------------------------------------------------

          1      2      3      4      5      6      7      8      9     10
         11     12     13     14     15     16     17     18     19     20
         21     22     23     24     25     26     27     28     29     30
 .........................................................................
   1  ****** ****** ****** ****** ****** ****** ****** ****** ****** ******
      ****** ****** ****** ****** ****** ****** ****** ****** ****** ******
      ****** ****** ****** ****** ****** ****** ****** ****** ****** ******
   2  ****** ****** ****** ****** ****** ****** ****** ****** ****** ******
      ****** ****** ****** ****** ****** ****** ****** ****** ****** ******
      ****** ****** ****** ****** ****** ****** ****** ****** ****** ******
   3  ****** ****** ****** ****** ****** ****** ****** ****** ****** ******
      ****** ****** ****** ****** ****** ****** ****** ****** ****** ******
      ****** ****** ****** ****** ****** ****** ****** ****** ****** ******
   4  ****** ****** ****** ****** ****** ****** ****** ****** ****** ******
      ****** ****** ****** ****** ****** ****** ****** ****** ****** ******
      ****** ****** ****** ****** ****** ****** ****** ****** ****** ******
   5  ****** ****** ****** ****** ****** ****** ****** ****** ****** ******
      ****** ****** ****** ****** ****** ****** ****** ****** ****** ******
      ****** ****** ****** ****** ****** ****** ****** ****** ****** ******
   6  ****** ****** ****** ****** ****** ****** ****** ****** ****** ******
      ****** ****** ****** ****** ****** ****** ****** ****** ****** ******
      ****** ****** ****** ****** ****** ****** ****** ****** ****** ******
   7  ****** ****** ****** ****** ****** ****** ****** ****** ****** ******
      ****** ****** ****** ****** ****** ****** ****** ****** ****** ******
      ****** ****** ****** ****** ****** ****** ****** ****** ****** ******
   8  ****** ****** ****** ****** ****** ****** ****** ****** ****** ******
      ****** ****** ****** ****** ****** ****** ****** ****** ****** ******
      ****** ****** ****** ****** ****** ****** ****** ****** ****** ******
   9  ****** ****** ****** ****** ****** ****** ****** ****** ****** ******
      ****** ****** ****** ****** ****** ****** ****** ****** ****** ******
      ****** ****** ****** ****** ****** ****** ****** ****** ****** ******
  10  ****** ****** ****** ****** ****** ****** ****** ****** ****** ******
      ****** ****** ****** ****** ****** ****** ****** ****** ****** ******
      ****** ****** ****** ****** ****** ****** ****** ****** ****** ******
  11  ****** ****** ****** ****** ****** ****** ****** ****** ****** ******
      ****** ****** ****** ****** ****** ****** ****** ****** ****** ******
      ****** ****** ****** ****** ****** ****** ****** ****** ****** ******
  12  ****** ****** ****** ****** ****** ****** ****** ****** ****** ******
      ****** ****** ****** ****** ****** ****** ****** ****** ****** ******
      ****** ****** ****** ****** ****** ****** ****** ****** ****** ******
  13  ****** ****** ****** ****** ****** ****** ****** ****** ****** ******
      ****** ****** ****** ****** ****** ****** ****** ****** ****** ******
      ****** ****** ****** ****** ****** ****** ****** ****** ****** ******
  14  ****** ****** ****** ****** ****** ****** ****** ****** ****** ******
      ****** ****** ****** ****** ****** ****** ****** ****** ****** ******
      ****** ****** ****** ****** ****** ****** ****** ****** ****** ******
  15  ****** ****** ****** ****** ****** ****** ****** ****** ****** ******
      ****** ****** ****** ****** ****** ****** ****** ****** ****** ******
      ****** ****** ****** ****** ****** ****** ****** ****** ****** ******
  16  ****** ****** ****** ****** ****** ****** ****** ****** ****** ******
      ****** ****** ****** ****** ****** ****** ****** ****** ****** ******
      ****** ****** ****** ****** ****** ****** ****** ****** ****** ******
  17  ****** ****** ****** ****** ****** ****** ****** ****** ****** ******
      ****** ****** ****** ****** ****** ****** ****** ****** ****** ******
      ****** ****** ****** ****** ****** ****** ****** ****** ****** ******
  18  ****** ****** ****** ****** ****** ****** ****** ****** ****** ******
      ****** ****** ****** ****** ****** ****** ****** ****** ****** ******
      ****** ****** ****** ****** ****** ****** ****** ****** ****** ******
  19  ****** ****** ****** ****** ****** ****** ****** ****** ****** ******
      ****** ****** ****** ****** ****** ****** ****** ****** ****** ******
      ****** ****** ****** ****** ****** ****** ****** ****** ****** ******
  20  ****** ****** ****** ****** ****** ****** ****** ****** ****** ******
      ****** ****** ****** ****** ****** ****** ****** ****** ****** ******
      ****** ****** ****** ****** ****** ****** ****** ****** ****** ******
  21  ****** ****** ****** ****** ****** ****** ****** ****** ****** ******
      ****** ****** ****** ****** ****** ****** ****** ****** ****** ******
      ****** ****** ****** ****** ****** ****** ****** ****** ****** ******
  22  ****** ****** ****** ****** ****** ****** ****** ****** ****** ******
      ****** ****** ****** ****** ****** ****** ****** ****** ****** ******
      ****** ****** ****** ****** ****** ****** ****** ****** ****** ******
  23  ****** ****** ****** ****** ****** ****** ****** ****** ****** ******
      ****** ****** ****** ****** ****** ****** ****** ****** ****** ******
      ****** ****** ****** ****** ****** ****** ****** ****** ****** ******
  24  ****** ****** ****** ****** ****** ****** ****** ****** ****** ******
      ****** ****** ****** ****** ****** ****** ****** ****** ****** ******
      ****** ****** ****** ****** ****** ****** ****** ****** ****** ******
  25  ****** ****** ****** ****** ****** ****** ****** ****** ****** ******
      ****** ****** ****** ****** ****** ****** ****** ****** ****** ******
      ****** ****** ****** ****** ****** ****** ****** ****** ****** ******

 HEAD WILL BE SAVED ON UNIT   51 AT END OF TIME STEP    1, STRESS PERIOD    3
1
  VOLUMETRIC BUDGET FOR ENTIRE MODEL AT END OF TIME STEP    1, STRESS PERIOD   3
  ------------------------------------------------------------------------------

     CUMULATIVE VOLUMES      L**3       RATES FOR THIS TIME STEP      L**3/T
     ------------------                 ------------------------

           IN:                                      IN:
           ---                                      ---
             STORAGE =    27115365.1969               STORAGE =       53710.8086
       CONSTANT HEAD =     4844018.7507         CONSTANT HEAD =       24606.8814
               WELLS =           0.0000                 WELLS =           0.0000
            RECHARGE =     6292800.0000              RECHARGE =           0.0000
      STREAM LEAKAGE =     2021747.6637        STREAM LEAKAGE =       11824.0480

            TOTAL IN =    40273931.6113              TOTAL IN =       90141.7379

          OUT:                                     OUT:
          ----                                     ----
             STORAGE =           0.0000               STORAGE =           0.0000
       CONSTANT HEAD =           0.0000         CONSTANT HEAD =           0.0000
               WELLS =     9437191.7160                 WELLS =       34442.3055
            RECHARGE =           0.0000              RECHARGE =           0.0000
      STREAM LEAKAGE =    30836741.9707        STREAM LEAKAGE =       55699.4405

           TOTAL OUT =    40273933.6867             TOTAL OUT =       90141.7460

            IN - OUT =          -2.0754              IN - OUT =      -8.1111E-03

 PERCENT DISCREPANCY =          -0.00     PERCENT DISCREPANCY =          -0.00






         TIME SUMMARY AT END OF TIME STEP    1 IN STRESS PERIOD    3
                    SECONDS     MINUTES      HOURS       DAYS        YEARS
                    -----------------------------------------------------------
   TIME STEP LENGTH 7.86240E+06 1.31040E+05  2184.0      91.000     0.24914    
 STRESS PERIOD TIME 7.86240E+06 1.31040E+05  2184.0      91.000     0.24914    
         TOTAL TIME 2.36736E+07 3.94560E+05  6576.0      274.00     0.75017    
1
1
                            STRESS PERIOD NO.    4, LENGTH =   91.00000    
                            -----------------------------------------------

                              NUMBER OF TIME STEPS =     1

                               MULTIPLIER FOR DELT =     1.500

                            INITIAL TIME STEP SIZE =   91.00000    

 WELL NO.  LAYER   ROW   COL   STRESS RATE         
 --------------------------------------------------
      1      1     19     11     -0.1013E+05
      2      1     15     28      -7561.    
      3      1     15      7      -7227.    
      4      1     12     26      -9522.    

      4 WELLS

                 RECHARGE =  1.000000E-03

 REUSING STREAM SEGMENT DATA FROM LAST STRESS PERIOD
 
 SOLVING FOR HEAD 


     6 CALLS TO PCG ROUTINE FOR TIME STEP   1 IN STRESS PERIOD    4
    23 TOTAL ITERATIONS

 OUTPUT CONTROL FOR STRESS PERIOD    4   TIME STEP    1
    SAVE BUDGET
    SAVE HEAD FOR ALL LAYERS
    PRINT HEAD FOR ALL LAYERS
 UBDSV2 SAVING "STREAMFLOW OUT  " ON UNIT  50 AT TIME STEP  1, STRESS PERIOD   4



 STREAM LISTING     PERIOD      4   STEP        1

 LAYER ROW COL. STREAM  RCH.  FLOW INTO     FLOW TO   FLOW OUT OF   OVRLND.     DIRECT     STREAM       STREAM     STREAM     STREAM   STREAMBED  STREAMBED
                SEG.NO.  NO.  STRM. RCH.    AQUIFER    STRM. RCH.    RUNOFF     PRECIP       ET          HEAD       DEPTH      WIDTH   CONDCTNC.   GRADIENT

   1   13    1     1     1    1.0000E+05 -2.4453E+03   1.0245E+05  0.000E+00  0.000E+00  0.000E+00  4.84071E+01  1.457E-01  2.000E+01  2.000E+04 -1.223E-01
   1   13    2     1     2    1.0245E+05 -3.4726E+03   1.0592E+05  0.000E+00  0.000E+00  0.000E+00  4.79323E+01  1.483E-01  2.000E+01  2.000E+04 -1.736E-01
   1   14    3     1     3    1.0592E+05 -5.0746E+02   1.0643E+05  0.000E+00  0.000E+00  0.000E+00  4.74568E+01  1.499E-01  2.000E+01  2.000E+04 -2.537E-02
   1   15    4     1     4    1.0643E+05 -3.3326E+02   1.0676E+05  0.000E+00  0.000E+00  0.000E+00  4.69798E+01  1.503E-01  2.000E+01  2.000E+04 -1.666E-02
   1   16    5     1     5    1.0676E+05 -1.4201E+03   1.0818E+05  0.000E+00  0.000E+00  0.000E+00  4.65033E+01  1.510E-01  2.000E+01  2.000E+04 -7.100E-02
   1   16    6     1     6    1.0818E+05 -4.7877E+01   1.0823E+05  0.000E+00  0.000E+00  0.000E+00  4.60267E+01  1.517E-01  2.000E+01  2.000E+04 -2.394E-03
   1   16    7     1     7    1.0823E+05  2.3419E+03   1.0588E+05  0.000E+00  0.000E+00  0.000E+00  4.55484E+01  1.507E-01  2.000E+01  2.000E+04  1.171E-01
   1   16    8     1     8    1.0588E+05  2.2178E+02   1.0566E+05  0.000E+00  0.000E+00  0.000E+00  4.50701E+01  1.496E-01  2.000E+01  2.000E+04  1.109E-02
   1   16    9     1     9    1.0566E+05 -2.2416E+02   1.0589E+05  0.000E+00  0.000E+00  0.000E+00  4.45928E+01  1.496E-01  2.000E+01  2.000E+04 -1.121E-02
   1   16   10     1    10    1.0589E+05 -1.5969E+02   1.0605E+05  0.000E+00  0.000E+00  0.000E+00  4.41157E+01  1.498E-01  2.000E+01  2.000E+04 -7.984E-03
   1   16   11     1    11    1.0605E+05 -4.4319E+01   1.0609E+05  0.000E+00  0.000E+00  0.000E+00  4.36385E+01  1.499E-01  2.000E+01  2.000E+04 -2.216E-03
   1   16   12     1    12    1.0609E+05 -8.5011E+02   1.0694E+05  0.000E+00  0.000E+00  0.000E+00  4.31616E+01  1.502E-01  2.000E+01  2.000E+04 -4.251E-02
   1   15   13     1    13    1.0694E+05 -1.6953E+03   1.0864E+05  0.000E+00  0.000E+00  0.000E+00  4.26854E+01  1.513E-01  2.000E+01  2.000E+04 -8.476E-02
   1   14   14     1    14    1.0864E+05 -2.3302E+03   1.1097E+05  0.000E+00  0.000E+00  0.000E+00  4.22098E+01  1.530E-01  2.000E+01  2.000E+04 -1.165E-01
   1   13   15     1    15    1.1097E+05 -2.8415E+03   1.1381E+05  0.000E+00  0.000E+00  0.000E+00  4.17347E+01  1.552E-01  2.000E+01  2.000E+04 -1.421E-01
   1   12   16     1    16    1.1381E+05 -3.7158E+03   1.1752E+05  0.000E+00  0.000E+00  0.000E+00  4.12601E+01  1.579E-01  2.000E+01  2.000E+04 -1.858E-01
   1   12   17     1    17    1.1752E+05 -2.3908E+03   1.1991E+05  0.000E+00  0.000E+00  0.000E+00  4.07853E+01  1.603E-01  2.000E+01  2.000E+04 -1.195E-01
   1   12   18     1    18    1.1991E+05 -2.2737E+03   1.2219E+05  0.000E+00  0.000E+00  0.000E+00  4.03099E+01  1.622E-01  2.000E+01  2.000E+04 -1.137E-01
   1   12   19     1    19    1.2219E+05 -2.9385E+03   1.2513E+05  0.000E+00  0.000E+00  0.000E+00  3.98348E+01  1.643E-01  2.000E+01  2.000E+04 -1.469E-01
   1   13   20     1    20    1.2513E+05 -2.1687E+03   1.2730E+05  0.000E+00  0.000E+00  0.000E+00  3.93595E+01  1.663E-01  2.000E+01  2.000E+04 -1.084E-01
   1   14   21     1    21    1.2730E+05 -1.9717E+03   1.2927E+05  0.000E+00  0.000E+00  0.000E+00  3.88839E+01  1.680E-01  2.000E+01  2.000E+04 -9.858E-02
   1   14   22     1    22    1.2927E+05  4.8288E+03   1.2444E+05  0.000E+00  0.000E+00  0.000E+00  3.84055E+01  1.668E-01  2.000E+01  2.000E+04  2.414E-01
   1    9   30     2     1    5.0000E+04 -1.4287E+02   5.0143E+04  0.000E+00  0.000E+00  0.000E+00  4.02410E+01  1.160E-01  2.000E+01  2.000E+04 -7.143E-03
   1    9   29     2     2    5.0143E+04 -4.2903E+02   5.0572E+04  0.000E+00  0.000E+00  0.000E+00  3.99914E+01  1.164E-01  2.000E+01  2.000E+04 -2.145E-02
   1    9   28     2     3    5.0572E+04 -6.9653E+02   5.1268E+04  0.000E+00  0.000E+00  0.000E+00  3.97421E+01  1.171E-01  2.000E+01  2.000E+04 -3.483E-02
   1    9   27     2     4    5.1268E+04 -2.2524E+03   5.3521E+04  0.000E+00  0.000E+00  0.000E+00  3.94942E+01  1.192E-01  2.000E+01  2.000E+04 -1.126E-01
   1   10   26     2     5    5.3521E+04  3.3152E+02   5.3189E+04  0.000E+00  0.000E+00  0.000E+00  3.92455E+01  1.205E-01  2.000E+01  2.000E+04  1.658E-02
   1   11   25     2     6    5.3189E+04  1.6143E+03   5.1575E+04  0.000E+00  0.000E+00  0.000E+00  3.89941E+01  1.191E-01  2.000E+01  2.000E+04  8.072E-02
   1   12   24     2     7    5.1575E+04 -3.8867E+01   5.1614E+04  0.000E+00  0.000E+00  0.000E+00  3.87431E+01  1.181E-01  2.000E+01  2.000E+04 -1.943E-03
   1   13   23     2     8    5.1614E+04 -2.6261E+02   5.1876E+04  0.000E+00  0.000E+00  0.000E+00  3.84933E+01  1.183E-01  2.000E+01  2.000E+04 -1.313E-02
   1   14   22     2     9    5.1876E+04  1.5668E+03   5.0310E+04  0.000E+00  0.000E+00  0.000E+00  3.82424E+01  1.174E-01  2.000E+01  2.000E+04  7.834E-02
   1   14   22     3     1    1.7475E+05 -8.7638E+03   1.8351E+05  0.000E+00  0.000E+00  0.000E+00  3.77259E+01  1.703E-01  2.000E+01  2.000E+04 -4.382E-01
   1   15   23     3     2    1.8351E+05 -6.1406E+02   1.8413E+05  0.000E+00  0.000E+00  0.000E+00  3.68396E+01  1.730E-01  2.000E+01  2.000E+04 -3.070E-02
   1   15   24     3     3    1.8413E+05 -3.0209E+02   1.8443E+05  0.000E+00  0.000E+00  0.000E+00  3.59510E+01  1.732E-01  2.000E+01  2.000E+04 -1.510E-02
   1   15   25     3     4    1.8443E+05 -2.3114E+02   1.8466E+05  0.000E+00  0.000E+00  0.000E+00  3.50623E+01  1.734E-01  2.000E+01  2.000E+04 -1.156E-02
   1   15   26     3     5    1.8466E+05  8.7875E+01   1.8457E+05  0.000E+00  0.000E+00  0.000E+00  3.41734E+01  1.734E-01  2.000E+01  2.000E+04  4.394E-03
   1   16   27     3     6    1.8457E+05  2.9750E+02   1.8427E+05  0.000E+00  0.000E+00  0.000E+00  3.32844E+01  1.733E-01  2.000E+01  2.000E+04  1.488E-02
   1   17   28     3     7    1.8427E+05  1.3252E+03   1.8295E+05  0.000E+00  0.000E+00  0.000E+00  3.23951E+01  1.728E-01  2.000E+01  2.000E+04  6.626E-02
   1   18   29     3     8    1.8295E+05 -2.4996E+03   1.8545E+05  0.000E+00  0.000E+00  0.000E+00  3.15065E+01  1.732E-01  2.000E+01  2.000E+04 -1.250E-01
   1   18   30     3     9    1.8545E+05 -2.5282E+03   1.8798E+05  0.000E+00  0.000E+00  0.000E+00  3.06190E+01  1.746E-01  2.000E+01  2.000E+04 -1.264E-01



1
              HEAD IN LAYER   1 AT END OF TIME STEP   1 IN STRESS PERIOD    4
  ---------------------------------------------------------------------------

          1      2      3      4      5      6      7      8      9     10
         11     12     13     14     15     16     17     18     19     20
         21     22     23     24     25     26     27     28     29     30
 .........................................................................
   1  ****** ****** ****** ****** ****** ****** ****** ****** ****** ******
      ****** ****** ****** ****** ****** ****** ****** ****** ****** ******
      ****** ****** ****** ****** ****** ****** ****** ****** ****** ******
   2  ****** ****** ****** ****** ****** ****** ****** ****** ****** ******
      ****** ****** ****** ****** ****** ****** ****** ****** ****** ******
      ****** ****** ****** ****** ****** ****** ****** ****** ****** ******
   3  ****** ****** ****** ****** ****** ****** ****** ****** ****** ******
      ****** ****** ****** ****** ****** ****** ****** ****** ****** ******
      ****** ****** ****** ****** ****** ****** ****** ****** ****** ******
   4  ****** ****** ****** ****** ****** ****** ****** ****** ****** ******
      ****** ****** ****** ****** ****** ****** ****** ****** ****** ******
      ****** ****** ****** ****** ****** ****** ****** ****** ****** ******
   5  ****** ****** ****** ****** ****** ****** ****** ****** ****** ******
      ****** ****** ****** ****** ****** ****** ****** ****** ****** ******
      ****** ****** ****** ****** ****** ****** ****** ****** ****** ******
   6  ****** ****** ****** ****** ****** ****** ****** ****** ****** ******
      ****** ****** ****** ****** ****** ****** ****** ****** ****** ******
      ****** ****** ****** ****** ****** ****** ****** ****** ****** ******
   7  ****** ****** ****** ****** ****** ****** ****** ****** ****** ******
      ****** ****** ****** ****** ****** ****** ****** ****** ****** ******
      ****** ****** ****** ****** ****** ****** ****** ****** ****** ******
   8  ****** ****** ****** ****** ****** ****** ****** ****** ****** ******
      ****** ****** ****** ****** ****** ****** ****** ****** ****** ******
      ****** ****** ****** ****** ****** ****** ****** ****** ****** ******
   9  ****** ****** ****** ****** ****** ****** ****** ****** ****** ******
      ****** ****** ****** ****** ****** ****** ****** ****** ****** ******
      ****** ****** ****** ****** ****** ****** ****** ****** ****** ******
  10  ****** ****** ****** ****** ****** ****** ****** ****** ****** ******
      ****** ****** ****** ****** ****** ****** ****** ****** ****** ******
      ****** ****** ****** ****** ****** ****** ****** ****** ****** ******
  11  ****** ****** ****** ****** ****** ****** ****** ****** ****** ******
      ****** ****** ****** ****** ****** ****** ****** ****** ****** ******
      ****** ****** ****** ****** ****** ****** ****** ****** ****** ******
  12  ****** ****** ****** ****** ****** ****** ****** ****** ****** ******
      ****** ****** ****** ****** ****** ****** ****** ****** ****** ******
      ****** ****** ****** ****** ****** ****** ****** ****** ****** ******
  13  ****** ****** ****** ****** ****** ****** ****** ****** ****** ******
      ****** ****** ****** ****** ****** ****** ****** ****** ****** ******
      ****** ****** ****** ****** ****** ****** ****** ****** ****** ******
  14  ****** ****** ****** ****** ****** ****** ****** ****** ****** ******
      ****** ****** ****** ****** ****** ****** ****** ****** ****** ******
      ****** ****** ****** ****** ****** ****** ****** ****** ****** ******
  15  ****** ****** ****** ****** ****** ****** ****** ****** ****** ******
      ****** ****** ****** ****** ****** ****** ****** ****** ****** ******
      ****** ****** ****** ****** ****** ****** ****** ****** ****** ******
  16  ****** ****** ****** ****** ****** ****** ****** ****** ****** ******
      ****** ****** ****** ****** ****** ****** ****** ****** ****** ******
      ****** ****** ****** ****** ****** ****** ****** ****** ****** ******
  17  ****** ****** ****** ****** ****** ****** ****** ****** ****** ******
      ****** ****** ****** ****** ****** ****** ****** ****** ****** ******
      ****** ****** ****** ****** ****** ****** ****** ****** ****** ******
  18  ****** ****** ****** ****** ****** ****** ****** ****** ****** ******
      ****** ****** ****** ****** ****** ****** ****** ****** ****** ******
      ****** ****** ****** ****** ****** ****** ****** ****** ****** ******
  19  ****** ****** ****** ****** ****** ****** ****** ****** ****** ******
      ****** ****** ****** ****** ****** ****** ****** ****** ****** ******
      ****** ****** ****** ****** ****** ****** ****** ****** ****** ******
  20  ****** ****** ****** ****** ****** ****** ****** ****** ****** ******
      ****** ****** ****** ****** ****** ****** ****** ****** ****** ******
      ****** ****** ****** ****** ****** ****** ****** ****** ****** ******
  21  ****** ****** ****** ****** ****** ****** ****** ****** ****** ******
      ****** ****** ****** ****** ****** ****** ****** ****** ****** ******
      ****** ****** ****** ****** ****** ****** ****** ****** ****** ******
  22  ****** ****** ****** ****** ****** ****** ****** ****** ****** ******
      ****** ****** ****** ****** ****** ****** ****** ****** ****** ******
      ****** ****** ****** ****** ****** ****** ****** ****** ****** ******
  23  ****** ****** ****** ****** ****** ****** ****** ****** ****** ******
      ****** ****** ****** ****** ****** ****** ****** ****** ****** ******
      ****** ****** ****** ****** ****** ****** ****** ****** ****** ******
  24  ****** ****** ****** ****** ****** ****** ****** ****** ****** ******
      ****** ****** ****** ****** ****** ****** ****** ****** ****** ******
      ****** ****** ****** ****** ****** ****** ****** ****** ****** ******
  25  ****** ****** ****** ****** ****** ****** ****** ****** ****** ******
      ****** ****** ****** ****** ****** ****** ****** ****** ****** ******
      ****** ****** ****** ****** ****** ****** ****** ****** ****** ******

 HEAD WILL BE SAVED ON UNIT   51 AT END OF TIME STEP    1, STRESS PERIOD    4
1
  VOLUMETRIC BUDGET FOR ENTIRE MODEL AT END OF TIME STEP    1, STRESS PERIOD   4
  ------------------------------------------------------------------------------

     CUMULATIVE VOLUMES      L**3       RATES FOR THIS TIME STEP      L**3/T
     ------------------                 ------------------------

           IN:                                      IN:
           ---                                      ---
             STORAGE =    28732832.8705               STORAGE =       17774.3700
       CONSTANT HEAD =     7305521.9829         CONSTANT HEAD =       27049.4861
               WELLS =           0.0000                 WELLS =           0.0000
            RECHARGE =     8804400.0000              RECHARGE =       27600.0000
      STREAM LEAKAGE =     3169773.1308        STREAM LEAKAGE =       12615.6645

            TOTAL IN =    48012527.9843              TOTAL IN =       85039.5206

          OUT:                                     OUT:
          ----                                     ----
             STORAGE =         436.6356               STORAGE =           4.7982
       CONSTANT HEAD =           0.0000         CONSTANT HEAD =           0.0000
               WELLS =    12571441.5194                 WELLS =       34442.3055
            RECHARGE =           0.0000              RECHARGE =           0.0000
      STREAM LEAKAGE =    35440651.9888        STREAM LEAKAGE =       50592.4178

           TOTAL OUT =    48012530.1439             TOTAL OUT =       85039.5215

            IN - OUT =          -2.1597              IN - OUT =      -9.2585E-04

 PERCENT DISCREPANCY =          -0.00     PERCENT DISCREPANCY =          -0.00






         TIME SUMMARY AT END OF TIME STEP    1 IN STRESS PERIOD    4
                    SECONDS     MINUTES      HOURS       DAYS        YEARS
                    -----------------------------------------------------------
   TIME STEP LENGTH 7.86240E+06 1.31040E+05  2184.0      91.000     0.24914    
 STRESS PERIOD TIME 7.86240E+06 1.31040E+05  2184.0      91.000     0.24914    
         TOTAL TIME 3.15360E+07 5.25600E+05  8760.0      365.00     0.99932    
1
1
                            STRESS PERIOD NO.    5, LENGTH =   92.00000    
                            -----------------------------------------------

                              NUMBER OF TIME STEPS =     1

                               MULTIPLIER FOR DELT =     1.500

                            INITIAL TIME STEP SIZE =   92.00000    

 WELL NO.  LAYER   ROW   COL   STRESS RATE         
 --------------------------------------------------
      1      1     19     11     -0.1013E+05
      2      1     15     28      -7561.    
      3      1     15      7      -7227.    
      4      1     12     26      -9522.    

      4 WELLS

                 RECHARGE =  5.000000E-04

 REUSING STREAM SEGMENT DATA FROM LAST STRESS PERIOD
 
 SOLVING FOR HEAD 


     7 CALLS TO PCG ROUTINE FOR TIME STEP   1 IN STRESS PERIOD    5
    26 TOTAL ITERATIONS

 OUTPUT CONTROL FOR STRESS PERIOD    5   TIME STEP    1
    SAVE BUDGET
    SAVE HEAD FOR ALL LAYERS
    PRINT HEAD FOR ALL LAYERS
 UBDSV2 SAVING "STREAMFLOW OUT  " ON UNIT  50 AT TIME STEP  1, STRESS PERIOD   5



 STREAM LISTING     PERIOD      5   STEP        1

 LAYER ROW COL. STREAM  RCH.  FLOW INTO     FLOW TO   FLOW OUT OF   OVRLND.     DIRECT     STREAM       STREAM     STREAM     STREAM   STREAMBED  STREAMBED
                SEG.NO.  NO.  STRM. RCH.    AQUIFER    STRM. RCH.    RUNOFF     PRECIP       ET          HEAD       DEPTH      WIDTH   CONDCTNC.   GRADIENT

   1   13    1     1     1    1.0000E+05 -2.0292E+03   1.0203E+05  0.000E+00  0.000E+00  0.000E+00  4.84069E+01  1.455E-01  2.000E+01  2.000E+04 -1.015E-01
   1   13    2     1     2    1.0203E+05 -2.9987E+03   1.0503E+05  0.000E+00  0.000E+00  0.000E+00  4.79318E+01  1.477E-01  2.000E+01  2.000E+04 -1.499E-01
   1   14    3     1     3    1.0503E+05 -3.7827E+02   1.0541E+05  0.000E+00  0.000E+00  0.000E+00  4.74560E+01  1.491E-01  2.000E+01  2.000E+04 -1.891E-02
   1   15    4     1     4    1.0541E+05 -1.9568E+02   1.0560E+05  0.000E+00  0.000E+00  0.000E+00  4.69789E+01  1.494E-01  2.000E+01  2.000E+04 -9.784E-03
   1   16    5     1     5    1.0560E+05 -9.6713E+02   1.0657E+05  0.000E+00  0.000E+00  0.000E+00  4.65021E+01  1.499E-01  2.000E+01  2.000E+04 -4.836E-02
   1   16    6     1     6    1.0657E+05  2.2041E+02   1.0635E+05  0.000E+00  0.000E+00  0.000E+00  4.60252E+01  1.502E-01  2.000E+01  2.000E+04  1.102E-02
   1   16    7     1     7    1.0635E+05  2.6000E+03   1.0375E+05  0.000E+00  0.000E+00  0.000E+00  4.55467E+01  1.490E-01  2.000E+01  2.000E+04  1.300E-01
   1   16    8     1     8    1.0375E+05  4.7508E+02   1.0327E+05  0.000E+00  0.000E+00  0.000E+00  4.50681E+01  1.477E-01  2.000E+01  2.000E+04  2.375E-02
   1   16    9     1     9    1.0327E+05  2.3912E+01   1.0325E+05  0.000E+00  0.000E+00  0.000E+00  4.45906E+01  1.475E-01  2.000E+01  2.000E+04  1.196E-03
   1   16   10     1    10    1.0325E+05  8.2202E+01   1.0317E+05  0.000E+00  0.000E+00  0.000E+00  4.41133E+01  1.474E-01  2.000E+01  2.000E+04  4.110E-03
   1   16   11     1    11    1.0317E+05  1.9530E+02   1.0297E+05  0.000E+00  0.000E+00  0.000E+00  4.36359E+01  1.473E-01  2.000E+01  2.000E+04  9.765E-03
   1   16   12     1    12    1.0297E+05 -4.2638E+02   1.0340E+05  0.000E+00  0.000E+00  0.000E+00  4.31588E+01  1.474E-01  2.000E+01  2.000E+04 -2.132E-02
   1   15   13     1    13    1.0340E+05 -1.2558E+03   1.0465E+05  0.000E+00  0.000E+00  0.000E+00  4.26822E+01  1.481E-01  2.000E+01  2.000E+04 -6.279E-02
   1   14   14     1    14    1.0465E+05 -1.8690E+03   1.0652E+05  0.000E+00  0.000E+00  0.000E+00  4.22063E+01  1.494E-01  2.000E+01  2.000E+04 -9.345E-02
   1   13   15     1    15    1.0652E+05 -2.3690E+03   1.0889E+05  0.000E+00  0.000E+00  0.000E+00  4.17308E+01  1.512E-01  2.000E+01  2.000E+04 -1.185E-01
   1   12   16     1    16    1.0889E+05 -3.2062E+03   1.1210E+05  0.000E+00  0.000E+00  0.000E+00  4.12559E+01  1.536E-01  2.000E+01  2.000E+04 -1.603E-01
   1   12   17     1    17    1.1210E+05 -2.0481E+03   1.1415E+05  0.000E+00  0.000E+00  0.000E+00  4.07808E+01  1.558E-01  2.000E+01  2.000E+04 -1.024E-01
   1   12   18     1    18    1.1415E+05 -1.9476E+03   1.1609E+05  0.000E+00  0.000E+00  0.000E+00  4.03051E+01  1.574E-01  2.000E+01  2.000E+04 -9.738E-02
   1   12   19     1    19    1.1609E+05 -2.5452E+03   1.1864E+05  0.000E+00  0.000E+00  0.000E+00  3.98297E+01  1.592E-01  2.000E+01  2.000E+04 -1.273E-01
   1   13   20     1    20    1.1864E+05 -1.8205E+03   1.2046E+05  0.000E+00  0.000E+00  0.000E+00  3.93542E+01  1.610E-01  2.000E+01  2.000E+04 -9.102E-02
   1   14   21     1    21    1.2046E+05 -1.5956E+03   1.2206E+05  0.000E+00  0.000E+00  0.000E+00  3.88783E+01  1.624E-01  2.000E+01  2.000E+04 -7.978E-02
   1   14   22     1    22    1.2206E+05  4.9063E+03   1.1715E+05  0.000E+00  0.000E+00  0.000E+00  3.83997E+01  1.611E-01  2.000E+01  2.000E+04  2.453E-01
   1    9   30     2     1    5.0000E+04  8.4732E+01   4.9915E+04  0.000E+00  0.000E+00  0.000E+00  4.02408E+01  1.158E-01  2.000E+01  2.000E+04  4.237E-03
   1    9   29     2     2    4.9915E+04 -1.9837E+02   5.0114E+04  0.000E+00  0.000E+00  0.000E+00  3.99909E+01  1.159E-01  2.000E+01  2.000E+04 -9.919E-03
   1    9   28     2     3    5.0114E+04 -4.5526E+02   5.0569E+04  0.000E+00  0.000E+00  0.000E+00  3.97413E+01  1.163E-01  2.000E+01  2.000E+04 -2.276E-02
   1    9   27     2     4    5.0569E+04 -1.8762E+03   5.2445E+04  0.000E+00  0.000E+00  0.000E+00  3.94929E+01  1.179E-01  2.000E+01  2.000E+04 -9.381E-02
   1   10   26     2     5    5.2445E+04  6.6241E+02   5.1783E+04  0.000E+00  0.000E+00  0.000E+00  3.92438E+01  1.188E-01  2.000E+01  2.000E+04  3.312E-02
   1   11   25     2     6    5.1783E+04  1.9186E+03   4.9864E+04  0.000E+00  0.000E+00  0.000E+00  3.89920E+01  1.170E-01  2.000E+01  2.000E+04  9.593E-02
   1   12   24     2     7    4.9864E+04  2.3826E+02   4.9626E+04  0.000E+00  0.000E+00  0.000E+00  3.87405E+01  1.155E-01  2.000E+01  2.000E+04  1.191E-02
   1   13   23     2     8    4.9626E+04 -1.9514E+02   4.9821E+04  0.000E+00  0.000E+00  0.000E+00  3.84905E+01  1.155E-01  2.000E+01  2.000E+04 -9.757E-03
   1   14   22     2     9    4.9821E+04  1.7011E+03   4.8120E+04  0.000E+00  0.000E+00  0.000E+00  3.82394E+01  1.144E-01  2.000E+01  2.000E+04  8.505E-02
   1   14   22     3     1    1.6527E+05 -8.6803E+03   1.7395E+05  0.000E+00  0.000E+00  0.000E+00  3.77204E+01  1.648E-01  2.000E+01  2.000E+04 -4.340E-01
   1   15   23     3     2    1.7395E+05 -5.1532E+02   1.7446E+05  0.000E+00  0.000E+00  0.000E+00  3.68341E+01  1.675E-01  2.000E+01  2.000E+04 -2.577E-02
   1   15   24     3     3    1.7446E+05 -2.2975E+02   1.7469E+05  0.000E+00  0.000E+00  0.000E+00  3.59455E+01  1.677E-01  2.000E+01  2.000E+04 -1.149E-02
   1   15   25     3     4    1.7469E+05 -1.5917E+02   1.7485E+05  0.000E+00  0.000E+00  0.000E+00  3.50567E+01  1.678E-01  2.000E+01  2.000E+04 -7.959E-03
   1   15   26     3     5    1.7485E+05  1.6154E+02   1.7469E+05  0.000E+00  0.000E+00  0.000E+00  3.41678E+01  1.678E-01  2.000E+01  2.000E+04  8.077E-03
   1   16   27     3     6    1.7469E+05  3.8921E+02   1.7430E+05  0.000E+00  0.000E+00  0.000E+00  3.32787E+01  1.676E-01  2.000E+01  2.000E+04  1.946E-02
   1   17   28     3     7    1.7430E+05  1.5977E+03   1.7271E+05  0.000E+00  0.000E+00  0.000E+00  3.23893E+01  1.671E-01  2.000E+01  2.000E+04  7.988E-02
   1   18   29     3     8    1.7271E+05 -2.1233E+03   1.7483E+05  0.000E+00  0.000E+00  0.000E+00  3.15006E+01  1.672E-01  2.000E+01  2.000E+04 -1.062E-01
   1   18   30     3     9    1.7483E+05 -2.2684E+03   1.7710E+05  0.000E+00  0.000E+00  0.000E+00  3.06129E+01  1.685E-01  2.000E+01  2.000E+04 -1.134E-01



1
              HEAD IN LAYER   1 AT END OF TIME STEP   1 IN STRESS PERIOD    5
  ---------------------------------------------------------------------------

          1      2      3      4      5      6      7      8      9     10
         11     12     13     14     15     16     17     18     19     20
         21     22     23     24     25     26     27     28     29     30
 .........................................................................
   1  ****** ****** ****** ****** ****** ****** ****** ****** ****** ******
      ****** ****** ****** ****** ****** ****** ****** ****** ****** ******
      ****** ****** ****** ****** ****** ****** ****** ****** ****** ******
   2  ****** ****** ****** ****** ****** ****** ****** ****** ****** ******
      ****** ****** ****** ****** ****** ****** ****** ****** ****** ******
      ****** ****** ****** ****** ****** ****** ****** ****** ****** ******
   3  ****** ****** ****** ****** ****** ****** ****** ****** ****** ******
      ****** ****** ****** ****** ****** ****** ****** ****** ****** ******
      ****** ****** ****** ****** ****** ****** ****** ****** ****** ******
   4  ****** ****** ****** ****** ****** ****** ****** ****** ****** ******
      ****** ****** ****** ****** ****** ****** ****** ****** ****** ******
      ****** ****** ****** ****** ****** ****** ****** ****** ****** ******
   5  ****** ****** ****** ****** ****** ****** ****** ****** ****** ******
      ****** ****** ****** ****** ****** ****** ****** ****** ****** ******
      ****** ****** ****** ****** ****** ****** ****** ****** ****** ******
   6  ****** ****** ****** ****** ****** ****** ****** ****** ****** ******
      ****** ****** ****** ****** ****** ****** ****** ****** ****** ******
      ****** ****** ****** ****** ****** ****** ****** ****** ****** ******
   7  ****** ****** ****** ****** ****** ****** ****** ****** ****** ******
      ****** ****** ****** ****** ****** ****** ****** ****** ****** ******
      ****** ****** ****** ****** ****** ****** ****** ****** ****** ******
   8  ****** ****** ****** ****** ****** ****** ****** ****** ****** ******
      ****** ****** ****** ****** ****** ****** ****** ****** ****** ******
      ****** ****** ****** ****** ****** ****** ****** ****** ****** ******
   9  ****** ****** ****** ****** ****** ****** ****** ****** ****** ******
      ****** ****** ****** ****** ****** ****** ****** ****** ****** ******
      ****** ****** ****** ****** ****** ****** ****** ****** ****** ******
  10  ****** ****** ****** ****** ****** ****** ****** ****** ****** ******
      ****** ****** ****** ****** ****** ****** ****** ****** ****** ******
      ****** ****** ****** ****** ****** ****** ****** ****** ****** ******
  11  ****** ****** ****** ****** ****** ****** ****** ****** ****** ******
      ****** ****** ****** ****** ****** ****** ****** ****** ****** ******
      ****** ****** ****** ****** ****** ****** ****** ****** ****** ******
  12  ****** ****** ****** ****** ****** ****** ****** ****** ****** ******
      ****** ****** ****** ****** ****** ****** ****** ****** ****** ******
      ****** ****** ****** ****** ****** ****** ****** ****** ****** ******
  13  ****** ****** ****** ****** ****** ****** ****** ****** ****** ******
      ****** ****** ****** ****** ****** ****** ****** ****** ****** ******
      ****** ****** ****** ****** ****** ****** ****** ****** ****** ******
  14  ****** ****** ****** ****** ****** ****** ****** ****** ****** ******
      ****** ****** ****** ****** ****** ****** ****** ****** ****** ******
      ****** ****** ****** ****** ****** ****** ****** ****** ****** ******
  15  ****** ****** ****** ****** ****** ****** ****** ****** ****** ******
      ****** ****** ****** ****** ****** ****** ****** ****** ****** ******
      ****** ****** ****** ****** ****** ****** ****** ****** ****** ******
  16  ****** ****** ****** ****** ****** ****** ****** ****** ****** ******
      ****** ****** ****** ****** ****** ****** ****** ****** ****** ******
      ****** ****** ****** ****** ****** ****** ****** ****** ****** ******
  17  ****** ****** ****** ****** ****** ****** ****** ****** ****** ******
      ****** ****** ****** ****** ****** ****** ****** ****** ****** ******
      ****** ****** ****** ****** ****** ****** ****** ****** ****** ******
  18  ****** ****** ****** ****** ****** ****** ****** ****** ****** ******
      ****** ****** ****** ****** ****** ****** ****** ****** ****** ******
      ****** ****** ****** ****** ****** ****** ****** ****** ****** ******
  19  ****** ****** ****** ****** ****** ****** ****** ****** ****** ******
      ****** ****** ****** ****** ****** ****** ****** ****** ****** ******
      ****** ****** ****** ****** ****** ****** ****** ****** ****** ******
  20  ****** ****** ****** ****** ****** ****** ****** ****** ****** ******
      ****** ****** ****** ****** ****** ****** ****** ****** ****** ******
      ****** ****** ****** ****** ****** ****** ****** ****** ****** ******
  21  ****** ****** ****** ****** ****** ****** ****** ****** ****** ******
      ****** ****** ****** ****** ****** ****** ****** ****** ****** ******
      ****** ****** ****** ****** ****** ****** ****** ****** ****** ******
  22  ****** ****** ****** ****** ****** ****** ****** ****** ****** ******
      ****** ****** ****** ****** ****** ****** ****** ****** ****** ******
      ****** ****** ****** ****** ****** ****** ****** ****** ****** ******
  23  ****** ****** ****** ****** ****** ****** ****** ****** ****** ******
      ****** ****** ****** ****** ****** ****** ****** ****** ****** ******
      ****** ****** ****** ****** ****** ****** ****** ****** ****** ******
  24  ****** ****** ****** ****** ****** ****** ****** ****** ****** ******
      ****** ****** ****** ****** ****** ****** ****** ****** ****** ******
      ****** ****** ****** ****** ****** ****** ****** ****** ****** ******
  25  ****** ****** ****** ****** ****** ****** ****** ****** ****** ******
      ****** ****** ****** ****** ****** ****** ****** ****** ****** ******
      ****** ****** ****** ****** ****** ****** ****** ****** ****** ******

 HEAD WILL BE SAVED ON UNIT   51 AT END OF TIME STEP    1, STRESS PERIOD    5
1
  VOLUMETRIC BUDGET FOR ENTIRE MODEL AT END OF TIME STEP    1, STRESS PERIOD   5
  ------------------------------------------------------------------------------

     CUMULATIVE VOLUMES      L**3       RATES FOR THIS TIME STEP      L**3/T
     ------------------                 ------------------------

           IN:                                      IN:
           ---                                      ---
             STORAGE =    30376184.0687               STORAGE =       17862.5130
       CONSTANT HEAD =    10054175.0566         CONSTANT HEAD =       29876.6638
               WELLS =           0.0000                 WELLS =           0.0000
            RECHARGE =    10074000.0000              RECHARGE =       13800.0000
      STREAM LEAKAGE =     4573390.5054        STREAM LEAKAGE =       15256.7106

            TOTAL IN =    55077749.6308              TOTAL IN =       76795.8875

          OUT:                                     OUT:
          ----                                     ----
             STORAGE =         436.6356               STORAGE =           0.0000
       CONSTANT HEAD =           0.0000         CONSTANT HEAD =           0.0000
               WELLS =    15740133.6284                 WELLS =       34442.3055
            RECHARGE =           0.0000              RECHARGE =           0.0000
      STREAM LEAKAGE =    39337181.8325        STREAM LEAKAGE =       42353.5853

           TOTAL OUT =    55077752.0965             TOTAL OUT =       76795.8908

            IN - OUT =          -2.4658              IN - OUT =      -3.3273E-03

 PERCENT DISCREPANCY =          -0.00     PERCENT DISCREPANCY =          -0.00






         TIME SUMMARY AT END OF TIME STEP    1 IN STRESS PERIOD    5
                    SECONDS     MINUTES      HOURS       DAYS        YEARS
                    -----------------------------------------------------------
   TIME STEP LENGTH 7.94880E+06 1.32480E+05  2208.0      92.000     0.25188    
 STRESS PERIOD TIME 7.94880E+06 1.32480E+05  2208.0      92.000     0.25188    
         TOTAL TIME 3.94848E+07 6.58080E+05  10968.      457.00      1.2512    
1
1
                            STRESS PERIOD NO.    6, LENGTH =   91.00000    
                            -----------------------------------------------

                              NUMBER OF TIME STEPS =     1

                               MULTIPLIER FOR DELT =     1.500

                            INITIAL TIME STEP SIZE =   91.00000    

 WELL NO.  LAYER   ROW   COL   STRESS RATE         
 --------------------------------------------------
      1      1     19     11     -0.1013E+05
      2      1     15     28      -7561.    
      3      1     15      7      -7227.    
      4      1     12     26      -9522.    

      4 WELLS

                 RECHARGE =  2.000000E-03

 REUSING STREAM SEGMENT DATA FROM LAST STRESS PERIOD
 
 SOLVING FOR HEAD 


     7 CALLS TO PCG ROUTINE FOR TIME STEP   1 IN STRESS PERIOD    6
    26 TOTAL ITERATIONS

 OUTPUT CONTROL FOR STRESS PERIOD    6   TIME STEP    1
    SAVE BUDGET
    SAVE HEAD FOR ALL LAYERS
    PRINT HEAD FOR ALL LAYERS
 UBDSV2 SAVING "STREAMFLOW OUT  " ON UNIT  50 AT TIME STEP  1, STRESS PERIOD   6



 STREAM LISTING     PERIOD      6   STEP        1

 LAYER ROW COL. STREAM  RCH.  FLOW INTO     FLOW TO   FLOW OUT OF   OVRLND.     DIRECT     STREAM       STREAM     STREAM     STREAM   STREAMBED  STREAMBED
                SEG.NO.  NO.  STRM. RCH.    AQUIFER    STRM. RCH.    RUNOFF     PRECIP       ET          HEAD       DEPTH      WIDTH   CONDCTNC.   GRADIENT

   1   13    1     1     1    1.0000E+05 -2.3452E+03   1.0235E+05  0.000E+00  0.000E+00  0.000E+00  4.84070E+01  1.457E-01  2.000E+01  2.000E+04 -1.173E-01
   1   13    2     1     2    1.0235E+05 -3.3427E+03   1.0569E+05  0.000E+00  0.000E+00  0.000E+00  4.79322E+01  1.481E-01  2.000E+01  2.000E+04 -1.671E-01
   1   14    3     1     3    1.0569E+05 -5.2972E+02   1.0622E+05  0.000E+00  0.000E+00  0.000E+00  4.74566E+01  1.498E-01  2.000E+01  2.000E+04 -2.649E-02
   1   15    4     1     4    1.0622E+05 -3.5777E+02   1.0658E+05  0.000E+00  0.000E+00  0.000E+00  4.69797E+01  1.501E-01  2.000E+01  2.000E+04 -1.789E-02
   1   16    5     1     5    1.0658E+05 -1.4533E+03   1.0803E+05  0.000E+00  0.000E+00  0.000E+00  4.65032E+01  1.509E-01  2.000E+01  2.000E+04 -7.266E-02
   1   16    6     1     6    1.0803E+05 -6.3545E+01   1.0809E+05  0.000E+00  0.000E+00  0.000E+00  4.60265E+01  1.515E-01  2.000E+01  2.000E+04 -3.177E-03
   1   16    7     1     7    1.0809E+05  2.3313E+03   1.0576E+05  0.000E+00  0.000E+00  0.000E+00  4.55483E+01  1.506E-01  2.000E+01  2.000E+04  1.166E-01
   1   16    8     1     8    1.0576E+05  2.1037E+02   1.0555E+05  0.000E+00  0.000E+00  0.000E+00  4.50700E+01  1.495E-01  2.000E+01  2.000E+04  1.052E-02
   1   16    9     1     9    1.0555E+05 -2.4137E+02   1.0579E+05  0.000E+00  0.000E+00  0.000E+00  4.45927E+01  1.495E-01  2.000E+01  2.000E+04 -1.207E-02
   1   16   10     1    10    1.0579E+05 -1.8602E+02   1.0598E+05  0.000E+00  0.000E+00  0.000E+00  4.41156E+01  1.497E-01  2.000E+01  2.000E+04 -9.301E-03
   1   16   11     1    11    1.0598E+05 -7.7603E+01   1.0606E+05  0.000E+00  0.000E+00  0.000E+00  4.36384E+01  1.498E-01  2.000E+01  2.000E+04 -3.880E-03
   1   16   12     1    12    1.0606E+05 -8.6912E+02   1.0692E+05  0.000E+00  0.000E+00  0.000E+00  4.31616E+01  1.502E-01  2.000E+01  2.000E+04 -4.346E-02
   1   15   13     1    13    1.0692E+05 -1.7113E+03   1.0864E+05  0.000E+00  0.000E+00  0.000E+00  4.26854E+01  1.513E-01  2.000E+01  2.000E+04 -8.557E-02
   1   14   14     1    14    1.0864E+05 -2.3226E+03   1.1096E+05  0.000E+00  0.000E+00  0.000E+00  4.22098E+01  1.530E-01  2.000E+01  2.000E+04 -1.161E-01
   1   13   15     1    15    1.1096E+05 -2.8063E+03   1.1376E+05  0.000E+00  0.000E+00  0.000E+00  4.17347E+01  1.551E-01  2.000E+01  2.000E+04 -1.403E-01
   1   12   16     1    16    1.1376E+05 -3.6022E+03   1.1737E+05  0.000E+00  0.000E+00  0.000E+00  4.12600E+01  1.578E-01  2.000E+01  2.000E+04 -1.801E-01
   1   12   17     1    17    1.1737E+05 -2.3688E+03   1.1974E+05  0.000E+00  0.000E+00  0.000E+00  4.07852E+01  1.602E-01  2.000E+01  2.000E+04 -1.184E-01
   1   12   18     1    18    1.1974E+05 -2.2717E+03   1.2201E+05  0.000E+00  0.000E+00  0.000E+00  4.03098E+01  1.621E-01  2.000E+01  2.000E+04 -1.136E-01
   1   12   19     1    19    1.2201E+05 -2.9487E+03   1.2496E+05  0.000E+00  0.000E+00  0.000E+00  3.98346E+01  1.642E-01  2.000E+01  2.000E+04 -1.474E-01
   1   13   20     1    20    1.2496E+05 -2.2471E+03   1.2720E+05  0.000E+00  0.000E+00  0.000E+00  3.93594E+01  1.662E-01  2.000E+01  2.000E+04 -1.124E-01
   1   14   21     1    21    1.2720E+05 -2.0098E+03   1.2921E+05  0.000E+00  0.000E+00  0.000E+00  3.88838E+01  1.679E-01  2.000E+01  2.000E+04 -1.005E-01
   1   14   22     1    22    1.2921E+05  4.7966E+03   1.2442E+05  0.000E+00  0.000E+00  0.000E+00  3.84054E+01  1.668E-01  2.000E+01  2.000E+04  2.398E-01
   1    9   30     2     1    5.0000E+04 -2.8212E+02   5.0282E+04  0.000E+00  0.000E+00  0.000E+00  4.02411E+01  1.161E-01  2.000E+01  2.000E+04 -1.411E-02
   1    9   29     2     2    5.0282E+04 -5.6109E+02   5.0843E+04  0.000E+00  0.000E+00  0.000E+00  3.99916E+01  1.166E-01  2.000E+01  2.000E+04 -2.805E-02
   1    9   28     2     3    5.0843E+04 -8.1185E+02   5.1655E+04  0.000E+00  0.000E+00  0.000E+00  3.97426E+01  1.176E-01  2.000E+01  2.000E+04 -4.059E-02
   1    9   27     2     4    5.1655E+04 -2.3303E+03   5.3985E+04  0.000E+00  0.000E+00  0.000E+00  3.94947E+01  1.197E-01  2.000E+01  2.000E+04 -1.165E-01
   1   10   26     2     5    5.3985E+04  1.8633E+02   5.3799E+04  0.000E+00  0.000E+00  0.000E+00  3.92462E+01  1.212E-01  2.000E+01  2.000E+04  9.316E-03
   1   11   25     2     6    5.3799E+04  1.4580E+03   5.2341E+04  0.000E+00  0.000E+00  0.000E+00  3.89951E+01  1.201E-01  2.000E+01  2.000E+04  7.290E-02
   1   12   24     2     7    5.2341E+04 -1.7728E+02   5.2518E+04  0.000E+00  0.000E+00  0.000E+00  3.87442E+01  1.192E-01  2.000E+01  2.000E+04 -8.864E-03
   1   13   23     2     8    5.2518E+04 -3.3380E+02   5.2852E+04  0.000E+00  0.000E+00  0.000E+00  3.84946E+01  1.196E-01  2.000E+01  2.000E+04 -1.669E-02
   1   14   22     2     9    5.2852E+04  1.5621E+03   5.1290E+04  0.000E+00  0.000E+00  0.000E+00  3.82437E+01  1.187E-01  2.000E+01  2.000E+04  7.811E-02
   1   14   22     3     1    1.7571E+05 -8.7843E+03   1.8449E+05  0.000E+00  0.000E+00  0.000E+00  3.77264E+01  1.708E-01  2.000E+01  2.000E+04 -4.392E-01
   1   15   23     3     2    1.8449E+05 -6.5295E+02   1.8514E+05  0.000E+00  0.000E+00  0.000E+00  3.68402E+01  1.735E-01  2.000E+01  2.000E+04 -3.265E-02
   1   15   24     3     3    1.8514E+05 -3.5195E+02   1.8550E+05  0.000E+00  0.000E+00  0.000E+00  3.59516E+01  1.738E-01  2.000E+01  2.000E+04 -1.760E-02
   1   15   25     3     4    1.8550E+05 -2.8578E+02   1.8578E+05  0.000E+00  0.000E+00  0.000E+00  3.50629E+01  1.740E-01  2.000E+01  2.000E+04 -1.429E-02
   1   15   26     3     5    1.8578E+05  1.0266E+01   1.8577E+05  0.000E+00  0.000E+00  0.000E+00  3.41741E+01  1.741E-01  2.000E+01  2.000E+04  5.133E-04
   1   16   27     3     6    1.8577E+05  2.2030E+02   1.8555E+05  0.000E+00  0.000E+00  0.000E+00  3.32851E+01  1.740E-01  2.000E+01  2.000E+04  1.101E-02
   1   17   28     3     7    1.8555E+05  1.1342E+03   1.8442E+05  0.000E+00  0.000E+00  0.000E+00  3.23958E+01  1.736E-01  2.000E+01  2.000E+04  5.671E-02
   1   18   29     3     8    1.8442E+05 -2.5662E+03   1.8698E+05  0.000E+00  0.000E+00  0.000E+00  3.15073E+01  1.740E-01  2.000E+01  2.000E+04 -1.283E-01
   1   18   30     3     9    1.8698E+05 -2.6264E+03   1.8961E+05  0.000E+00  0.000E+00  0.000E+00  3.06199E+01  1.755E-01  2.000E+01  2.000E+04 -1.313E-01



1
              HEAD IN LAYER   1 AT END OF TIME STEP   1 IN STRESS PERIOD    6
  ---------------------------------------------------------------------------

          1      2      3      4      5      6      7      8      9     10
         11     12     13     14     15     16     17     18     19     20
         21     22     23     24     25     26     27     28     29     30
 .........................................................................
   1  ****** ****** ****** ****** ****** ****** ****** ****** ****** ******
      ****** ****** ****** ****** ****** ****** ****** ****** ****** ******
      ****** ****** ****** ****** ****** ****** ****** ****** ****** ******
   2  ****** ****** ****** ****** ****** ****** ****** ****** ****** ******
      ****** ****** ****** ****** ****** ****** ****** ****** ****** ******
      ****** ****** ****** ****** ****** ****** ****** ****** ****** ******
   3  ****** ****** ****** ****** ****** ****** ****** ****** ****** ******
      ****** ****** ****** ****** ****** ****** ****** ****** ****** ******
      ****** ****** ****** ****** ****** ****** ****** ****** ****** ******
   4  ****** ****** ****** ****** ****** ****** ****** ****** ****** ******
      ****** ****** ****** ****** ****** ****** ****** ****** ****** ******
      ****** ****** ****** ****** ****** ****** ****** ****** ****** ******
   5  ****** ****** ****** ****** ****** ****** ****** ****** ****** ******
      ****** ****** ****** ****** ****** ****** ****** ****** ****** ******
      ****** ****** ****** ****** ****** ****** ****** ****** ****** ******
   6  ****** ****** ****** ****** ****** ****** ****** ****** ****** ******
      ****** ****** ****** ****** ****** ****** ****** ****** ****** ******
      ****** ****** ****** ****** ****** ****** ****** ****** ****** ******
   7  ****** ****** ****** ****** ****** ****** ****** ****** ****** ******
      ****** ****** ****** ****** ****** ****** ****** ****** ****** ******
      ****** ****** ****** ****** ****** ****** ****** ****** ****** ******
   8  ****** ****** ****** ****** ****** ****** ****** ****** ****** ******
      ****** ****** ****** ****** ****** ****** ****** ****** ****** ******
      ****** ****** ****** ****** ****** ****** ****** ****** ****** ******
   9  ****** ****** ****** ****** ****** ****** ****** ****** ****** ******
      ****** ****** ****** ****** ****** ****** ****** ****** ****** ******
      ****** ****** ****** ****** ****** ****** ****** ****** ****** ******
  10  ****** ****** ****** ****** ****** ****** ****** ****** ****** ******
      ****** ****** ****** ****** ****** ****** ****** ****** ****** ******
      ****** ****** ****** ****** ****** ****** ****** ****** ****** ******
  11  ****** ****** ****** ****** ****** ****** ****** ****** ****** ******
      ****** ****** ****** ****** ****** ****** ****** ****** ****** ******
      ****** ****** ****** ****** ****** ****** ****** ****** ****** ******
  12  ****** ****** ****** ****** ****** ****** ****** ****** ****** ******
      ****** ****** ****** ****** ****** ****** ****** ****** ****** ******
      ****** ****** ****** ****** ****** ****** ****** ****** ****** ******
  13  ****** ****** ****** ****** ****** ****** ****** ****** ****** ******
      ****** ****** ****** ****** ****** ****** ****** ****** ****** ******
      ****** ****** ****** ****** ****** ****** ****** ****** ****** ******
  14  ****** ****** ****** ****** ****** ****** ****** ****** ****** ******
      ****** ****** ****** ****** ****** ****** ****** ****** ****** ******
      ****** ****** ****** ****** ****** ****** ****** ****** ****** ******
  15  ****** ****** ****** ****** ****** ****** ****** ****** ****** ******
      ****** ****** ****** ****** ****** ****** ****** ****** ****** ******
      ****** ****** ****** ****** ****** ****** ****** ****** ****** ******
  16  ****** ****** ****** ****** ****** ****** ****** ****** ****** ******
      ****** ****** ****** ****** ****** ****** ****** ****** ****** ******
      ****** ****** ****** ****** ****** ****** ****** ****** ****** ******
  17  ****** ****** ****** ****** ****** ****** ****** ****** ****** ******
      ****** ****** ****** ****** ****** ****** ****** ****** ****** ******
      ****** ****** ****** ****** ****** ****** ****** ****** ****** ******
  18  ****** ****** ****** ****** ****** ****** ****** ****** ****** ******
      ****** ****** ****** ****** ****** ****** ****** ****** ****** ******
      ****** ****** ****** ****** ****** ****** ****** ****** ****** ******
  19  ****** ****** ****** ****** ****** ****** ****** ****** ****** ******
      ****** ****** ****** ****** ****** ****** ****** ****** ****** ******
      ****** ****** ****** ****** ****** ****** ****** ****** ****** ******
  20  ****** ****** ****** ****** ****** ****** ****** ****** ****** ******
      ****** ****** ****** ****** ****** ****** ****** ****** ****** ******
      ****** ****** ****** ****** ****** ****** ****** ****** ****** ******
  21  ****** ****** ****** ****** ****** ****** ****** ****** ****** ******
      ****** ****** ****** ****** ****** ****** ****** ****** ****** ******
      ****** ****** ****** ****** ****** ****** ****** ****** ****** ******
  22  ****** ****** ****** ****** ****** ****** ****** ****** ****** ******
      ****** ****** ****** ****** ****** ****** ****** ****** ****** ******
      ****** ****** ****** ****** ****** ****** ****** ****** ****** ******
  23  ****** ****** ****** ****** ****** ****** ****** ****** ****** ******
      ****** ****** ****** ****** ****** ****** ****** ****** ****** ******
      ****** ****** ****** ****** ****** ****** ****** ****** ****** ******
  24  ****** ****** ****** ****** ****** ****** ****** ****** ****** ******
      ****** ****** ****** ****** ****** ****** ****** ****** ****** ******
      ****** ****** ****** ****** ****** ****** ****** ****** ****** ******
  25  ****** ****** ****** ****** ****** ****** ****** ****** ****** ******
      ****** ****** ****** ****** ****** ****** ****** ****** ****** ******
      ****** ****** ****** ****** ****** ****** ****** ****** ****** ******

 HEAD WILL BE SAVED ON UNIT   51 AT END OF TIME STEP    1, STRESS PERIOD    6
1
  VOLUMETRIC BUDGET FOR ENTIRE MODEL AT END OF TIME STEP    1, STRESS PERIOD   6
  ------------------------------------------------------------------------------

     CUMULATIVE VOLUMES      L**3       RATES FOR THIS TIME STEP      L**3/T
     ------------------                 ------------------------

           IN:                                      IN:
           ---                                      ---
             STORAGE =    30376184.0687               STORAGE =           0.0000
       CONSTANT HEAD =    12594253.6713         CONSTANT HEAD =       27912.9518
               WELLS =           0.0000                 WELLS =           0.0000
            RECHARGE =    15097200.0000              RECHARGE =       55200.0000
      STREAM LEAKAGE =     5657150.3829        STREAM LEAKAGE =       11909.4492

            TOTAL IN =    63724788.1229              TOTAL IN =       95022.4010

          OUT:                                     OUT:
          ----                                     ----
             STORAGE =      825022.8738               STORAGE =        9061.3872
       CONSTANT HEAD =           0.0000         CONSTANT HEAD =           0.0000
               WELLS =    18874383.4319                 WELLS =       34442.3055
            RECHARGE =           0.0000              RECHARGE =           0.0000
      STREAM LEAKAGE =    44025384.0090        STREAM LEAKAGE =       51518.7052

           TOTAL OUT =    63724790.3147             TOTAL OUT =       95022.3980

            IN - OUT =          -2.1918              IN - OUT =       3.0106E-03

 PERCENT DISCREPANCY =          -0.00     PERCENT DISCREPANCY =           0.00






         TIME SUMMARY AT END OF TIME STEP    1 IN STRESS PERIOD    6
                    SECONDS     MINUTES      HOURS       DAYS        YEARS
                    -----------------------------------------------------------
   TIME STEP LENGTH 7.86240E+06 1.31040E+05  2184.0      91.000     0.24914    
 STRESS PERIOD TIME 7.86240E+06 1.31040E+05  2184.0      91.000     0.24914    
         TOTAL TIME 4.73472E+07 7.89120E+05  13152.      548.00      1.5003    
1
1
                            STRESS PERIOD NO.    7, LENGTH =   91.00000    
                            -----------------------------------------------

                              NUMBER OF TIME STEPS =     1

                               MULTIPLIER FOR DELT =     1.500

                            INITIAL TIME STEP SIZE =   91.00000    

 WELL NO.  LAYER   ROW   COL   STRESS RATE         
 --------------------------------------------------
      1      1     19     11     -0.1013E+05
      2      1     15     28      -7561.    
      3      1     15      7      -7227.    
      4      1     12     26      -9522.    

      4 WELLS

                 RECHARGE =   0.00000    

 REUSING STREAM SEGMENT DATA FROM LAST STRESS PERIOD
 
 SOLVING FOR HEAD 


     7 CALLS TO PCG ROUTINE FOR TIME STEP   1 IN STRESS PERIOD    7
    26 TOTAL ITERATIONS

 OUTPUT CONTROL FOR STRESS PERIOD    7   TIME STEP    1
    SAVE BUDGET
    SAVE HEAD FOR ALL LAYERS
    PRINT HEAD FOR ALL LAYERS
 UBDSV2 SAVING "STREAMFLOW OUT  " ON UNIT  50 AT TIME STEP  1, STRESS PERIOD   7



 STREAM LISTING     PERIOD      7   STEP        1

 LAYER ROW COL. STREAM  RCH.  FLOW INTO     FLOW TO   FLOW OUT OF   OVRLND.     DIRECT     STREAM       STREAM     STREAM     STREAM   STREAMBED  STREAMBED
                SEG.NO.  NO.  STRM. RCH.    AQUIFER    STRM. RCH.    RUNOFF     PRECIP       ET          HEAD       DEPTH      WIDTH   CONDCTNC.   GRADIENT

   1   13    1     1     1    1.0000E+05 -1.6814E+03   1.0168E+05  0.000E+00  0.000E+00  0.000E+00  4.84067E+01  1.454E-01  2.000E+01  2.000E+04 -8.407E-02
   1   13    2     1     2    1.0168E+05 -2.5988E+03   1.0428E+05  0.000E+00  0.000E+00  0.000E+00  4.79313E+01  1.472E-01  2.000E+01  2.000E+04 -1.299E-01
   1   14    3     1     3    1.0428E+05 -2.7616E+02   1.0456E+05  0.000E+00  0.000E+00  0.000E+00  4.74553E+01  1.485E-01  2.000E+01  2.000E+04 -1.381E-02
   1   15    4     1     4    1.0456E+05 -9.3025E+01   1.0465E+05  0.000E+00  0.000E+00  0.000E+00  4.69782E+01  1.486E-01  2.000E+01  2.000E+04 -4.651E-03
   1   16    5     1     5    1.0465E+05 -6.9511E+02   1.0534E+05  0.000E+00  0.000E+00  0.000E+00  4.65012E+01  1.489E-01  2.000E+01  2.000E+04 -3.476E-02
   1   16    6     1     6    1.0534E+05  3.9428E+02   1.0495E+05  0.000E+00  0.000E+00  0.000E+00  4.60241E+01  1.491E-01  2.000E+01  2.000E+04  1.971E-02
   1   16    7     1     7    1.0495E+05  2.7707E+03   1.0218E+05  0.000E+00  0.000E+00  0.000E+00  4.55455E+01  1.477E-01  2.000E+01  2.000E+04  1.385E-01
   1   16    8     1     8    1.0218E+05  6.4353E+02   1.0154E+05  0.000E+00  0.000E+00  0.000E+00  4.50667E+01  1.463E-01  2.000E+01  2.000E+04  3.218E-02
   1   16    9     1     9    1.0154E+05  1.8817E+02   1.0135E+05  0.000E+00  0.000E+00  0.000E+00  4.45891E+01  1.459E-01  2.000E+01  2.000E+04  9.408E-03
   1   16   10     1    10    1.0135E+05  2.4041E+02   1.0111E+05  0.000E+00  0.000E+00  0.000E+00  4.41116E+01  1.457E-01  2.000E+01  2.000E+04  1.202E-02
   1   16   11     1    11    1.0111E+05  3.4936E+02   1.0076E+05  0.000E+00  0.000E+00  0.000E+00  4.36341E+01  1.455E-01  2.000E+01  2.000E+04  1.747E-02
   1   16   12     1    12    1.0076E+05 -1.5269E+02   1.0091E+05  0.000E+00  0.000E+00  0.000E+00  4.31567E+01  1.454E-01  2.000E+01  2.000E+04 -7.634E-03
   1   15   13     1    13    1.0091E+05 -9.4458E+02   1.0186E+05  0.000E+00  0.000E+00  0.000E+00  4.26799E+01  1.458E-01  2.000E+01  2.000E+04 -4.723E-02
   1   14   14     1    14    1.0186E+05 -1.5298E+03   1.0339E+05  0.000E+00  0.000E+00  0.000E+00  4.22037E+01  1.469E-01  2.000E+01  2.000E+04 -7.649E-02
   1   13   15     1    15    1.0339E+05 -2.0134E+03   1.0540E+05  0.000E+00  0.000E+00  0.000E+00  4.17280E+01  1.484E-01  2.000E+01  2.000E+04 -1.007E-01
   1   12   16     1    16    1.0540E+05 -2.8185E+03   1.0822E+05  0.000E+00  0.000E+00  0.000E+00  4.12528E+01  1.505E-01  2.000E+01  2.000E+04 -1.409E-01
   1   12   17     1    17    1.0822E+05 -1.7978E+03   1.1001E+05  0.000E+00  0.000E+00  0.000E+00  4.07774E+01  1.524E-01  2.000E+01  2.000E+04 -8.989E-02
   1   12   18     1    18    1.1001E+05 -1.7143E+03   1.1173E+05  0.000E+00  0.000E+00  0.000E+00  4.03016E+01  1.539E-01  2.000E+01  2.000E+04 -8.571E-02
   1   12   19     1    19    1.1173E+05 -2.2680E+03   1.1400E+05  0.000E+00  0.000E+00  0.000E+00  3.98260E+01  1.555E-01  2.000E+01  2.000E+04 -1.134E-01
   1   13   20     1    20    1.1400E+05 -1.5810E+03   1.1558E+05  0.000E+00  0.000E+00  0.000E+00  3.93503E+01  1.571E-01  2.000E+01  2.000E+04 -7.905E-02
   1   14   21     1    21    1.1558E+05 -1.3511E+03   1.1693E+05  0.000E+00  0.000E+00  0.000E+00  3.88742E+01  1.583E-01  2.000E+01  2.000E+04 -6.755E-02
   1   14   22     1    22    1.1693E+05  4.9552E+03   1.1197E+05  0.000E+00  0.000E+00  0.000E+00  3.83955E+01  1.569E-01  2.000E+01  2.000E+04  2.478E-01
   1    9   30     2     1    5.0000E+04  2.2948E+02   4.9771E+04  0.000E+00  0.000E+00  0.000E+00  4.02407E+01  1.157E-01  2.000E+01  2.000E+04  1.147E-02
   1    9   29     2     2    4.9771E+04 -5.1411E+01   4.9822E+04  0.000E+00  0.000E+00  0.000E+00  3.99906E+01  1.156E-01  2.000E+01  2.000E+04 -2.571E-03
   1    9   28     2     3    4.9822E+04 -3.0118E+02   5.0123E+04  0.000E+00  0.000E+00  0.000E+00  3.97408E+01  1.158E-01  2.000E+01  2.000E+04 -1.506E-02
   1    9   27     2     4    5.0123E+04 -1.6380E+03   5.1761E+04  0.000E+00  0.000E+00  0.000E+00  3.94922E+01  1.172E-01  2.000E+01  2.000E+04 -8.190E-02
   1   10   26     2     5    5.1761E+04  8.8159E+02   5.0880E+04  0.000E+00  0.000E+00  0.000E+00  3.92427E+01  1.177E-01  2.000E+01  2.000E+04  4.408E-02
   1   11   25     2     6    5.0880E+04  2.1249E+03   4.8755E+04  0.000E+00  0.000E+00  0.000E+00  3.89906E+01  1.156E-01  2.000E+01  2.000E+04  1.062E-01
   1   12   24     2     7    4.8755E+04  4.3054E+02   4.8324E+04  0.000E+00  0.000E+00  0.000E+00  3.87388E+01  1.138E-01  2.000E+01  2.000E+04  2.153E-02
   1   13   23     2     8    4.8324E+04 -1.4249E+02   4.8467E+04  0.000E+00  0.000E+00  0.000E+00  3.84886E+01  1.136E-01  2.000E+01  2.000E+04 -7.125E-03
   1   14   22     2     9    4.8467E+04  1.7944E+03   4.6672E+04  0.000E+00  0.000E+00  0.000E+00  3.82375E+01  1.125E-01  2.000E+01  2.000E+04  8.972E-02
   1   14   22     3     1    1.5865E+05 -8.6256E+03   1.6727E+05  0.000E+00  0.000E+00  0.000E+00  3.77165E+01  1.609E-01  2.000E+01  2.000E+04 -4.313E-01
   1   15   23     3     2    1.6727E+05 -4.4715E+02   1.6772E+05  0.000E+00  0.000E+00  0.000E+00  3.68302E+01  1.636E-01  2.000E+01  2.000E+04 -2.236E-02
   1   15   24     3     3    1.6772E+05 -1.7876E+02   1.6790E+05  0.000E+00  0.000E+00  0.000E+00  3.59415E+01  1.638E-01  2.000E+01  2.000E+04 -8.938E-03
   1   15   25     3     4    1.6790E+05 -1.0948E+02   1.6801E+05  0.000E+00  0.000E+00  0.000E+00  3.50527E+01  1.638E-01  2.000E+01  2.000E+04 -5.474E-03
   1   15   26     3     5    1.6801E+05  2.1124E+02   1.6780E+05  0.000E+00  0.000E+00  0.000E+00  3.41638E+01  1.638E-01  2.000E+01  2.000E+04  1.056E-02
   1   16   27     3     6    1.6780E+05  4.5214E+02   1.6734E+05  0.000E+00  0.000E+00  0.000E+00  3.32747E+01  1.636E-01  2.000E+01  2.000E+04  2.261E-02
   1   17   28     3     7    1.6734E+05  1.7740E+03   1.6557E+05  0.000E+00  0.000E+00  0.000E+00  3.23852E+01  1.630E-01  2.000E+01  2.000E+04  8.870E-02
   1   18   29     3     8    1.6557E+05 -1.8838E+03   1.6745E+05  0.000E+00  0.000E+00  0.000E+00  3.14963E+01  1.630E-01  2.000E+01  2.000E+04 -9.419E-02
   1   18   30     3     9    1.6745E+05 -2.1002E+03   1.6955E+05  0.000E+00  0.000E+00  0.000E+00  3.06086E+01  1.642E-01  2.000E+01  2.000E+04 -1.050E-01



1
              HEAD IN LAYER   1 AT END OF TIME STEP   1 IN STRESS PERIOD    7
  ---------------------------------------------------------------------------

          1      2      3      4      5      6      7      8      9     10
         11     12     13     14     15     16     17     18     19     20
         21     22     23     24     25     26     27     28     29     30
 .........................................................................
   1  ****** ****** ****** ****** ****** ****** ****** ****** ****** ******
      ****** ****** ****** ****** ****** ****** ****** ****** ****** ******
      ****** ****** ****** ****** ****** ****** ****** ****** ****** ******
   2  ****** ****** ****** ****** ****** ****** ****** ****** ****** ******
      ****** ****** ****** ****** ****** ****** ****** ****** ****** ******
      ****** ****** ****** ****** ****** ****** ****** ****** ****** ******
   3  ****** ****** ****** ****** ****** ****** ****** ****** ****** ******
      ****** ****** ****** ****** ****** ****** ****** ****** ****** ******
      ****** ****** ****** ****** ****** ****** ****** ****** ****** ******
   4  ****** ****** ****** ****** ****** ****** ****** ****** ****** ******
      ****** ****** ****** ****** ****** ****** ****** ****** ****** ******
      ****** ****** ****** ****** ****** ****** ****** ****** ****** ******
   5  ****** ****** ****** ****** ****** ****** ****** ****** ****** ******
      ****** ****** ****** ****** ****** ****** ****** ****** ****** ******
      ****** ****** ****** ****** ****** ****** ****** ****** ****** ******
   6  ****** ****** ****** ****** ****** ****** ****** ****** ****** ******
      ****** ****** ****** ****** ****** ****** ****** ****** ****** ******
      ****** ****** ****** ****** ****** ****** ****** ****** ****** ******
   7  ****** ****** ****** ****** ****** ****** ****** ****** ****** ******
      ****** ****** ****** ****** ****** ****** ****** ****** ****** ******
      ****** ****** ****** ****** ****** ****** ****** ****** ****** ******
   8  ****** ****** ****** ****** ****** ****** ****** ****** ****** ******
      ****** ****** ****** ****** ****** ****** ****** ****** ****** ******
      ****** ****** ****** ****** ****** ****** ****** ****** ****** ******
   9  ****** ****** ****** ****** ****** ****** ****** ****** ****** ******
      ****** ****** ****** ****** ****** ****** ****** ****** ****** ******
      ****** ****** ****** ****** ****** ****** ****** ****** ****** ******
  10  ****** ****** ****** ****** ****** ****** ****** ****** ****** ******
      ****** ****** ****** ****** ****** ****** ****** ****** ****** ******
      ****** ****** ****** ****** ****** ****** ****** ****** ****** ******
  11  ****** ****** ****** ****** ****** ****** ****** ****** ****** ******
      ****** ****** ****** ****** ****** ****** ****** ****** ****** ******
      ****** ****** ****** ****** ****** ****** ****** ****** ****** ******
  12  ****** ****** ****** ****** ****** ****** ****** ****** ****** ******
      ****** ****** ****** ****** ****** ****** ****** ****** ****** ******
      ****** ****** ****** ****** ****** ****** ****** ****** ****** ******
  13  ****** ****** ****** ****** ****** ****** ****** ****** ****** ******
      ****** ****** ****** ****** ****** ****** ****** ****** ****** ******
      ****** ****** ****** ****** ****** ****** ****** ****** ****** ******
  14  ****** ****** ****** ****** ****** ****** ****** ****** ****** ******
      ****** ****** ****** ****** ****** ****** ****** ****** ****** ******
      ****** ****** ****** ****** ****** ****** ****** ****** ****** ******
  15  ****** ****** ****** ****** ****** ****** ****** ****** ****** ******
      ****** ****** ****** ****** ****** ****** ****** ****** ****** ******
      ****** ****** ****** ****** ****** ****** ****** ****** ****** ******
  16  ****** ****** ****** ****** ****** ****** ****** ****** ****** ******
      ****** ****** ****** ****** ****** ****** ****** ****** ****** ******
      ****** ****** ****** ****** ****** ****** ****** ****** ****** ******
  17  ****** ****** ****** ****** ****** ****** ****** ****** ****** ******
      ****** ****** ****** ****** ****** ****** ****** ****** ****** ******
      ****** ****** ****** ****** ****** ****** ****** ****** ****** ******
  18  ****** ****** ****** ****** ****** ****** ****** ****** ****** ******
      ****** ****** ****** ****** ****** ****** ****** ****** ****** ******
      ****** ****** ****** ****** ****** ****** ****** ****** ****** ******
  19  ****** ****** ****** ****** ****** ****** ****** ****** ****** ******
      ****** ****** ****** ****** ****** ****** ****** ****** ****** ******
      ****** ****** ****** ****** ****** ****** ****** ****** ****** ******
  20  ****** ****** ****** ****** ****** ****** ****** ****** ****** ******
      ****** ****** ****** ****** ****** ****** ****** ****** ****** ******
      ****** ****** ****** ****** ****** ****** ****** ****** ****** ******
  21  ****** ****** ****** ****** ****** ****** ****** ****** ****** ******
      ****** ****** ****** ****** ****** ****** ****** ****** ****** ******
      ****** ****** ****** ****** ****** ****** ****** ****** ****** ******
  22  ****** ****** ****** ****** ****** ****** ****** ****** ****** ******
      ****** ****** ****** ****** ****** ****** ****** ****** ****** ******
      ****** ****** ****** ****** ****** ****** ****** ****** ****** ******
  23  ****** ****** ****** ****** ****** ****** ****** ****** ****** ******
      ****** ****** ****** ****** ****** ****** ****** ****** ****** ******
      ****** ****** ****** ****** ****** ****** ****** ****** ****** ******
  24  ****** ****** ****** ****** ****** ****** ****** ****** ****** ******
      ****** ****** ****** ****** ****** ****** ****** ****** ****** ******
      ****** ****** ****** ****** ****** ****** ****** ****** ****** ******
  25  ****** ****** ****** ****** ****** ****** ****** ****** ****** ******
      ****** ****** ****** ****** ****** ****** ****** ****** ****** ******
      ****** ****** ****** ****** ****** ****** ****** ****** ****** ******

 HEAD WILL BE SAVED ON UNIT   51 AT END OF TIME STEP    1, STRESS PERIOD    7
1
  VOLUMETRIC BUDGET FOR ENTIRE MODEL AT END OF TIME STEP    1, STRESS PERIOD   7
  ------------------------------------------------------------------------------

     CUMULATIVE VOLUMES      L**3       RATES FOR THIS TIME STEP      L**3/T
     ------------------                 ------------------------

           IN:                                      IN:
           ---                                      ---
             STORAGE =    32395595.1657               STORAGE =       22191.3307
       CONSTANT HEAD =    15488481.4168         CONSTANT HEAD =       31804.7005
               WELLS =           0.0000                 WELLS =           0.0000
            RECHARGE =    15097200.0000              RECHARGE =           0.0000
      STREAM LEAKAGE =     7244179.9473        STREAM LEAKAGE =       17439.8853

            TOTAL IN =    70225456.5299              TOTAL IN =       71435.9166

          OUT:                                     OUT:
          ----                                     ----
             STORAGE =      825022.8738               STORAGE =           0.0000
       CONSTANT HEAD =           0.0000         CONSTANT HEAD =           0.0000
               WELLS =    22008633.2354                 WELLS =       34442.3055
            RECHARGE =           0.0000              RECHARGE =           0.0000
      STREAM LEAKAGE =    47391803.1406        STREAM LEAKAGE =       36993.6168

           TOTAL OUT =    70225459.2498             TOTAL OUT =       71435.9224

            IN - OUT =          -2.7200              IN - OUT =      -5.8040E-03

 PERCENT DISCREPANCY =          -0.00     PERCENT DISCREPANCY =          -0.00






         TIME SUMMARY AT END OF TIME STEP    1 IN STRESS PERIOD    7
                    SECONDS     MINUTES      HOURS       DAYS        YEARS
                    -----------------------------------------------------------
   TIME STEP LENGTH 7.86240E+06 1.31040E+05  2184.0      91.000     0.24914    
 STRESS PERIOD TIME 7.86240E+06 1.31040E+05  2184.0      91.000     0.24914    
         TOTAL TIME 5.52096E+07 9.20160E+05  15336.      639.00      1.7495    
1
1
                            STRESS PERIOD NO.    8, LENGTH =   91.00000    
                            -----------------------------------------------

                              NUMBER OF TIME STEPS =     1

                               MULTIPLIER FOR DELT =     1.500

                            INITIAL TIME STEP SIZE =   91.00000    

 WELL NO.  LAYER   ROW   COL   STRESS RATE         
 --------------------------------------------------
      1      1     19     11     -0.1013E+05
      2      1     15     28      -7561.    
      3      1     15      7      -7227.    
      4      1     12     26      -9522.    

      4 WELLS

                 RECHARGE =  1.000000E-03

 REUSING STREAM SEGMENT DATA FROM LAST STRESS PERIOD
 
 SOLVING FOR HEAD 


     6 CALLS TO PCG ROUTINE FOR TIME STEP   1 IN STRESS PERIOD    8
    22 TOTAL ITERATIONS

 OUTPUT CONTROL FOR STRESS PERIOD    8   TIME STEP    1
    SAVE BUDGET
    SAVE HEAD FOR ALL LAYERS
    PRINT HEAD FOR ALL LAYERS
 UBDSV2 SAVING "STREAMFLOW OUT  " ON UNIT  50 AT TIME STEP  1, STRESS PERIOD   8



 STREAM LISTING     PERIOD      8   STEP        1

 LAYER ROW COL. STREAM  RCH.  FLOW INTO     FLOW TO   FLOW OUT OF   OVRLND.     DIRECT     STREAM       STREAM     STREAM     STREAM   STREAMBED  STREAMBED
                SEG.NO.  NO.  STRM. RCH.    AQUIFER    STRM. RCH.    RUNOFF     PRECIP       ET          HEAD       DEPTH      WIDTH   CONDCTNC.   GRADIENT

   1   13    1     1     1    1.0000E+05 -1.7570E+03   1.0176E+05  0.000E+00  0.000E+00  0.000E+00  4.84068E+01  1.454E-01  2.000E+01  2.000E+04 -8.785E-02
   1   13    2     1     2    1.0176E+05 -2.6735E+03   1.0443E+05  0.000E+00  0.000E+00  0.000E+00  4.79314E+01  1.473E-01  2.000E+01  2.000E+04 -1.337E-01
   1   14    3     1     3    1.0443E+05 -3.3946E+02   1.0477E+05  0.000E+00  0.000E+00  0.000E+00  4.74554E+01  1.486E-01  2.000E+01  2.000E+04 -1.697E-02
   1   15    4     1     4    1.0477E+05 -1.6073E+02   1.0493E+05  0.000E+00  0.000E+00  0.000E+00  4.69784E+01  1.488E-01  2.000E+01  2.000E+04 -8.036E-03
   1   16    5     1     5    1.0493E+05 -8.6672E+02   1.0580E+05  0.000E+00  0.000E+00  0.000E+00  4.65015E+01  1.493E-01  2.000E+01  2.000E+04 -4.334E-02
   1   16    6     1     6    1.0580E+05  2.8894E+02   1.0551E+05  0.000E+00  0.000E+00  0.000E+00  4.60245E+01  1.495E-01  2.000E+01  2.000E+04  1.445E-02
   1   16    7     1     7    1.0551E+05  2.6703E+03   1.0284E+05  0.000E+00  0.000E+00  0.000E+00  4.55460E+01  1.482E-01  2.000E+01  2.000E+04  1.335E-01
   1   16    8     1     8    1.0284E+05  5.4387E+02   1.0229E+05  0.000E+00  0.000E+00  0.000E+00  4.50673E+01  1.469E-01  2.000E+01  2.000E+04  2.719E-02
   1   16    9     1     9    1.0229E+05  8.7084E+01   1.0221E+05  0.000E+00  0.000E+00  0.000E+00  4.45898E+01  1.466E-01  2.000E+01  2.000E+04  4.354E-03
   1   16   10     1    10    1.0221E+05  1.3647E+02   1.0207E+05  0.000E+00  0.000E+00  0.000E+00  4.41124E+01  1.465E-01  2.000E+01  2.000E+04  6.823E-03
   1   16   11     1    11    1.0207E+05  2.4196E+02   1.0183E+05  0.000E+00  0.000E+00  0.000E+00  4.36350E+01  1.463E-01  2.000E+01  2.000E+04  1.210E-02
   1   16   12     1    12    1.0183E+05 -3.1387E+02   1.0214E+05  0.000E+00  0.000E+00  0.000E+00  4.31577E+01  1.464E-01  2.000E+01  2.000E+04 -1.569E-02
   1   15   13     1    13    1.0214E+05 -1.1133E+03   1.0326E+05  0.000E+00  0.000E+00  0.000E+00  4.26811E+01  1.470E-01  2.000E+01  2.000E+04 -5.566E-02
   1   14   14     1    14    1.0326E+05 -1.6923E+03   1.0495E+05  0.000E+00  0.000E+00  0.000E+00  4.22050E+01  1.482E-01  2.000E+01  2.000E+04 -8.461E-02
   1   13   15     1    15    1.0495E+05 -2.1638E+03   1.0711E+05  0.000E+00  0.000E+00  0.000E+00  4.17294E+01  1.498E-01  2.000E+01  2.000E+04 -1.082E-01
   1   12   16     1    16    1.0711E+05 -2.9320E+03   1.1004E+05  0.000E+00  0.000E+00  0.000E+00  4.12542E+01  1.520E-01  2.000E+01  2.000E+04 -1.466E-01
   1   12   17     1    17    1.1004E+05 -1.9106E+03   1.1195E+05  0.000E+00  0.000E+00  0.000E+00  4.07790E+01  1.540E-01  2.000E+01  2.000E+04 -9.553E-02
   1   12   18     1    18    1.1195E+05 -1.8337E+03   1.1379E+05  0.000E+00  0.000E+00  0.000E+00  4.03033E+01  1.556E-01  2.000E+01  2.000E+04 -9.169E-02
   1   12   19     1    19    1.1379E+05 -2.4187E+03   1.1621E+05  0.000E+00  0.000E+00  0.000E+00  3.98278E+01  1.573E-01  2.000E+01  2.000E+04 -1.209E-01
   1   13   20     1    20    1.1621E+05 -1.7603E+03   1.1797E+05  0.000E+00  0.000E+00  0.000E+00  3.93522E+01  1.590E-01  2.000E+01  2.000E+04 -8.801E-02
   1   14   21     1    21    1.1797E+05 -1.5105E+03   1.1948E+05  0.000E+00  0.000E+00  0.000E+00  3.88762E+01  1.603E-01  2.000E+01  2.000E+04 -7.553E-02
   1   14   22     1    22    1.1948E+05  4.9065E+03   1.1457E+05  0.000E+00  0.000E+00  0.000E+00  3.83976E+01  1.590E-01  2.000E+01  2.000E+04  2.453E-01
   1    9   30     2     1    5.0000E+04  6.5542E+01   4.9934E+04  0.000E+00  0.000E+00  0.000E+00  4.02408E+01  1.158E-01  2.000E+01  2.000E+04  3.277E-03
   1    9   29     2     2    4.9934E+04 -2.1259E+02   5.0147E+04  0.000E+00  0.000E+00  0.000E+00  3.99909E+01  1.159E-01  2.000E+01  2.000E+04 -1.063E-02
   1    9   28     2     3    5.0147E+04 -4.5690E+02   5.0604E+04  0.000E+00  0.000E+00  0.000E+00  3.97414E+01  1.164E-01  2.000E+01  2.000E+04 -2.285E-02
   1    9   27     2     4    5.0604E+04 -1.8177E+03   5.2422E+04  0.000E+00  0.000E+00  0.000E+00  3.94930E+01  1.180E-01  2.000E+01  2.000E+04 -9.089E-02
   1   10   26     2     5    5.2422E+04  6.7515E+02   5.1747E+04  0.000E+00  0.000E+00  0.000E+00  3.92437E+01  1.187E-01  2.000E+01  2.000E+04  3.376E-02
   1   11   25     2     6    5.1747E+04  1.9202E+03   4.9826E+04  0.000E+00  0.000E+00  0.000E+00  3.89920E+01  1.170E-01  2.000E+01  2.000E+04  9.601E-02
   1   12   24     2     7    4.9826E+04  2.4472E+02   4.9582E+04  0.000E+00  0.000E+00  0.000E+00  3.87405E+01  1.155E-01  2.000E+01  2.000E+04  1.224E-02
   1   13   23     2     8    4.9582E+04 -2.1689E+02   4.9799E+04  0.000E+00  0.000E+00  0.000E+00  3.84904E+01  1.154E-01  2.000E+01  2.000E+04 -1.084E-02
   1   14   22     2     9    4.9799E+04  1.7419E+03   4.8057E+04  0.000E+00  0.000E+00  0.000E+00  3.82394E+01  1.144E-01  2.000E+01  2.000E+04  8.709E-02
   1   14   22     3     1    1.6263E+05 -8.6692E+03   1.7130E+05  0.000E+00  0.000E+00  0.000E+00  3.77188E+01  1.633E-01  2.000E+01  2.000E+04 -4.335E-01
   1   15   23     3     2    1.7130E+05 -5.1153E+02   1.7181E+05  0.000E+00  0.000E+00  0.000E+00  3.68326E+01  1.659E-01  2.000E+01  2.000E+04 -2.558E-02
   1   15   24     3     3    1.7181E+05 -2.3940E+02   1.7205E+05  0.000E+00  0.000E+00  0.000E+00  3.59439E+01  1.662E-01  2.000E+01  2.000E+04 -1.197E-02
   1   15   25     3     4    1.7205E+05 -1.7183E+02   1.7222E+05  0.000E+00  0.000E+00  0.000E+00  3.50552E+01  1.663E-01  2.000E+01  2.000E+04 -8.592E-03
   1   15   26     3     5    1.7222E+05  1.3651E+02   1.7208E+05  0.000E+00  0.000E+00  0.000E+00  3.41663E+01  1.663E-01  2.000E+01  2.000E+04  6.825E-03
   1   16   27     3     6    1.7208E+05  3.7016E+02   1.7171E+05  0.000E+00  0.000E+00  0.000E+00  3.32772E+01  1.661E-01  2.000E+01  2.000E+04  1.851E-02
   1   17   28     3     7    1.7171E+05  1.5697E+03   1.7014E+05  0.000E+00  0.000E+00  0.000E+00  3.23878E+01  1.656E-01  2.000E+01  2.000E+04  7.849E-02
   1   18   29     3     8    1.7014E+05 -2.0504E+03   1.7219E+05  0.000E+00  0.000E+00  0.000E+00  3.14990E+01  1.657E-01  2.000E+01  2.000E+04 -1.025E-01
   1   18   30     3     9    1.7219E+05 -2.2476E+03   1.7444E+05  0.000E+00  0.000E+00  0.000E+00  3.06114E+01  1.670E-01  2.000E+01  2.000E+04 -1.124E-01



1
              HEAD IN LAYER   1 AT END OF TIME STEP   1 IN STRESS PERIOD    8
  ---------------------------------------------------------------------------

          1      2      3      4      5      6      7      8      9     10
         11     12     13     14     15     16     17     18     19     20
         21     22     23     24     25     26     27     28     29     30
 .........................................................................
   1  ****** ****** ****** ****** ****** ****** ****** ****** ****** ******
      ****** ****** ****** ****** ****** ****** ****** ****** ****** ******
      ****** ****** ****** ****** ****** ****** ****** ****** ****** ******
   2  ****** ****** ****** ****** ****** ****** ****** ****** ****** ******
      ****** ****** ****** ****** ****** ****** ****** ****** ****** ******
      ****** ****** ****** ****** ****** ****** ****** ****** ****** ******
   3  ****** ****** ****** ****** ****** ****** ****** ****** ****** ******
      ****** ****** ****** ****** ****** ****** ****** ****** ****** ******
      ****** ****** ****** ****** ****** ****** ****** ****** ****** ******
   4  ****** ****** ****** ****** ****** ****** ****** ****** ****** ******
      ****** ****** ****** ****** ****** ****** ****** ****** ****** ******
      ****** ****** ****** ****** ****** ****** ****** ****** ****** ******
   5  ****** ****** ****** ****** ****** ****** ****** ****** ****** ******
      ****** ****** ****** ****** ****** ****** ****** ****** ****** ******
      ****** ****** ****** ****** ****** ****** ****** ****** ****** ******
   6  ****** ****** ****** ****** ****** ****** ****** ****** ****** ******
      ****** ****** ****** ****** ****** ****** ****** ****** ****** ******
      ****** ****** ****** ****** ****** ****** ****** ****** ****** ******
   7  ****** ****** ****** ****** ****** ****** ****** ****** ****** ******
      ****** ****** ****** ****** ****** ****** ****** ****** ****** ******
      ****** ****** ****** ****** ****** ****** ****** ****** ****** ******
   8  ****** ****** ****** ****** ****** ****** ****** ****** ****** ******
      ****** ****** ****** ****** ****** ****** ****** ****** ****** ******
      ****** ****** ****** ****** ****** ****** ****** ****** ****** ******
   9  ****** ****** ****** ****** ****** ****** ****** ****** ****** ******
      ****** ****** ****** ****** ****** ****** ****** ****** ****** ******
      ****** ****** ****** ****** ****** ****** ****** ****** ****** ******
  10  ****** ****** ****** ****** ****** ****** ****** ****** ****** ******
      ****** ****** ****** ****** ****** ****** ****** ****** ****** ******
      ****** ****** ****** ****** ****** ****** ****** ****** ****** ******
  11  ****** ****** ****** ****** ****** ****** ****** ****** ****** ******
      ****** ****** ****** ****** ****** ****** ****** ****** ****** ******
      ****** ****** ****** ****** ****** ****** ****** ****** ****** ******
  12  ****** ****** ****** ****** ****** ****** ****** ****** ****** ******
      ****** ****** ****** ****** ****** ****** ****** ****** ****** ******
      ****** ****** ****** ****** ****** ****** ****** ****** ****** ******
  13  ****** ****** ****** ****** ****** ****** ****** ****** ****** ******
      ****** ****** ****** ****** ****** ****** ****** ****** ****** ******
      ****** ****** ****** ****** ****** ****** ****** ****** ****** ******
  14  ****** ****** ****** ****** ****** ****** ****** ****** ****** ******
      ****** ****** ****** ****** ****** ****** ****** ****** ****** ******
      ****** ****** ****** ****** ****** ****** ****** ****** ****** ******
  15  ****** ****** ****** ****** ****** ****** ****** ****** ****** ******
      ****** ****** ****** ****** ****** ****** ****** ****** ****** ******
      ****** ****** ****** ****** ****** ****** ****** ****** ****** ******
  16  ****** ****** ****** ****** ****** ****** ****** ****** ****** ******
      ****** ****** ****** ****** ****** ****** ****** ****** ****** ******
      ****** ****** ****** ****** ****** ****** ****** ****** ****** ******
  17  ****** ****** ****** ****** ****** ****** ****** ****** ****** ******
      ****** ****** ****** ****** ****** ****** ****** ****** ****** ******
      ****** ****** ****** ****** ****** ****** ****** ****** ****** ******
  18  ****** ****** ****** ****** ****** ****** ****** ****** ****** ******
      ****** ****** ****** ****** ****** ****** ****** ****** ****** ******
      ****** ****** ****** ****** ****** ****** ****** ****** ****** ******
  19  ****** ****** ****** ****** ****** ****** ****** ****** ****** ******
      ****** ****** ****** ****** ****** ****** ****** ****** ****** ******
      ****** ****** ****** ****** ****** ****** ****** ****** ****** ******
  20  ****** ****** ****** ****** ****** ****** ****** ****** ****** ******
      ****** ****** ****** ****** ****** ****** ****** ****** ****** ******
      ****** ****** ****** ****** ****** ****** ****** ****** ****** ******
  21  ****** ****** ****** ****** ****** ****** ****** ****** ****** ******
      ****** ****** ****** ****** ****** ****** ****** ****** ****** ******
      ****** ****** ****** ****** ****** ****** ****** ****** ****** ******
  22  ****** ****** ****** ****** ****** ****** ****** ****** ****** ******
      ****** ****** ****** ****** ****** ****** ****** ****** ****** ******
      ****** ****** ****** ****** ****** ****** ****** ****** ****** ******
  23  ****** ****** ****** ****** ****** ****** ****** ****** ****** ******
      ****** ****** ****** ****** ****** ****** ****** ****** ****** ******
      ****** ****** ****** ****** ****** ****** ****** ****** ****** ******
  24  ****** ****** ****** ****** ****** ****** ****** ****** ****** ******
      ****** ****** ****** ****** ****** ****** ****** ****** ****** ******
      ****** ****** ****** ****** ****** ****** ****** ****** ****** ******
  25  ****** ****** ****** ****** ****** ****** ****** ****** ****** ******
      ****** ****** ****** ****** ****** ****** ****** ****** ****** ******
      ****** ****** ****** ****** ****** ****** ****** ****** ****** ******

 HEAD WILL BE SAVED ON UNIT   51 AT END OF TIME STEP    1, STRESS PERIOD    8
1
  VOLUMETRIC BUDGET FOR ENTIRE MODEL AT END OF TIME STEP    1, STRESS PERIOD   8
  ------------------------------------------------------------------------------

     CUMULATIVE VOLUMES      L**3       RATES FOR THIS TIME STEP      L**3/T
     ------------------                 ------------------------

           IN:                                      IN:
           ---                                      ---
             STORAGE =    32522606.1631               STORAGE =        1395.7252
       CONSTANT HEAD =    18353925.2838         CONSTANT HEAD =       31488.3941
               WELLS =           0.0000                 WELLS =           0.0000
            RECHARGE =    17608800.0000              RECHARGE =       27600.0000
      STREAM LEAKAGE =     8663682.7875        STREAM LEAKAGE =       15598.9323

            TOTAL IN =    77149014.2344              TOTAL IN =       76083.0517

          OUT:                                     OUT:
          ----                                     ----
             STORAGE =      970637.3270               STORAGE =        1600.1588
       CONSTANT HEAD =           0.0000         CONSTANT HEAD =           0.0000
               WELLS =    25142883.0389                 WELLS =       34442.3055
            RECHARGE =           0.0000              RECHARGE =           0.0000
      STREAM LEAKAGE =    51035495.8085        STREAM LEAKAGE =       40040.5788

           TOTAL OUT =    77149016.1744             TOTAL OUT =       76083.0431

            IN - OUT =          -1.9400              IN - OUT =       8.5714E-03

 PERCENT DISCREPANCY =          -0.00     PERCENT DISCREPANCY =           0.00






         TIME SUMMARY AT END OF TIME STEP    1 IN STRESS PERIOD    8
                    SECONDS     MINUTES      HOURS       DAYS        YEARS
                    -----------------------------------------------------------
   TIME STEP LENGTH 7.86240E+06 1.31040E+05  2184.0      91.000     0.24914    
 STRESS PERIOD TIME 7.86240E+06 1.31040E+05  2184.0      91.000     0.24914    
         TOTAL TIME 6.30720E+07 1.05120E+06  17520.      730.00      1.9986    
1
1
                            STRESS PERIOD NO.    9, LENGTH =   92.00000    
                            -----------------------------------------------

                              NUMBER OF TIME STEPS =     1

                               MULTIPLIER FOR DELT =     1.500

                            INITIAL TIME STEP SIZE =   92.00000    

 WELL NO.  LAYER   ROW   COL   STRESS RATE         
 --------------------------------------------------
      1      1     19     11     -0.1013E+05
      2      1     15     28      -7561.    
      3      1     15      7      -7227.    
      4      1     12     26      -9522.    

      4 WELLS

                 RECHARGE =  5.000000E-04

 REUSING STREAM SEGMENT DATA FROM LAST STRESS PERIOD
 
 SOLVING FOR HEAD 


     6 CALLS TO PCG ROUTINE FOR TIME STEP   1 IN STRESS PERIOD    9
    23 TOTAL ITERATIONS

 OUTPUT CONTROL FOR STRESS PERIOD    9   TIME STEP    1
    SAVE BUDGET
    SAVE HEAD FOR ALL LAYERS
    PRINT HEAD FOR ALL LAYERS
 UBDSV2 SAVING "STREAMFLOW OUT  " ON UNIT  50 AT TIME STEP  1, STRESS PERIOD   9



 STREAM LISTING     PERIOD      9   STEP        1

 LAYER ROW COL. STREAM  RCH.  FLOW INTO     FLOW TO   FLOW OUT OF   OVRLND.     DIRECT     STREAM       STREAM     STREAM     STREAM   STREAMBED  STREAMBED
                SEG.NO.  NO.  STRM. RCH.    AQUIFER    STRM. RCH.    RUNOFF     PRECIP       ET          HEAD       DEPTH      WIDTH   CONDCTNC.   GRADIENT

   1   13    1     1     1    1.0000E+05 -1.5444E+03   1.0154E+05  0.000E+00  0.000E+00  0.000E+00  4.84067E+01  1.453E-01  2.000E+01  2.000E+04 -7.722E-02
   1   13    2     1     2    1.0154E+05 -2.4324E+03   1.0398E+05  0.000E+00  0.000E+00  0.000E+00  4.79311E+01  1.470E-01  2.000E+01  2.000E+04 -1.216E-01
   1   14    3     1     3    1.0398E+05 -2.6834E+02   1.0425E+05  0.000E+00  0.000E+00  0.000E+00  4.74550E+01  1.482E-01  2.000E+01  2.000E+04 -1.342E-02
   1   15    4     1     4    1.0425E+05 -8.8459E+01   1.0433E+05  0.000E+00  0.000E+00  0.000E+00  4.69779E+01  1.483E-01  2.000E+01  2.000E+04 -4.423E-03
   1   16    5     1     5    1.0433E+05 -6.7334E+02   1.0501E+05  0.000E+00  0.000E+00  0.000E+00  4.65009E+01  1.487E-01  2.000E+01  2.000E+04 -3.367E-02
   1   16    6     1     6    1.0501E+05  4.0960E+02   1.0460E+05  0.000E+00  0.000E+00  0.000E+00  4.60238E+01  1.488E-01  2.000E+01  2.000E+04  2.048E-02
   1   16    7     1     7    1.0460E+05  2.7872E+03   1.0181E+05  0.000E+00  0.000E+00  0.000E+00  4.55451E+01  1.474E-01  2.000E+01  2.000E+04  1.394E-01
   1   16    8     1     8    1.0181E+05  6.5918E+02   1.0115E+05  0.000E+00  0.000E+00  0.000E+00  4.50664E+01  1.459E-01  2.000E+01  2.000E+04  3.296E-02
   1   16    9     1     9    1.0115E+05  2.0065E+02   1.0095E+05  0.000E+00  0.000E+00  0.000E+00  4.45887E+01  1.456E-01  2.000E+01  2.000E+04  1.003E-02
   1   16   10     1    10    1.0095E+05  2.4784E+02   1.0070E+05  0.000E+00  0.000E+00  0.000E+00  4.41113E+01  1.454E-01  2.000E+01  2.000E+04  1.239E-02
   1   16   11     1    11    1.0070E+05  3.5213E+02   1.0035E+05  0.000E+00  0.000E+00  0.000E+00  4.36337E+01  1.451E-01  2.000E+01  2.000E+04  1.761E-02
   1   16   12     1    12    1.0035E+05 -1.2574E+02   1.0048E+05  0.000E+00  0.000E+00  0.000E+00  4.31564E+01  1.450E-01  2.000E+01  2.000E+04 -6.287E-03
   1   15   13     1    13    1.0048E+05 -9.0439E+02   1.0138E+05  0.000E+00  0.000E+00  0.000E+00  4.26795E+01  1.455E-01  2.000E+01  2.000E+04 -4.522E-02
   1   14   14     1    14    1.0138E+05 -1.4705E+03   1.0285E+05  0.000E+00  0.000E+00  0.000E+00  4.22033E+01  1.465E-01  2.000E+01  2.000E+04 -7.353E-02
   1   13   15     1    15    1.0285E+05 -1.9368E+03   1.0479E+05  0.000E+00  0.000E+00  0.000E+00  4.17275E+01  1.479E-01  2.000E+01  2.000E+04 -9.684E-02
   1   12   16     1    16    1.0479E+05 -2.6977E+03   1.0749E+05  0.000E+00  0.000E+00  0.000E+00  4.12522E+01  1.499E-01  2.000E+01  2.000E+04 -1.349E-01
   1   12   17     1    17    1.0749E+05 -1.7494E+03   1.0923E+05  0.000E+00  0.000E+00  0.000E+00  4.07768E+01  1.518E-01  2.000E+01  2.000E+04 -8.747E-02
   1   12   18     1    18    1.0923E+05 -1.6799E+03   1.1091E+05  0.000E+00  0.000E+00  0.000E+00  4.03010E+01  1.532E-01  2.000E+01  2.000E+04 -8.400E-02
   1   12   19     1    19    1.1091E+05 -2.2336E+03   1.1315E+05  0.000E+00  0.000E+00  0.000E+00  3.98253E+01  1.549E-01  2.000E+01  2.000E+04 -1.117E-01
   1   13   20     1    20    1.1315E+05 -1.5878E+03   1.1474E+05  0.000E+00  0.000E+00  0.000E+00  3.93496E+01  1.564E-01  2.000E+01  2.000E+04 -7.939E-02
   1   14   21     1    21    1.1474E+05 -1.3397E+03   1.1608E+05  0.000E+00  0.000E+00  0.000E+00  3.88735E+01  1.576E-01  2.000E+01  2.000E+04 -6.699E-02
   1   14   22     1    22    1.1608E+05  4.9449E+03   1.1113E+05  0.000E+00  0.000E+00  0.000E+00  3.83948E+01  1.562E-01  2.000E+01  2.000E+04  2.472E-01
   1    9   30     2     1    5.0000E+04  1.8829E+02   4.9812E+04  0.000E+00  0.000E+00  0.000E+00  4.02407E+01  1.157E-01  2.000E+01  2.000E+04  9.414E-03
   1    9   29     2     2    4.9812E+04 -8.9660E+01   4.9901E+04  0.000E+00  0.000E+00  0.000E+00  3.99907E+01  1.157E-01  2.000E+01  2.000E+04 -4.483E-03
   1    9   28     2     3    4.9901E+04 -3.3217E+02   5.0234E+04  0.000E+00  0.000E+00  0.000E+00  3.97410E+01  1.160E-01  2.000E+01  2.000E+04 -1.661E-02
   1    9   27     2     4    5.0234E+04 -1.6426E+03   5.1876E+04  0.000E+00  0.000E+00  0.000E+00  3.94923E+01  1.173E-01  2.000E+01  2.000E+04 -8.213E-02
   1   10   26     2     5    5.1876E+04  8.4770E+02   5.1028E+04  0.000E+00  0.000E+00  0.000E+00  3.92429E+01  1.179E-01  2.000E+01  2.000E+04  4.238E-02
   1   11   25     2     6    5.1028E+04  2.0853E+03   4.8943E+04  0.000E+00  0.000E+00  0.000E+00  3.89908E+01  1.158E-01  2.000E+01  2.000E+04  1.043E-01
   1   12   24     2     7    4.8943E+04  3.9652E+02   4.8547E+04  0.000E+00  0.000E+00  0.000E+00  3.87391E+01  1.141E-01  2.000E+01  2.000E+04  1.983E-02
   1   13   23     2     8    4.8547E+04 -1.6994E+02   4.8717E+04  0.000E+00  0.000E+00  0.000E+00  3.84890E+01  1.140E-01  2.000E+01  2.000E+04 -8.497E-03
   1   14   22     2     9    4.8717E+04  1.8050E+03   4.6912E+04  0.000E+00  0.000E+00  0.000E+00  3.82378E+01  1.128E-01  2.000E+01  2.000E+04  9.025E-02
   1   14   22     3     1    1.5804E+05 -8.6291E+03   1.6667E+05  0.000E+00  0.000E+00  0.000E+00  3.77161E+01  1.605E-01  2.000E+01  2.000E+04 -4.315E-01
   1   15   23     3     2    1.6667E+05 -4.5914E+02   1.6713E+05  0.000E+00  0.000E+00  0.000E+00  3.68299E+01  1.632E-01  2.000E+01  2.000E+04 -2.296E-02
   1   15   24     3     3    1.6713E+05 -1.9651E+02   1.6733E+05  0.000E+00  0.000E+00  0.000E+00  3.59412E+01  1.634E-01  2.000E+01  2.000E+04 -9.826E-03
   1   15   25     3     4    1.6733E+05 -1.2869E+02   1.6746E+05  0.000E+00  0.000E+00  0.000E+00  3.50524E+01  1.635E-01  2.000E+01  2.000E+04 -6.434E-03
   1   15   26     3     5    1.6746E+05  1.8402E+02   1.6727E+05  0.000E+00  0.000E+00  0.000E+00  3.41635E+01  1.635E-01  2.000E+01  2.000E+04  9.201E-03
   1   16   27     3     6    1.6727E+05  4.2601E+02   1.6685E+05  0.000E+00  0.000E+00  0.000E+00  3.32744E+01  1.633E-01  2.000E+01  2.000E+04  2.130E-02
   1   17   28     3     7    1.6685E+05  1.7227E+03   1.6512E+05  0.000E+00  0.000E+00  0.000E+00  3.23849E+01  1.627E-01  2.000E+01  2.000E+04  8.614E-02
   1   18   29     3     8    1.6512E+05 -1.8755E+03   1.6700E+05  0.000E+00  0.000E+00  0.000E+00  3.14961E+01  1.627E-01  2.000E+01  2.000E+04 -9.377E-02
   1   18   30     3     9    1.6700E+05 -2.1160E+03   1.6911E+05  0.000E+00  0.000E+00  0.000E+00  3.06083E+01  1.639E-01  2.000E+01  2.000E+04 -1.058E-01



1
              HEAD IN LAYER   1 AT END OF TIME STEP   1 IN STRESS PERIOD    9
  ---------------------------------------------------------------------------

          1      2      3      4      5      6      7      8      9     10
         11     12     13     14     15     16     17     18     19     20
         21     22     23     24     25     26     27     28     29     30
 .........................................................................
   1  ****** ****** ****** ****** ****** ****** ****** ****** ****** ******
      ****** ****** ****** ****** ****** ****** ****** ****** ****** ******
      ****** ****** ****** ****** ****** ****** ****** ****** ****** ******
   2  ****** ****** ****** ****** ****** ****** ****** ****** ****** ******
      ****** ****** ****** ****** ****** ****** ****** ****** ****** ******
      ****** ****** ****** ****** ****** ****** ****** ****** ****** ******
   3  ****** ****** ****** ****** ****** ****** ****** ****** ****** ******
      ****** ****** ****** ****** ****** ****** ****** ****** ****** ******
      ****** ****** ****** ****** ****** ****** ****** ****** ****** ******
   4  ****** ****** ****** ****** ****** ****** ****** ****** ****** ******
      ****** ****** ****** ****** ****** ****** ****** ****** ****** ******
      ****** ****** ****** ****** ****** ****** ****** ****** ****** ******
   5  ****** ****** ****** ****** ****** ****** ****** ****** ****** ******
      ****** ****** ****** ****** ****** ****** ****** ****** ****** ******
      ****** ****** ****** ****** ****** ****** ****** ****** ****** ******
   6  ****** ****** ****** ****** ****** ****** ****** ****** ****** ******
      ****** ****** ****** ****** ****** ****** ****** ****** ****** ******
      ****** ****** ****** ****** ****** ****** ****** ****** ****** ******
   7  ****** ****** ****** ****** ****** ****** ****** ****** ****** ******
      ****** ****** ****** ****** ****** ****** ****** ****** ****** ******
      ****** ****** ****** ****** ****** ****** ****** ****** ****** ******
   8  ****** ****** ****** ****** ****** ****** ****** ****** ****** ******
      ****** ****** ****** ****** ****** ****** ****** ****** ****** ******
      ****** ****** ****** ****** ****** ****** ****** ****** ****** ******
   9  ****** ****** ****** ****** ****** ****** ****** ****** ****** ******
      ****** ****** ****** ****** ****** ****** ****** ****** ****** ******
      ****** ****** ****** ****** ****** ****** ****** ****** ****** ******
  10  ****** ****** ****** ****** ****** ****** ****** ****** ****** ******
      ****** ****** ****** ****** ****** ****** ****** ****** ****** ******
      ****** ****** ****** ****** ****** ****** ****** ****** ****** ******
  11  ****** ****** ****** ****** ****** ****** ****** ****** ****** ******
      ****** ****** ****** ****** ****** ****** ****** ****** ****** ******
      ****** ****** ****** ****** ****** ****** ****** ****** ****** ******
  12  ****** ****** ****** ****** ****** ****** ****** ****** ****** ******
      ****** ****** ****** ****** ****** ****** ****** ****** ****** ******
      ****** ****** ****** ****** ****** ****** ****** ****** ****** ******
  13  ****** ****** ****** ****** ****** ****** ****** ****** ****** ******
      ****** ****** ****** ****** ****** ****** ****** ****** ****** ******
      ****** ****** ****** ****** ****** ****** ****** ****** ****** ******
  14  ****** ****** ****** ****** ****** ****** ****** ****** ****** ******
      ****** ****** ****** ****** ****** ****** ****** ****** ****** ******
      ****** ****** ****** ****** ****** ****** ****** ****** ****** ******
  15  ****** ****** ****** ****** ****** ****** ****** ****** ****** ******
      ****** ****** ****** ****** ****** ****** ****** ****** ****** ******
      ****** ****** ****** ****** ****** ****** ****** ****** ****** ******
  16  ****** ****** ****** ****** ****** ****** ****** ****** ****** ******
      ****** ****** ****** ****** ****** ****** ****** ****** ****** ******
      ****** ****** ****** ****** ****** ****** ****** ****** ****** ******
  17  ****** ****** ****** ****** ****** ****** ****** ****** ****** ******
      ****** ****** ****** ****** ****** ****** ****** ****** ****** ******
      ****** ****** ****** ****** ****** ****** ****** ****** ****** ******
  18  ****** ****** ****** ****** ****** ****** ****** ****** ****** ******
      ****** ****** ****** ****** ****** ****** ****** ****** ****** ******
      ****** ****** ****** ****** ****** ****** ****** ****** ****** ******
  19  ****** ****** ****** ****** ****** ****** ****** ****** ****** ******
      ****** ****** ****** ****** ****** ****** ****** ****** ****** ******
      ****** ****** ****** ****** ****** ****** ****** ****** ****** ******
  20  ****** ****** ****** ****** ****** ****** ****** ****** ****** ******
      ****** ****** ****** ****** ****** ****** ****** ****** ****** ******
      ****** ****** ****** ****** ****** ****** ****** ****** ****** ******
  21  ****** ****** ****** ****** ****** ****** ****** ****** ****** ******
      ****** ****** ****** ****** ****** ****** ****** ****** ****** ******
      ****** ****** ****** ****** ****** ****** ****** ****** ****** ******
  22  ****** ****** ****** ****** ****** ****** ****** ****** ****** ******
      ****** ****** ****** ****** ****** ****** ****** ****** ****** ******
      ****** ****** ****** ****** ****** ****** ****** ****** ****** ******
  23  ****** ****** ****** ****** ****** ****** ****** ****** ****** ******
      ****** ****** ****** ****** ****** ****** ****** ****** ****** ******
      ****** ****** ****** ****** ****** ****** ****** ****** ****** ******
  24  ****** ****** ****** ****** ****** ****** ****** ****** ****** ******
      ****** ****** ****** ****** ****** ****** ****** ****** ****** ******
      ****** ****** ****** ****** ****** ****** ****** ****** ****** ******
  25  ****** ****** ****** ****** ****** ****** ****** ****** ****** ******
      ****** ****** ****** ****** ****** ****** ****** ****** ****** ******
      ****** ****** ****** ****** ****** ****** ****** ****** ****** ******

 HEAD WILL BE SAVED ON UNIT   51 AT END OF TIME STEP    1, STRESS PERIOD    9
1
  VOLUMETRIC BUDGET FOR ENTIRE MODEL AT END OF TIME STEP    1, STRESS PERIOD   9
  ------------------------------------------------------------------------------

     CUMULATIVE VOLUMES      L**3       RATES FOR THIS TIME STEP      L**3/T
     ------------------                 ------------------------

           IN:                                      IN:
           ---                                      ---
             STORAGE =    33177320.9731               STORAGE =        7116.4653
       CONSTANT HEAD =    21356851.3453         CONSTANT HEAD =       32640.5007
               WELLS =           0.0000                 WELLS =           0.0000
            RECHARGE =    18878400.0000              RECHARGE =       13800.0000
      STREAM LEAKAGE =    10251335.3130        STREAM LEAKAGE =       17257.0927

            TOTAL IN =    83663907.6313              TOTAL IN =       70814.0587

          OUT:                                     OUT:
          ----                                     ----
             STORAGE =      970637.3270               STORAGE =           0.0000
       CONSTANT HEAD =           0.0000         CONSTANT HEAD =           0.0000
               WELLS =    28311575.1479                 WELLS =       34442.3055
            RECHARGE =           0.0000              RECHARGE =           0.0000
      STREAM LEAKAGE =    54381697.1706        STREAM LEAKAGE =       36371.7539

           TOTAL OUT =    83663909.6455             TOTAL OUT =       70814.0595

            IN - OUT =          -2.0142              IN - OUT =      -8.0664E-04

 PERCENT DISCREPANCY =          -0.00     PERCENT DISCREPANCY =          -0.00






         TIME SUMMARY AT END OF TIME STEP    1 IN STRESS PERIOD    9
                    SECONDS     MINUTES      HOURS       DAYS        YEARS
                    -----------------------------------------------------------
   TIME STEP LENGTH 7.94880E+06 1.32480E+05  2208.0      92.000     0.25188    
 STRESS PERIOD TIME 7.94880E+06 1.32480E+05  2208.0      92.000     0.25188    
         TOTAL TIME 7.10208E+07 1.18368E+06  19728.      822.00      2.2505    
1
1
                            STRESS PERIOD NO.   10, LENGTH =   91.00000    
                            -----------------------------------------------

                              NUMBER OF TIME STEPS =     1

                               MULTIPLIER FOR DELT =     1.500

                            INITIAL TIME STEP SIZE =   91.00000    

 WELL NO.  LAYER   ROW   COL   STRESS RATE         
 --------------------------------------------------
      1      1     19     11     -0.1013E+05
      2      1     15     28      -7561.    
      3      1     15      7      -7227.    
      4      1     12     26      -9522.    

      4 WELLS

                 RECHARGE =  2.000000E-03

 REUSING STREAM SEGMENT DATA FROM LAST STRESS PERIOD
 
 SOLVING FOR HEAD 


     7 CALLS TO PCG ROUTINE FOR TIME STEP   1 IN STRESS PERIOD   10
    26 TOTAL ITERATIONS

 OUTPUT CONTROL FOR STRESS PERIOD   10   TIME STEP    1
    SAVE BUDGET
    SAVE HEAD FOR ALL LAYERS
    PRINT HEAD FOR ALL LAYERS
 UBDSV2 SAVING "STREAMFLOW OUT  " ON UNIT  50 AT TIME STEP  1, STRESS PERIOD  10



 STREAM LISTING     PERIOD     10   STEP        1

 LAYER ROW COL. STREAM  RCH.  FLOW INTO     FLOW TO   FLOW OUT OF   OVRLND.     DIRECT     STREAM       STREAM     STREAM     STREAM   STREAMBED  STREAMBED
                SEG.NO.  NO.  STRM. RCH.    AQUIFER    STRM. RCH.    RUNOFF     PRECIP       ET          HEAD       DEPTH      WIDTH   CONDCTNC.   GRADIENT

   1   13    1     1     1    1.0000E+05 -1.9982E+03   1.0200E+05  0.000E+00  0.000E+00  0.000E+00  4.84069E+01  1.455E-01  2.000E+01  2.000E+04 -9.991E-02
   1   13    2     1     2    1.0200E+05 -2.9352E+03   1.0493E+05  0.000E+00  0.000E+00  0.000E+00  4.79317E+01  1.476E-01  2.000E+01  2.000E+04 -1.468E-01
   1   14    3     1     3    1.0493E+05 -4.5478E+02   1.0539E+05  0.000E+00  0.000E+00  0.000E+00  4.74559E+01  1.491E-01  2.000E+01  2.000E+04 -2.274E-02
   1   15    4     1     4    1.0539E+05 -2.8772E+02   1.0568E+05  0.000E+00  0.000E+00  0.000E+00  4.69789E+01  1.494E-01  2.000E+01  2.000E+04 -1.439E-02
   1   16    5     1     5    1.0568E+05 -1.2919E+03   1.0697E+05  0.000E+00  0.000E+00  0.000E+00  4.65023E+01  1.501E-01  2.000E+01  2.000E+04 -6.460E-02
   1   16    6     1     6    1.0697E+05  4.7636E+01   1.0692E+05  0.000E+00  0.000E+00  0.000E+00  4.60256E+01  1.506E-01  2.000E+01  2.000E+04  2.382E-03
   1   16    7     1     7    1.0692E+05  2.4431E+03   1.0448E+05  0.000E+00  0.000E+00  0.000E+00  4.55473E+01  1.495E-01  2.000E+01  2.000E+04  1.222E-01
   1   16    8     1     8    1.0448E+05  3.2045E+02   1.0416E+05  0.000E+00  0.000E+00  0.000E+00  4.50688E+01  1.484E-01  2.000E+01  2.000E+04  1.602E-02
   1   16    9     1     9    1.0416E+05 -1.3662E+02   1.0429E+05  0.000E+00  0.000E+00  0.000E+00  4.45915E+01  1.483E-01  2.000E+01  2.000E+04 -6.831E-03
   1   16   10     1    10    1.0429E+05 -8.9681E+01   1.0438E+05  0.000E+00  0.000E+00  0.000E+00  4.41143E+01  1.484E-01  2.000E+01  2.000E+04 -4.484E-03
   1   16   11     1    11    1.0438E+05  1.1056E+01   1.0437E+05  0.000E+00  0.000E+00  0.000E+00  4.36371E+01  1.484E-01  2.000E+01  2.000E+04  5.528E-04
   1   16   12     1    12    1.0437E+05 -6.9532E+02   1.0507E+05  0.000E+00  0.000E+00  0.000E+00  4.31601E+01  1.487E-01  2.000E+01  2.000E+04 -3.477E-02
   1   15   13     1    13    1.0507E+05 -1.4913E+03   1.0656E+05  0.000E+00  0.000E+00  0.000E+00  4.26837E+01  1.496E-01  2.000E+01  2.000E+04 -7.457E-02
   1   14   14     1    14    1.0656E+05 -2.0650E+03   1.0862E+05  0.000E+00  0.000E+00  0.000E+00  4.22080E+01  1.511E-01  2.000E+01  2.000E+04 -1.033E-01
   1   13   15     1    15    1.0862E+05 -2.5217E+03   1.1115E+05  0.000E+00  0.000E+00  0.000E+00  4.17326E+01  1.531E-01  2.000E+01  2.000E+04 -1.261E-01
   1   12   16     1    16    1.1115E+05 -3.2617E+03   1.1441E+05  0.000E+00  0.000E+00  0.000E+00  4.12577E+01  1.555E-01  2.000E+01  2.000E+04 -1.631E-01
   1   12   17     1    17    1.1441E+05 -2.1761E+03   1.1658E+05  0.000E+00  0.000E+00  0.000E+00  4.07827E+01  1.577E-01  2.000E+01  2.000E+04 -1.088E-01
   1   12   18     1    18    1.1658E+05 -2.1023E+03   1.1869E+05  0.000E+00  0.000E+00  0.000E+00  4.03072E+01  1.595E-01  2.000E+01  2.000E+04 -1.051E-01
   1   12   19     1    19    1.1869E+05 -2.7535E+03   1.2144E+05  0.000E+00  0.000E+00  0.000E+00  3.98319E+01  1.614E-01  2.000E+01  2.000E+04 -1.377E-01
   1   13   20     1    20    1.2144E+05 -2.1097E+03   1.2355E+05  0.000E+00  0.000E+00  0.000E+00  3.93566E+01  1.634E-01  2.000E+01  2.000E+04 -1.055E-01
   1   14   21     1    21    1.2355E+05 -1.8653E+03   1.2541E+05  0.000E+00  0.000E+00  0.000E+00  3.88809E+01  1.650E-01  2.000E+01  2.000E+04 -9.326E-02
   1   14   22     1    22    1.2541E+05  4.8165E+03   1.2060E+05  0.000E+00  0.000E+00  0.000E+00  3.84024E+01  1.638E-01  2.000E+01  2.000E+04  2.408E-01
   1    9   30     2     1    5.0000E+04 -2.2632E+02   5.0226E+04  0.000E+00  0.000E+00  0.000E+00  4.02410E+01  1.160E-01  2.000E+01  2.000E+04 -1.132E-02
   1    9   29     2     2    5.0226E+04 -5.0200E+02   5.0728E+04  0.000E+00  0.000E+00  0.000E+00  3.99915E+01  1.165E-01  2.000E+01  2.000E+04 -2.510E-02
   1    9   28     2     3    5.0728E+04 -7.4376E+02   5.1472E+04  0.000E+00  0.000E+00  0.000E+00  3.97424E+01  1.174E-01  2.000E+01  2.000E+04 -3.719E-02
   1    9   27     2     4    5.1472E+04 -2.1965E+03   5.3669E+04  0.000E+00  0.000E+00  0.000E+00  3.94944E+01  1.194E-01  2.000E+01  2.000E+04 -1.098E-01
   1   10   26     2     5    5.3669E+04  2.9398E+02   5.3375E+04  0.000E+00  0.000E+00  0.000E+00  3.92457E+01  1.207E-01  2.000E+01  2.000E+04  1.470E-02
   1   11   25     2     6    5.3375E+04  1.5563E+03   5.1818E+04  0.000E+00  0.000E+00  0.000E+00  3.89944E+01  1.194E-01  2.000E+01  2.000E+04  7.781E-02
   1   12   24     2     7    5.1818E+04 -8.2310E+01   5.1901E+04  0.000E+00  0.000E+00  0.000E+00  3.87434E+01  1.184E-01  2.000E+01  2.000E+04 -4.116E-03
   1   13   23     2     8    5.1901E+04 -3.1871E+02   5.2219E+04  0.000E+00  0.000E+00  0.000E+00  3.84937E+01  1.187E-01  2.000E+01  2.000E+04 -1.594E-02
   1   14   22     2     9    5.2219E+04  1.6242E+03   5.0595E+04  0.000E+00  0.000E+00  0.000E+00  3.82428E+01  1.178E-01  2.000E+01  2.000E+04  8.121E-02
   1   14   22     3     1    1.7119E+05 -8.7557E+03   1.7995E+05  0.000E+00  0.000E+00  0.000E+00  3.77238E+01  1.683E-01  2.000E+01  2.000E+04 -4.378E-01
   1   15   23     3     2    1.7995E+05 -6.2176E+02   1.8057E+05  0.000E+00  0.000E+00  0.000E+00  3.68376E+01  1.709E-01  2.000E+01  2.000E+04 -3.109E-02
   1   15   24     3     3    1.8057E+05 -3.3375E+02   1.8090E+05  0.000E+00  0.000E+00  0.000E+00  3.59490E+01  1.712E-01  2.000E+01  2.000E+04 -1.669E-02
   1   15   25     3     4    1.8090E+05 -2.6933E+02   1.8117E+05  0.000E+00  0.000E+00  0.000E+00  3.50603E+01  1.714E-01  2.000E+01  2.000E+04 -1.347E-02
   1   15   26     3     5    1.8117E+05  2.1739E+01   1.8115E+05  0.000E+00  0.000E+00  0.000E+00  3.41715E+01  1.715E-01  2.000E+01  2.000E+04  1.087E-03
   1   16   27     3     6    1.8115E+05  2.4008E+02   1.8091E+05  0.000E+00  0.000E+00  0.000E+00  3.32825E+01  1.714E-01  2.000E+01  2.000E+04  1.200E-02
   1   17   28     3     7    1.8091E+05  1.2019E+03   1.7971E+05  0.000E+00  0.000E+00  0.000E+00  3.23932E+01  1.710E-01  2.000E+01  2.000E+04  6.009E-02
   1   18   29     3     8    1.7971E+05 -2.4274E+03   1.8214E+05  0.000E+00  0.000E+00  0.000E+00  3.15046E+01  1.713E-01  2.000E+01  2.000E+04 -1.214E-01
   1   18   30     3     9    1.8214E+05 -2.5417E+03   1.8468E+05  0.000E+00  0.000E+00  0.000E+00  3.06172E+01  1.727E-01  2.000E+01  2.000E+04 -1.271E-01



1
              HEAD IN LAYER   1 AT END OF TIME STEP   1 IN STRESS PERIOD   10
  ---------------------------------------------------------------------------

          1      2      3      4      5      6      7      8      9     10
         11     12     13     14     15     16     17     18     19     20
         21     22     23     24     25     26     27     28     29     30
 .........................................................................
   1  ****** ****** ****** ****** ****** ****** ****** ****** ****** ******
      ****** ****** ****** ****** ****** ****** ****** ****** ****** ******
      ****** ****** ****** ****** ****** ****** ****** ****** ****** ******
   2  ****** ****** ****** ****** ****** ****** ****** ****** ****** ******
      ****** ****** ****** ****** ****** ****** ****** ****** ****** ******
      ****** ****** ****** ****** ****** ****** ****** ****** ****** ******
   3  ****** ****** ****** ****** ****** ****** ****** ****** ****** ******
      ****** ****** ****** ****** ****** ****** ****** ****** ****** ******
      ****** ****** ****** ****** ****** ****** ****** ****** ****** ******
   4  ****** ****** ****** ****** ****** ****** ****** ****** ****** ******
      ****** ****** ****** ****** ****** ****** ****** ****** ****** ******
      ****** ****** ****** ****** ****** ****** ****** ****** ****** ******
   5  ****** ****** ****** ****** ****** ****** ****** ****** ****** ******
      ****** ****** ****** ****** ****** ****** ****** ****** ****** ******
      ****** ****** ****** ****** ****** ****** ****** ****** ****** ******
   6  ****** ****** ****** ****** ****** ****** ****** ****** ****** ******
      ****** ****** ****** ****** ****** ****** ****** ****** ****** ******
      ****** ****** ****** ****** ****** ****** ****** ****** ****** ******
   7  ****** ****** ****** ****** ****** ****** ****** ****** ****** ******
      ****** ****** ****** ****** ****** ****** ****** ****** ****** ******
      ****** ****** ****** ****** ****** ****** ****** ****** ****** ******
   8  ****** ****** ****** ****** ****** ****** ****** ****** ****** ******
      ****** ****** ****** ****** ****** ****** ****** ****** ****** ******
      ****** ****** ****** ****** ****** ****** ****** ****** ****** ******
   9  ****** ****** ****** ****** ****** ****** ****** ****** ****** ******
      ****** ****** ****** ****** ****** ****** ****** ****** ****** ******
      ****** ****** ****** ****** ****** ****** ****** ****** ****** ******
  10  ****** ****** ****** ****** ****** ****** ****** ****** ****** ******
      ****** ****** ****** ****** ****** ****** ****** ****** ****** ******
      ****** ****** ****** ****** ****** ****** ****** ****** ****** ******
  11  ****** ****** ****** ****** ****** ****** ****** ****** ****** ******
      ****** ****** ****** ****** ****** ****** ****** ****** ****** ******
      ****** ****** ****** ****** ****** ****** ****** ****** ****** ******
  12  ****** ****** ****** ****** ****** ****** ****** ****** ****** ******
      ****** ****** ****** ****** ****** ****** ****** ****** ****** ******
      ****** ****** ****** ****** ****** ****** ****** ****** ****** ******
  13  ****** ****** ****** ****** ****** ****** ****** ****** ****** ******
      ****** ****** ****** ****** ****** ****** ****** ****** ****** ******
      ****** ****** ****** ****** ****** ****** ****** ****** ****** ******
  14  ****** ****** ****** ****** ****** ****** ****** ****** ****** ******
      ****** ****** ****** ****** ****** ****** ****** ****** ****** ******
      ****** ****** ****** ****** ****** ****** ****** ****** ****** ******
  15  ****** ****** ****** ****** ****** ****** ****** ****** ****** ******
      ****** ****** ****** ****** ****** ****** ****** ****** ****** ******
      ****** ****** ****** ****** ****** ****** ****** ****** ****** ******
  16  ****** ****** ****** ****** ****** ****** ****** ****** ****** ******
      ****** ****** ****** ****** ****** ****** ****** ****** ****** ******
      ****** ****** ****** ****** ****** ****** ****** ****** ****** ******
  17  ****** ****** ****** ****** ****** ****** ****** ****** ****** ******
      ****** ****** ****** ****** ****** ****** ****** ****** ****** ******
      ****** ****** ****** ****** ****** ****** ****** ****** ****** ******
  18  ****** ****** ****** ****** ****** ****** ****** ****** ****** ******
      ****** ****** ****** ****** ****** ****** ****** ****** ****** ******
      ****** ****** ****** ****** ****** ****** ****** ****** ****** ******
  19  ****** ****** ****** ****** ****** ****** ****** ****** ****** ******
      ****** ****** ****** ****** ****** ****** ****** ****** ****** ******
      ****** ****** ****** ****** ****** ****** ****** ****** ****** ******
  20  ****** ****** ****** ****** ****** ****** ****** ****** ****** ******
      ****** ****** ****** ****** ****** ****** ****** ****** ****** ******
      ****** ****** ****** ****** ****** ****** ****** ****** ****** ******
  21  ****** ****** ****** ****** ****** ****** ****** ****** ****** ******
      ****** ****** ****** ****** ****** ****** ****** ****** ****** ******
      ****** ****** ****** ****** ****** ****** ****** ****** ****** ******
  22  ****** ****** ****** ****** ****** ****** ****** ****** ****** ******
      ****** ****** ****** ****** ****** ****** ****** ****** ****** ******
      ****** ****** ****** ****** ****** ****** ****** ****** ****** ******
  23  ****** ****** ****** ****** ****** ****** ****** ****** ****** ******
      ****** ****** ****** ****** ****** ****** ****** ****** ****** ******
      ****** ****** ****** ****** ****** ****** ****** ****** ****** ******
  24  ****** ****** ****** ****** ****** ****** ****** ****** ****** ******
      ****** ****** ****** ****** ****** ****** ****** ****** ****** ******
      ****** ****** ****** ****** ****** ****** ****** ****** ****** ******
  25  ****** ****** ****** ****** ****** ****** ****** ****** ****** ******
      ****** ****** ****** ****** ****** ****** ****** ****** ****** ******
      ****** ****** ****** ****** ****** ****** ****** ****** ****** ******

 HEAD WILL BE SAVED ON UNIT   51 AT END OF TIME STEP    1, STRESS PERIOD   10
1
  VOLUMETRIC BUDGET FOR ENTIRE MODEL AT END OF TIME STEP    1, STRESS PERIOD  10
  ------------------------------------------------------------------------------

     CUMULATIVE VOLUMES      L**3       RATES FOR THIS TIME STEP      L**3/T
     ------------------                 ------------------------

           IN:                                      IN:
           ---                                      ---
             STORAGE =    33177320.9731               STORAGE =           0.0000
       CONSTANT HEAD =    24057514.1252         CONSTANT HEAD =       29677.6130
               WELLS =           0.0000                 WELLS =           0.0000
            RECHARGE =    23901600.0000              RECHARGE =       55200.0000
      STREAM LEAKAGE =    11395828.9611        STREAM LEAKAGE =       12576.8533

            TOTAL IN =    92532264.0593              TOTAL IN =       97454.4662

          OUT:                                     OUT:
          ----                                     ----
             STORAGE =     2404500.9676               STORAGE =       15756.7433
       CONSTANT HEAD =           0.0000         CONSTANT HEAD =           0.0000
               WELLS =    31445824.9513                 WELLS =       34442.3055
            RECHARGE =           0.0000              RECHARGE =           0.0000
      STREAM LEAKAGE =    58681939.7856        STREAM LEAKAGE =       47255.4134

           TOTAL OUT =    92532265.7045             TOTAL OUT =       97454.4622

            IN - OUT =          -1.6452              IN - OUT =       4.0551E-03

 PERCENT DISCREPANCY =          -0.00     PERCENT DISCREPANCY =           0.00






         TIME SUMMARY AT END OF TIME STEP    1 IN STRESS PERIOD   10
                    SECONDS     MINUTES      HOURS       DAYS        YEARS
                    -----------------------------------------------------------
   TIME STEP LENGTH 7.86240E+06 1.31040E+05  2184.0      91.000     0.24914    
 STRESS PERIOD TIME 7.86240E+06 1.31040E+05  2184.0      91.000     0.24914    
         TOTAL TIME 7.88832E+07 1.31472E+06  21912.      913.00      2.4997    
1
1
                            STRESS PERIOD NO.   11, LENGTH =   91.00000    
                            -----------------------------------------------

                              NUMBER OF TIME STEPS =     1

                               MULTIPLIER FOR DELT =     1.500

                            INITIAL TIME STEP SIZE =   91.00000    

 WELL NO.  LAYER   ROW   COL   STRESS RATE         
 --------------------------------------------------
      1      1     19     11     -0.1013E+05
      2      1     15     28      -7561.    
      3      1     15      7      -7227.    
      4      1     12     26      -9522.    

      4 WELLS

                 RECHARGE =   0.00000    

 REUSING STREAM SEGMENT DATA FROM LAST STRESS PERIOD
 
 SOLVING FOR HEAD 


     7 CALLS TO PCG ROUTINE FOR TIME STEP   1 IN STRESS PERIOD   11
    26 TOTAL ITERATIONS

 OUTPUT CONTROL FOR STRESS PERIOD   11   TIME STEP    1
    SAVE BUDGET
    SAVE HEAD FOR ALL LAYERS
    PRINT HEAD FOR ALL LAYERS
 UBDSV2 SAVING "STREAMFLOW OUT  " ON UNIT  50 AT TIME STEP  1, STRESS PERIOD  11



 STREAM LISTING     PERIOD     11   STEP        1

 LAYER ROW COL. STREAM  RCH.  FLOW INTO     FLOW TO   FLOW OUT OF   OVRLND.     DIRECT     STREAM       STREAM     STREAM     STREAM   STREAMBED  STREAMBED
                SEG.NO.  NO.  STRM. RCH.    AQUIFER    STRM. RCH.    RUNOFF     PRECIP       ET          HEAD       DEPTH      WIDTH   CONDCTNC.   GRADIENT

   1   13    1     1     1    1.0000E+05 -1.4315E+03   1.0143E+05  0.000E+00  0.000E+00  0.000E+00  4.84066E+01  1.453E-01  2.000E+01  2.000E+04 -7.158E-02
   1   13    2     1     2    1.0143E+05 -2.3041E+03   1.0374E+05  0.000E+00  0.000E+00  0.000E+00  4.79310E+01  1.469E-01  2.000E+01  2.000E+04 -1.152E-01
   1   14    3     1     3    1.0374E+05 -2.2389E+02   1.0396E+05  0.000E+00  0.000E+00  0.000E+00  4.74548E+01  1.480E-01  2.000E+01  2.000E+04 -1.119E-02
   1   15    4     1     4    1.0396E+05 -4.5776E+01   1.0401E+05  0.000E+00  0.000E+00  0.000E+00  4.69776E+01  1.481E-01  2.000E+01  2.000E+04 -2.289E-03
   1   16    5     1     5    1.0401E+05 -6.0400E+02   1.0461E+05  0.000E+00  0.000E+00  0.000E+00  4.65006E+01  1.484E-01  2.000E+01  2.000E+04 -3.020E-02
   1   16    6     1     6    1.0461E+05  4.6201E+02   1.0415E+05  0.000E+00  0.000E+00  0.000E+00  4.60234E+01  1.484E-01  2.000E+01  2.000E+04  2.310E-02
   1   16    7     1     7    1.0415E+05  2.8398E+03   1.0131E+05  0.000E+00  0.000E+00  0.000E+00  4.55447E+01  1.470E-01  2.000E+01  2.000E+04  1.420E-01
   1   16    8     1     8    1.0131E+05  7.1166E+02   1.0060E+05  0.000E+00  0.000E+00  0.000E+00  4.50659E+01  1.455E-01  2.000E+01  2.000E+04  3.558E-02
   1   16    9     1     9    1.0060E+05  2.5234E+02   1.0034E+05  0.000E+00  0.000E+00  0.000E+00  4.45882E+01  1.451E-01  2.000E+01  2.000E+04  1.262E-02
   1   16   10     1    10    1.0034E+05  2.9816E+02   1.0005E+05  0.000E+00  0.000E+00  0.000E+00  4.41107E+01  1.448E-01  2.000E+01  2.000E+04  1.491E-02
   1   16   11     1    11    1.0005E+05  4.0066E+02   9.9645E+04  0.000E+00  0.000E+00  0.000E+00  4.36332E+01  1.445E-01  2.000E+01  2.000E+04  2.003E-02
   1   16   12     1    12    9.9645E+04 -4.9907E+01   9.9695E+04  0.000E+00  0.000E+00  0.000E+00  4.31557E+01  1.444E-01  2.000E+01  2.000E+04 -2.495E-03
   1   15   13     1    13    9.9695E+04 -8.0330E+02   1.0050E+05  0.000E+00  0.000E+00  0.000E+00  4.26788E+01  1.447E-01  2.000E+01  2.000E+04 -4.017E-02
   1   14   14     1    14    1.0050E+05 -1.3595E+03   1.0186E+05  0.000E+00  0.000E+00  0.000E+00  4.22025E+01  1.457E-01  2.000E+01  2.000E+04 -6.798E-02
   1   13   15     1    15    1.0186E+05 -1.8220E+03   1.0368E+05  0.000E+00  0.000E+00  0.000E+00  4.17266E+01  1.470E-01  2.000E+01  2.000E+04 -9.110E-02
   1   12   16     1    16    1.0368E+05 -2.5859E+03   1.0627E+05  0.000E+00  0.000E+00  0.000E+00  4.12512E+01  1.489E-01  2.000E+01  2.000E+04 -1.293E-01
   1   12   17     1    17    1.0627E+05 -1.6702E+03   1.0794E+05  0.000E+00  0.000E+00  0.000E+00  4.07757E+01  1.507E-01  2.000E+01  2.000E+04 -8.351E-02
   1   12   18     1    18    1.0794E+05 -1.6040E+03   1.0954E+05  0.000E+00  0.000E+00  0.000E+00  4.02998E+01  1.521E-01  2.000E+01  2.000E+04 -8.020E-02
   1   12   19     1    19    1.0954E+05 -2.1418E+03   1.1168E+05  0.000E+00  0.000E+00  0.000E+00  3.98241E+01  1.537E-01  2.000E+01  2.000E+04 -1.071E-01
   1   13   20     1    20    1.1168E+05 -1.4979E+03   1.1318E+05  0.000E+00  0.000E+00  0.000E+00  3.93484E+01  1.552E-01  2.000E+01  2.000E+04 -7.490E-02
   1   14   21     1    21    1.1318E+05 -1.2687E+03   1.1445E+05  0.000E+00  0.000E+00  0.000E+00  3.88722E+01  1.563E-01  2.000E+01  2.000E+04 -6.343E-02
   1   14   22     1    22    1.1445E+05  4.9645E+03   1.0948E+05  0.000E+00  0.000E+00  0.000E+00  3.83934E+01  1.548E-01  2.000E+01  2.000E+04  2.482E-01
   1    9   30     2     1    5.0000E+04  2.6148E+02   4.9739E+04  0.000E+00  0.000E+00  0.000E+00  4.02407E+01  1.157E-01  2.000E+01  2.000E+04  1.307E-02
   1    9   29     2     2    4.9739E+04 -1.7269E+01   4.9756E+04  0.000E+00  0.000E+00  0.000E+00  3.99905E+01  1.155E-01  2.000E+01  2.000E+04 -8.635E-04
   1    9   28     2     3    4.9756E+04 -2.6126E+02   5.0017E+04  0.000E+00  0.000E+00  0.000E+00  3.97407E+01  1.157E-01  2.000E+01  2.000E+04 -1.306E-02
   1    9   27     2     4    5.0017E+04 -1.5574E+03   5.1574E+04  0.000E+00  0.000E+00  0.000E+00  3.94920E+01  1.170E-01  2.000E+01  2.000E+04 -7.787E-02
   1   10   26     2     5    5.1574E+04  9.4763E+02   5.0627E+04  0.000E+00  0.000E+00  0.000E+00  3.92424E+01  1.174E-01  2.000E+01  2.000E+04  4.738E-02
   1   11   25     2     6    5.0627E+04  2.1861E+03   4.8441E+04  0.000E+00  0.000E+00  0.000E+00  3.89902E+01  1.152E-01  2.000E+01  2.000E+04  1.093E-01
   1   12   24     2     7    4.8441E+04  4.9045E+02   4.7950E+04  0.000E+00  0.000E+00  0.000E+00  3.87383E+01  1.133E-01  2.000E+01  2.000E+04  2.452E-02
   1   13   23     2     8    4.7950E+04 -1.3296E+02   4.8083E+04  0.000E+00  0.000E+00  0.000E+00  3.84881E+01  1.131E-01  2.000E+01  2.000E+04 -6.648E-03
   1   14   22     2     9    4.8083E+04  1.8334E+03   4.6250E+04  0.000E+00  0.000E+00  0.000E+00  3.82369E+01  1.119E-01  2.000E+01  2.000E+04  9.167E-02
   1   14   22     3     1    1.5573E+05 -8.6099E+03   1.6434E+05  0.000E+00  0.000E+00  0.000E+00  3.77147E+01  1.592E-01  2.000E+01  2.000E+04 -4.305E-01
   1   15   23     3     2    1.6434E+05 -4.2980E+02   1.6477E+05  0.000E+00  0.000E+00  0.000E+00  3.68285E+01  1.618E-01  2.000E+01  2.000E+04 -2.149E-02
   1   15   24     3     3    1.6477E+05 -1.6867E+02   1.6494E+05  0.000E+00  0.000E+00  0.000E+00  3.59398E+01  1.620E-01  2.000E+01  2.000E+04 -8.434E-03
   1   15   25     3     4    1.6494E+05 -1.0042E+02   1.6504E+05  0.000E+00  0.000E+00  0.000E+00  3.50510E+01  1.621E-01  2.000E+01  2.000E+04 -5.021E-03
   1   15   26     3     5    1.6504E+05  2.1739E+02   1.6482E+05  0.000E+00  0.000E+00  0.000E+00  3.41621E+01  1.621E-01  2.000E+01  2.000E+04  1.087E-02
   1   16   27     3     6    1.6482E+05  4.6302E+02   1.6436E+05  0.000E+00  0.000E+00  0.000E+00  3.32730E+01  1.619E-01  2.000E+01  2.000E+04  2.315E-02
   1   17   28     3     7    1.6436E+05  1.8114E+03   1.6255E+05  0.000E+00  0.000E+00  0.000E+00  3.23834E+01  1.612E-01  2.000E+01  2.000E+04  9.057E-02
   1   18   29     3     8    1.6255E+05 -1.8059E+03   1.6436E+05  0.000E+00  0.000E+00  0.000E+00  3.14945E+01  1.612E-01  2.000E+01  2.000E+04 -9.030E-02
   1   18   30     3     9    1.6436E+05 -2.0528E+03   1.6641E+05  0.000E+00  0.000E+00  0.000E+00  3.06068E+01  1.623E-01  2.000E+01  2.000E+04 -1.026E-01



1
              HEAD IN LAYER   1 AT END OF TIME STEP   1 IN STRESS PERIOD   11
  ---------------------------------------------------------------------------

          1      2      3      4      5      6      7      8      9     10
         11     12     13     14     15     16     17     18     19     20
         21     22     23     24     25     26     27     28     29     30
 .........................................................................
   1  ****** ****** ****** ****** ****** ****** ****** ****** ****** ******
      ****** ****** ****** ****** ****** ****** ****** ****** ****** ******
      ****** ****** ****** ****** ****** ****** ****** ****** ****** ******
   2  ****** ****** ****** ****** ****** ****** ****** ****** ****** ******
      ****** ****** ****** ****** ****** ****** ****** ****** ****** ******
      ****** ****** ****** ****** ****** ****** ****** ****** ****** ******
   3  ****** ****** ****** ****** ****** ****** ****** ****** ****** ******
      ****** ****** ****** ****** ****** ****** ****** ****** ****** ******
      ****** ****** ****** ****** ****** ****** ****** ****** ****** ******
   4  ****** ****** ****** ****** ****** ****** ****** ****** ****** ******
      ****** ****** ****** ****** ****** ****** ****** ****** ****** ******
      ****** ****** ****** ****** ****** ****** ****** ****** ****** ******
   5  ****** ****** ****** ****** ****** ****** ****** ****** ****** ******
      ****** ****** ****** ****** ****** ****** ****** ****** ****** ******
      ****** ****** ****** ****** ****** ****** ****** ****** ****** ******
   6  ****** ****** ****** ****** ****** ****** ****** ****** ****** ******
      ****** ****** ****** ****** ****** ****** ****** ****** ****** ******
      ****** ****** ****** ****** ****** ****** ****** ****** ****** ******
   7  ****** ****** ****** ****** ****** ****** ****** ****** ****** ******
      ****** ****** ****** ****** ****** ****** ****** ****** ****** ******
      ****** ****** ****** ****** ****** ****** ****** ****** ****** ******
   8  ****** ****** ****** ****** ****** ****** ****** ****** ****** ******
      ****** ****** ****** ****** ****** ****** ****** ****** ****** ******
      ****** ****** ****** ****** ****** ****** ****** ****** ****** ******
   9  ****** ****** ****** ****** ****** ****** ****** ****** ****** ******
      ****** ****** ****** ****** ****** ****** ****** ****** ****** ******
      ****** ****** ****** ****** ****** ****** ****** ****** ****** ******
  10  ****** ****** ****** ****** ****** ****** ****** ****** ****** ******
      ****** ****** ****** ****** ****** ****** ****** ****** ****** ******
      ****** ****** ****** ****** ****** ****** ****** ****** ****** ******
  11  ****** ****** ****** ****** ****** ****** ****** ****** ****** ******
      ****** ****** ****** ****** ****** ****** ****** ****** ****** ******
      ****** ****** ****** ****** ****** ****** ****** ****** ****** ******
  12  ****** ****** ****** ****** ****** ****** ****** ****** ****** ******
      ****** ****** ****** ****** ****** ****** ****** ****** ****** ******
      ****** ****** ****** ****** ****** ****** ****** ****** ****** ******
  13  ****** ****** ****** ****** ****** ****** ****** ****** ****** ******
      ****** ****** ****** ****** ****** ****** ****** ****** ****** ******
      ****** ****** ****** ****** ****** ****** ****** ****** ****** ******
  14  ****** ****** ****** ****** ****** ****** ****** ****** ****** ******
      ****** ****** ****** ****** ****** ****** ****** ****** ****** ******
      ****** ****** ****** ****** ****** ****** ****** ****** ****** ******
  15  ****** ****** ****** ****** ****** ****** ****** ****** ****** ******
      ****** ****** ****** ****** ****** ****** ****** ****** ****** ******
      ****** ****** ****** ****** ****** ****** ****** ****** ****** ******
  16  ****** ****** ****** ****** ****** ****** ****** ****** ****** ******
      ****** ****** ****** ****** ****** ****** ****** ****** ****** ******
      ****** ****** ****** ****** ****** ****** ****** ****** ****** ******
  17  ****** ****** ****** ****** ****** ****** ****** ****** ****** ******
      ****** ****** ****** ****** ****** ****** ****** ****** ****** ******
      ****** ****** ****** ****** ****** ****** ****** ****** ****** ******
  18  ****** ****** ****** ****** ****** ****** ****** ****** ****** ******
      ****** ****** ****** ****** ****** ****** ****** ****** ****** ******
      ****** ****** ****** ****** ****** ****** ****** ****** ****** ******
  19  ****** ****** ****** ****** ****** ****** ****** ****** ****** ******
      ****** ****** ****** ****** ****** ****** ****** ****** ****** ******
      ****** ****** ****** ****** ****** ****** ****** ****** ****** ******
  20  ****** ****** ****** ****** ****** ****** ****** ****** ****** ******
      ****** ****** ****** ****** ****** ****** ****** ****** ****** ******
      ****** ****** ****** ****** ****** ****** ****** ****** ****** ******
  21  ****** ****** ****** ****** ****** ****** ****** ****** ****** ******
      ****** ****** ****** ****** ****** ****** ****** ****** ****** ******
      ****** ****** ****** ****** ****** ****** ****** ****** ****** ******
  22  ****** ****** ****** ****** ****** ****** ****** ****** ****** ******
      ****** ****** ****** ****** ****** ****** ****** ****** ****** ******
      ****** ****** ****** ****** ****** ****** ****** ****** ****** ******
  23  ****** ****** ****** ****** ****** ****** ****** ****** ****** ******
      ****** ****** ****** ****** ****** ****** ****** ****** ****** ******
      ****** ****** ****** ****** ****** ****** ****** ****** ****** ******
  24  ****** ****** ****** ****** ****** ****** ****** ****** ****** ******
      ****** ****** ****** ****** ****** ****** ****** ****** ****** ******
      ****** ****** ****** ****** ****** ****** ****** ****** ****** ******
  25  ****** ****** ****** ****** ****** ****** ****** ****** ****** ******
      ****** ****** ****** ****** ****** ****** ****** ****** ****** ******
      ****** ****** ****** ****** ****** ****** ****** ****** ****** ******

 HEAD WILL BE SAVED ON UNIT   51 AT END OF TIME STEP    1, STRESS PERIOD   11
1
  VOLUMETRIC BUDGET FOR ENTIRE MODEL AT END OF TIME STEP    1, STRESS PERIOD  11
  ------------------------------------------------------------------------------

     CUMULATIVE VOLUMES      L**3       RATES FOR THIS TIME STEP      L**3/T
     ------------------                 ------------------------

           IN:                                      IN:
           ---                                      ---
             STORAGE =    34805706.6359               STORAGE =       17894.3479
       CONSTANT HEAD =    27056586.7005         CONSTANT HEAD =       32956.8415
               WELLS =           0.0000                 WELLS =           0.0000
            RECHARGE =    23901600.0000              RECHARGE =           0.0000
      STREAM LEAKAGE =    13046570.0218        STREAM LEAKAGE =       18140.0117

            TOTAL IN =    98810463.3582              TOTAL IN =       68991.2011

          OUT:                                     OUT:
          ----                                     ----
             STORAGE =     2404500.9676               STORAGE =           0.0000
       CONSTANT HEAD =           0.0000         CONSTANT HEAD =           0.0000
               WELLS =    34580074.7548                 WELLS =       34442.3055
            RECHARGE =           0.0000              RECHARGE =           0.0000
      STREAM LEAKAGE =    61825889.7490        STREAM LEAKAGE =       34548.9007

           TOTAL OUT =    98810465.4714             TOTAL OUT =       68991.2062

            IN - OUT =          -2.1132              IN - OUT =      -5.1428E-03

 PERCENT DISCREPANCY =          -0.00     PERCENT DISCREPANCY =          -0.00






         TIME SUMMARY AT END OF TIME STEP    1 IN STRESS PERIOD   11
                    SECONDS     MINUTES      HOURS       DAYS        YEARS
                    -----------------------------------------------------------
   TIME STEP LENGTH 7.86240E+06 1.31040E+05  2184.0      91.000     0.24914    
 STRESS PERIOD TIME 7.86240E+06 1.31040E+05  2184.0      91.000     0.24914    
         TOTAL TIME 8.67456E+07 1.44576E+06  24096.      1004.0      2.7488    
1
1
                            STRESS PERIOD NO.   12, LENGTH =   91.00000    
                            -----------------------------------------------

                              NUMBER OF TIME STEPS =     1

                               MULTIPLIER FOR DELT =     1.500

                            INITIAL TIME STEP SIZE =   91.00000    

 WELL NO.  LAYER   ROW   COL   STRESS RATE         
 --------------------------------------------------
      1      1     19     11     -0.1013E+05
      2      1     15     28      -7561.    
      3      1     15      7      -7227.    
      4      1     12     26      -9522.    

      4 WELLS

                 RECHARGE =  1.000000E-03

 REUSING STREAM SEGMENT DATA FROM LAST STRESS PERIOD
 
 SOLVING FOR HEAD 


     6 CALLS TO PCG ROUTINE FOR TIME STEP   1 IN STRESS PERIOD   12
    23 TOTAL ITERATIONS

 OUTPUT CONTROL FOR STRESS PERIOD   12   TIME STEP    1
    SAVE BUDGET
    SAVE HEAD FOR ALL LAYERS
    PRINT HEAD FOR ALL LAYERS
 UBDSV2 SAVING "STREAMFLOW OUT  " ON UNIT  50 AT TIME STEP  1, STRESS PERIOD  12



 STREAM LISTING     PERIOD     12   STEP        1

 LAYER ROW COL. STREAM  RCH.  FLOW INTO     FLOW TO   FLOW OUT OF   OVRLND.     DIRECT     STREAM       STREAM     STREAM     STREAM   STREAMBED  STREAMBED
                SEG.NO.  NO.  STRM. RCH.    AQUIFER    STRM. RCH.    RUNOFF     PRECIP       ET          HEAD       DEPTH      WIDTH   CONDCTNC.   GRADIENT

   1   13    1     1     1    1.0000E+05 -1.5765E+03   1.0158E+05  0.000E+00  0.000E+00  0.000E+00  4.84067E+01  1.453E-01  2.000E+01  2.000E+04 -7.883E-02
   1   13    2     1     2    1.0158E+05 -2.4600E+03   1.0404E+05  0.000E+00  0.000E+00  0.000E+00  4.79312E+01  1.471E-01  2.000E+01  2.000E+04 -1.230E-01
   1   14    3     1     3    1.0404E+05 -3.0249E+02   1.0434E+05  0.000E+00  0.000E+00  0.000E+00  4.74551E+01  1.483E-01  2.000E+01  2.000E+04 -1.512E-02
   1   15    4     1     4    1.0434E+05 -1.2814E+02   1.0447E+05  0.000E+00  0.000E+00  0.000E+00  4.69780E+01  1.484E-01  2.000E+01  2.000E+04 -6.407E-03
   1   16    5     1     5    1.0447E+05 -8.1376E+02   1.0528E+05  0.000E+00  0.000E+00  0.000E+00  4.65011E+01  1.488E-01  2.000E+01  2.000E+04 -4.069E-02
   1   16    6     1     6    1.0528E+05  3.3157E+02   1.0495E+05  0.000E+00  0.000E+00  0.000E+00  4.60240E+01  1.490E-01  2.000E+01  2.000E+04  1.658E-02
   1   16    7     1     7    1.0495E+05  2.7145E+03   1.0223E+05  0.000E+00  0.000E+00  0.000E+00  4.55455E+01  1.477E-01  2.000E+01  2.000E+04  1.357E-01
   1   16    8     1     8    1.0223E+05  5.8734E+02   1.0165E+05  0.000E+00  0.000E+00  0.000E+00  4.50668E+01  1.463E-01  2.000E+01  2.000E+04  2.937E-02
   1   16    9     1     9    1.0165E+05  1.2758E+02   1.0152E+05  0.000E+00  0.000E+00  0.000E+00  4.45892E+01  1.460E-01  2.000E+01  2.000E+04  6.379E-03
   1   16   10     1    10    1.0152E+05  1.7207E+02   1.0135E+05  0.000E+00  0.000E+00  0.000E+00  4.41118E+01  1.459E-01  2.000E+01  2.000E+04  8.604E-03
   1   16   11     1    11    1.0135E+05  2.7234E+02   1.0108E+05  0.000E+00  0.000E+00  0.000E+00  4.36343E+01  1.457E-01  2.000E+01  2.000E+04  1.362E-02
   1   16   12     1    12    1.0108E+05 -2.5170E+02   1.0133E+05  0.000E+00  0.000E+00  0.000E+00  4.31571E+01  1.457E-01  2.000E+01  2.000E+04 -1.259E-02
   1   15   13     1    13    1.0133E+05 -1.0205E+03   1.0235E+05  0.000E+00  0.000E+00  0.000E+00  4.26803E+01  1.462E-01  2.000E+01  2.000E+04 -5.103E-02
   1   14   14     1    14    1.0235E+05 -1.5775E+03   1.0393E+05  0.000E+00  0.000E+00  0.000E+00  4.22042E+01  1.474E-01  2.000E+01  2.000E+04 -7.887E-02
   1   13   15     1    15    1.0393E+05 -2.0328E+03   1.0596E+05  0.000E+00  0.000E+00  0.000E+00  4.17284E+01  1.489E-01  2.000E+01  2.000E+04 -1.016E-01
   1   12   16     1    16    1.0596E+05 -2.7706E+03   1.0873E+05  0.000E+00  0.000E+00  0.000E+00  4.12532E+01  1.509E-01  2.000E+01  2.000E+04 -1.385E-01
   1   12   17     1    17    1.0873E+05 -1.8243E+03   1.1055E+05  0.000E+00  0.000E+00  0.000E+00  4.07779E+01  1.529E-01  2.000E+01  2.000E+04 -9.122E-02
   1   12   18     1    18    1.1055E+05 -1.7602E+03   1.1231E+05  0.000E+00  0.000E+00  0.000E+00  4.03021E+01  1.544E-01  2.000E+01  2.000E+04 -8.801E-02
   1   12   19     1    19    1.1231E+05 -2.3349E+03   1.1465E+05  0.000E+00  0.000E+00  0.000E+00  3.98265E+01  1.561E-01  2.000E+01  2.000E+04 -1.167E-01
   1   13   20     1    20    1.1465E+05 -1.7086E+03   1.1636E+05  0.000E+00  0.000E+00  0.000E+00  3.93509E+01  1.577E-01  2.000E+01  2.000E+04 -8.543E-02
   1   14   21     1    21    1.1636E+05 -1.4630E+03   1.1782E+05  0.000E+00  0.000E+00  0.000E+00  3.88749E+01  1.590E-01  2.000E+01  2.000E+04 -7.315E-02
   1   14   22     1    22    1.1782E+05  4.9109E+03   1.1291E+05  0.000E+00  0.000E+00  0.000E+00  3.83962E+01  1.576E-01  2.000E+01  2.000E+04  2.455E-01
   1    9   30     2     1    5.0000E+04  8.4903E+01   4.9915E+04  0.000E+00  0.000E+00  0.000E+00  4.02408E+01  1.158E-01  2.000E+01  2.000E+04  4.245E-03
   1    9   29     2     2    4.9915E+04 -1.9181E+02   5.0107E+04  0.000E+00  0.000E+00  0.000E+00  3.99909E+01  1.159E-01  2.000E+01  2.000E+04 -9.591E-03
   1    9   28     2     3    5.0107E+04 -4.3232E+02   5.0539E+04  0.000E+00  0.000E+00  0.000E+00  3.97413E+01  1.163E-01  2.000E+01  2.000E+04 -2.162E-02
   1    9   27     2     4    5.0539E+04 -1.7669E+03   5.2306E+04  0.000E+00  0.000E+00  0.000E+00  3.94928E+01  1.178E-01  2.000E+01  2.000E+04 -8.835E-02
   1   10   26     2     5    5.2306E+04  7.1746E+02   5.1589E+04  0.000E+00  0.000E+00  0.000E+00  3.92436E+01  1.186E-01  2.000E+01  2.000E+04  3.587E-02
   1   11   25     2     6    5.1589E+04  1.9599E+03   4.9629E+04  0.000E+00  0.000E+00  0.000E+00  3.89917E+01  1.167E-01  2.000E+01  2.000E+04  9.799E-02
   1   12   24     2     7    4.9629E+04  2.8398E+02   4.9345E+04  0.000E+00  0.000E+00  0.000E+00  3.87402E+01  1.152E-01  2.000E+01  2.000E+04  1.420E-02
   1   13   23     2     8    4.9345E+04 -2.1063E+02   4.9556E+04  0.000E+00  0.000E+00  0.000E+00  3.84901E+01  1.151E-01  2.000E+01  2.000E+04 -1.053E-02
   1   14   22     2     9    4.9556E+04  1.7663E+03   4.7789E+04  0.000E+00  0.000E+00  0.000E+00  3.82390E+01  1.140E-01  2.000E+01  2.000E+04  8.831E-02
   1   14   22     3     1    1.6070E+05 -8.6604E+03   1.6936E+05  0.000E+00  0.000E+00  0.000E+00  3.77177E+01  1.621E-01  2.000E+01  2.000E+04 -4.330E-01
   1   15   23     3     2    1.6936E+05 -5.0186E+02   1.6986E+05  0.000E+00  0.000E+00  0.000E+00  3.68315E+01  1.648E-01  2.000E+01  2.000E+04 -2.509E-02
   1   15   24     3     3    1.6986E+05 -2.3378E+02   1.7009E+05  0.000E+00  0.000E+00  0.000E+00  3.59428E+01  1.650E-01  2.000E+01  2.000E+04 -1.169E-02
   1   15   25     3     4    1.7009E+05 -1.6679E+02   1.7026E+05  0.000E+00  0.000E+00  0.000E+00  3.50540E+01  1.651E-01  2.000E+01  2.000E+04 -8.340E-03
   1   15   26     3     5    1.7026E+05  1.3989E+02   1.7012E+05  0.000E+00  0.000E+00  0.000E+00  3.41651E+01  1.651E-01  2.000E+01  2.000E+04  6.995E-03
   1   16   27     3     6    1.7012E+05  3.7621E+02   1.6974E+05  0.000E+00  0.000E+00  0.000E+00  3.32761E+01  1.650E-01  2.000E+01  2.000E+04  1.881E-02
   1   17   28     3     7    1.6974E+05  1.5906E+03   1.6815E+05  0.000E+00  0.000E+00  0.000E+00  3.23866E+01  1.644E-01  2.000E+01  2.000E+04  7.953E-02
   1   18   29     3     8    1.6815E+05 -2.0067E+03   1.7016E+05  0.000E+00  0.000E+00  0.000E+00  3.14979E+01  1.645E-01  2.000E+01  2.000E+04 -1.003E-01
   1   18   30     3     9    1.7016E+05 -2.2210E+03   1.7238E+05  0.000E+00  0.000E+00  0.000E+00  3.06102E+01  1.658E-01  2.000E+01  2.000E+04 -1.111E-01



1
              HEAD IN LAYER   1 AT END OF TIME STEP   1 IN STRESS PERIOD   12
  ---------------------------------------------------------------------------

          1      2      3      4      5      6      7      8      9     10
         11     12     13     14     15     16     17     18     19     20
         21     22     23     24     25     26     27     28     29     30
 .........................................................................
   1  ****** ****** ****** ****** ****** ****** ****** ****** ****** ******
      ****** ****** ****** ****** ****** ****** ****** ****** ****** ******
      ****** ****** ****** ****** ****** ****** ****** ****** ****** ******
   2  ****** ****** ****** ****** ****** ****** ****** ****** ****** ******
      ****** ****** ****** ****** ****** ****** ****** ****** ****** ******
      ****** ****** ****** ****** ****** ****** ****** ****** ****** ******
   3  ****** ****** ****** ****** ****** ****** ****** ****** ****** ******
      ****** ****** ****** ****** ****** ****** ****** ****** ****** ******
      ****** ****** ****** ****** ****** ****** ****** ****** ****** ******
   4  ****** ****** ****** ****** ****** ****** ****** ****** ****** ******
      ****** ****** ****** ****** ****** ****** ****** ****** ****** ******
      ****** ****** ****** ****** ****** ****** ****** ****** ****** ******
   5  ****** ****** ****** ****** ****** ****** ****** ****** ****** ******
      ****** ****** ****** ****** ****** ****** ****** ****** ****** ******
      ****** ****** ****** ****** ****** ****** ****** ****** ****** ******
   6  ****** ****** ****** ****** ****** ****** ****** ****** ****** ******
      ****** ****** ****** ****** ****** ****** ****** ****** ****** ******
      ****** ****** ****** ****** ****** ****** ****** ****** ****** ******
   7  ****** ****** ****** ****** ****** ****** ****** ****** ****** ******
      ****** ****** ****** ****** ****** ****** ****** ****** ****** ******
      ****** ****** ****** ****** ****** ****** ****** ****** ****** ******
   8  ****** ****** ****** ****** ****** ****** ****** ****** ****** ******
      ****** ****** ****** ****** ****** ****** ****** ****** ****** ******
      ****** ****** ****** ****** ****** ****** ****** ****** ****** ******
   9  ****** ****** ****** ****** ****** ****** ****** ****** ****** ******
      ****** ****** ****** ****** ****** ****** ****** ****** ****** ******
      ****** ****** ****** ****** ****** ****** ****** ****** ****** ******
  10  ****** ****** ****** ****** ****** ****** ****** ****** ****** ******
      ****** ****** ****** ****** ****** ****** ****** ****** ****** ******
      ****** ****** ****** ****** ****** ****** ****** ****** ****** ******
  11  ****** ****** ****** ****** ****** ****** ****** ****** ****** ******
      ****** ****** ****** ****** ****** ****** ****** ****** ****** ******
      ****** ****** ****** ****** ****** ****** ****** ****** ****** ******
  12  ****** ****** ****** ****** ****** ****** ****** ****** ****** ******
      ****** ****** ****** ****** ****** ****** ****** ****** ****** ******
      ****** ****** ****** ****** ****** ****** ****** ****** ****** ******
  13  ****** ****** ****** ****** ****** ****** ****** ****** ****** ******
      ****** ****** ****** ****** ****** ****** ****** ****** ****** ******
      ****** ****** ****** ****** ****** ****** ****** ****** ****** ******
  14  ****** ****** ****** ****** ****** ****** ****** ****** ****** ******
      ****** ****** ****** ****** ****** ****** ****** ****** ****** ******
      ****** ****** ****** ****** ****** ****** ****** ****** ****** ******
  15  ****** ****** ****** ****** ****** ****** ****** ****** ****** ******
      ****** ****** ****** ****** ****** ****** ****** ****** ****** ******
      ****** ****** ****** ****** ****** ****** ****** ****** ****** ******
  16  ****** ****** ****** ****** ****** ****** ****** ****** ****** ******
      ****** ****** ****** ****** ****** ****** ****** ****** ****** ******
      ****** ****** ****** ****** ****** ****** ****** ****** ****** ******
  17  ****** ****** ****** ****** ****** ****** ****** ****** ****** ******
      ****** ****** ****** ****** ****** ****** ****** ****** ****** ******
      ****** ****** ****** ****** ****** ****** ****** ****** ****** ******
  18  ****** ****** ****** ****** ****** ****** ****** ****** ****** ******
      ****** ****** ****** ****** ****** ****** ****** ****** ****** ******
      ****** ****** ****** ****** ****** ****** ****** ****** ****** ******
  19  ****** ****** ****** ****** ****** ****** ****** ****** ****** ******
      ****** ****** ****** ****** ****** ****** ****** ****** ****** ******
      ****** ****** ****** ****** ****** ****** ****** ****** ****** ******
  20  ****** ****** ****** ****** ****** ****** ****** ****** ****** ******
      ****** ****** ****** ****** ****** ****** ****** ****** ****** ******
      ****** ****** ****** ****** ****** ****** ****** ****** ****** ******
  21  ****** ****** ****** ****** ****** ****** ****** ****** ****** ******
      ****** ****** ****** ****** ****** ****** ****** ****** ****** ******
      ****** ****** ****** ****** ****** ****** ****** ****** ****** ******
  22  ****** ****** ****** ****** ****** ****** ****** ****** ****** ******
      ****** ****** ****** ****** ****** ****** ****** ****** ****** ******
      ****** ****** ****** ****** ****** ****** ****** ****** ****** ******
  23  ****** ****** ****** ****** ****** ****** ****** ****** ****** ******
      ****** ****** ****** ****** ****** ****** ****** ****** ****** ******
      ****** ****** ****** ****** ****** ****** ****** ****** ****** ******
  24  ****** ****** ****** ****** ****** ****** ****** ****** ****** ******
      ****** ****** ****** ****** ****** ****** ****** ****** ****** ******
      ****** ****** ****** ****** ****** ****** ****** ****** ****** ******
  25  ****** ****** ****** ****** ****** ****** ****** ****** ****** ******
      ****** ****** ****** ****** ****** ****** ****** ****** ****** ******
      ****** ****** ****** ****** ****** ****** ****** ****** ****** ******

 HEAD WILL BE SAVED ON UNIT   51 AT END OF TIME STEP    1, STRESS PERIOD   12
1
  VOLUMETRIC BUDGET FOR ENTIRE MODEL AT END OF TIME STEP    1, STRESS PERIOD  12
  ------------------------------------------------------------------------------

     CUMULATIVE VOLUMES      L**3       RATES FOR THIS TIME STEP      L**3/T
     ------------------                 ------------------------

           IN:                                      IN:
           ---                                      ---
             STORAGE =    34806507.0658               STORAGE =           8.7959
       CONSTANT HEAD =    29991918.0223         CONSTANT HEAD =       32256.3882
               WELLS =           0.0000                 WELLS =           0.0000
            RECHARGE =    26413200.0000              RECHARGE =       27600.0000
      STREAM LEAKAGE =    14505791.8259        STREAM LEAKAGE =       16035.4044

            TOTAL IN =   105717416.9139              TOTAL IN =       75900.5885

          OUT:                                     OUT:
          ----                                     ----
             STORAGE =     2681219.1968               STORAGE =        3040.8597
       CONSTANT HEAD =           0.0000         CONSTANT HEAD =           0.0000
               WELLS =    37714324.5583                 WELLS =       34442.3055
            RECHARGE =           0.0000              RECHARGE =           0.0000
      STREAM LEAKAGE =    65321875.2109        STREAM LEAKAGE =       38417.4227

           TOTAL OUT =   105717418.9660             TOTAL OUT =       75900.5879

            IN - OUT =          -2.0521              IN - OUT =       6.7077E-04

 PERCENT DISCREPANCY =          -0.00     PERCENT DISCREPANCY =           0.00






         TIME SUMMARY AT END OF TIME STEP    1 IN STRESS PERIOD   12
                    SECONDS     MINUTES      HOURS       DAYS        YEARS
                    -----------------------------------------------------------
   TIME STEP LENGTH 7.86240E+06 1.31040E+05  2184.0      91.000     0.24914    
 STRESS PERIOD TIME 7.86240E+06 1.31040E+05  2184.0      91.000     0.24914    
         TOTAL TIME 9.46080E+07 1.57680E+06  26280.      1095.0      2.9979    
1

 Run end date and time (yyyy/mm/dd hh:mm:ss): 2019/05/25 20:36:23
 Elapsed run time:  0.103 Seconds

