                                  MODFLOW-2005     
      U.S. GEOLOGICAL SURVEY MODULAR FINITE-DIFFERENCE GROUND-WATER FLOW MODEL
                            VERSION 1.11.00 8/8/2013

 LIST FILE: supply2.lst
                         UNIT   10

 OPENING ..\data\supply.dis
 FILE TYPE:DIS   UNIT   11   STATUS:OLD    
 FORMAT:FORMATTED              ACCESS:SEQUENTIAL          

 OPENING ..\data\supply.ba6
 FILE TYPE:BAS6   UNIT   12   STATUS:OLD    
 FORMAT:FORMATTED              ACCESS:SEQUENTIAL          

 OPENING ..\data\supply_het.bc6
 FILE TYPE:BCF6   UNIT   13   STATUS:OLD    
 FORMAT:FORMATTED              ACCESS:SEQUENTIAL          

 OPENING ..\data\supply.rch
 FILE TYPE:RCH   UNIT   15   STATUS:OLD    
 FORMAT:FORMATTED              ACCESS:SEQUENTIAL          

 OPENING ..\data\supply2.sfr
 FILE TYPE:SFR   UNIT   16   STATUS:OLD    
 FORMAT:FORMATTED              ACCESS:SEQUENTIAL          

 OPENING ..\data\supply.oc
 FILE TYPE:OC   UNIT   17   STATUS:OLD    
 FORMAT:FORMATTED              ACCESS:SEQUENTIAL          

 OPENING ..\data\supply.pcg
 FILE TYPE:PCG   UNIT   18   STATUS:OLD    
 FORMAT:FORMATTED              ACCESS:SEQUENTIAL          

 OPENING supply2.wel
 FILE TYPE:WEL   UNIT   19   STATUS:OLD    
 FORMAT:FORMATTED              ACCESS:SEQUENTIAL          

 OPENING supply2sf.cbc
 FILE TYPE:DATA(BINARY)   UNIT   50   STATUS:UNKNOWN
 FORMAT:BINARY                 ACCESS:SEQUENTIAL          

 OPENING supply2hd.bhd
 FILE TYPE:DATA(BINARY)   UNIT   51   STATUS:UNKNOWN
 FORMAT:BINARY                 ACCESS:SEQUENTIAL          

 BAS -- BASIC PACKAGE, VERSION 7, 5/2/2005 INPUT READ FROM UNIT   12
 
 MODFLOW was compiled using uniform precision
 Precision of REAL and DOUBLE PRECISION variables:          15

 DISCRETIZATION INPUT DATA READ FROM UNIT   11
    1 LAYERS        25 ROWS        30 COLUMNS
   12 STRESS PERIOD(S) IN SIMULATION
 MODEL TIME UNIT IS DAYS
 MODEL LENGTH UNIT IS UNDEFINED
  Confining bed flag for each layer:
   0

                     DELR =   200.000    

                     DELC =   200.000    

 TOP ELEVATION OF LAYER 1 =  100.0000    

   MODEL LAYER BOTTOM EL. =   0.00000     FOR LAYER   1


 STRESS PERIOD     LENGTH       TIME STEPS     MULTIPLIER FOR DELT    SS FLAG
 ----------------------------------------------------------------------------
        1         92.00000          1                    1.500         TR
        2         91.00000          1                    1.500         TR
        3         91.00000          1                    1.500         TR
        4         91.00000          1                    1.500         TR
        5         92.00000          1                    1.500         TR
        6         91.00000          1                    1.500         TR
        7         91.00000          1                    1.500         TR
        8         91.00000          1                    1.500         TR
        9         92.00000          1                    1.500         TR
       10         91.00000          1                    1.500         TR
       11         91.00000          1                    1.500         TR
       12         91.00000          1                    1.500         TR

 TRANSIENT SIMULATION



 
 #MODOFC transient water supply sample problem                                   
 #                                                                               
 THE FREE FORMAT OPTION HAS BEEN SELECTED



                     BOUNDARY ARRAY FOR LAYER   1
 READING ON UNIT   12 WITH FORMAT: (20I4)              

 AQUIFER HEAD WILL BE SET TO   0.0000     AT ALL NO-FLOW NODES (IBOUND=0).



                       INITIAL HEAD FOR LAYER   1
 READING ON UNIT   12 WITH FORMAT: (10F13.0)           

 OUTPUT CONTROL IS SPECIFIED ONLY AT TIME STEPS FOR WHICH OUTPUT IS DESIRED
 COMPACT CELL-BY-CELL BUDGET FILES WILL BE WRITTEN
 HEAD PRINT FORMAT CODE IS  18    DRAWDOWN PRINT FORMAT CODE IS   0
 HEADS WILL BE SAVED ON UNIT   51    DRAWDOWNS WILL BE SAVED ON UNIT    0

 BCF -- BLOCK-CENTERED FLOW PACKAGE, VERSION 7, 5/2/2005
         INPUT READ FROM UNIT 13
 TRANSIENT SIMULATION
 HEAD AT CELLS THAT CONVERT TO DRY=   0.0000    
 WETTING CAPABILITY IS NOT ACTIVE
      LAYER  LAYER-TYPE CODE     INTERBLOCK T
      --------------------------------------------
         1            0          0 -- HARMONIC    

 COLUMN TO ROW ANISOTROPY =  1.000000    

     PRIMARY STORAGE COEF =  5.000000E-02 FOR LAYER   1



               TRANSMIS. ALONG ROWS FOR LAYER   1
 READING ON UNIT   13 WITH FORMAT: (FREE)              

 WEL -- WELL PACKAGE, VERSION 7, 5/2/2005 INPUT READ FROM UNIT   19
 # Well package input file written by MMProc
 No named parameters
 MAXIMUM OF      4 ACTIVE WELLS AT ONE TIME


     0 Well parameters

 RCH -- RECHARGE PACKAGE, VERSION 7, 5/2/2005 INPUT READ FROM UNIT   15
 No named parameters
 OPTION 1 -- RECHARGE TO TOP LAYER


     0 Recharge parameters

 SFR7 -- STREAMFLOW ROUTING PACKAGE, VERSION 1.0.7, 2013-01-15
         INPUT READ FROM UNIT  16
 #  Supply2 test problem for GWM-VI
 #  The eighth entry in the first data line is ISTCB2 -
 #    Setting this to a negative number indicates that
 #    streamflows out of the reach will be saved to a
 #    binary file.  The absolute value of ISTCB2 is the
 #    unit to which unformatted flows will be written.
 #
 No named parameters
 Segment information will not be 
 read by reach
 No named parameters
 No specifed inflow files


 NUMBER OF STREAM REACHES IS   40

 NUMBER OF STREAM SEGMENTS IS    3

 NUMBER OF STREAM PARAMETERS IS    0

 NUMBER OF STREAM SEGMENTS DEFINED USING PARAMETERS IS              0

 MAXIMUM ERROR FOR STREAM LEAKAGE RATES IS  1.00E-04

 CONSTANT FOR MANNINGS EQUATION IS  1.2839E+05





   STREAM NETWORK DESCRIPTION: 

   LAYER    ROW    COL   SEGMENT   REACH     LENGTH
                          NUMBER   NUMBER    IN CELL        
   --------------------------------------------------
      1     13      1       1        1    2.0000E+02
      1     13      2       1        2    2.0000E+02
      1     14      3       1        3    2.0000E+02
      1     15      4       1        4    2.0000E+02
      1     16      5       1        5    2.0000E+02
      1     16      6       1        6    2.0000E+02
      1     16      7       1        7    2.0000E+02
      1     16      8       1        8    2.0000E+02
      1     16      9       1        9    2.0000E+02
      1     16     10       1       10    2.0000E+02
      1     16     11       1       11    2.0000E+02
      1     16     12       1       12    2.0000E+02
      1     15     13       1       13    2.0000E+02
      1     14     14       1       14    2.0000E+02
      1     13     15       1       15    2.0000E+02
      1     12     16       1       16    2.0000E+02
      1     12     17       1       17    2.0000E+02
      1     12     18       1       18    2.0000E+02
      1     12     19       1       19    2.0000E+02
      1     13     20       1       20    2.0000E+02
      1     14     21       1       21    2.0000E+02
      1     14     22       1       22    2.0000E+02
      1      9     30       2        1    2.0000E+02
      1      9     29       2        2    2.0000E+02
      1      9     28       2        3    2.0000E+02
      1      9     27       2        4    2.0000E+02
      1     10     26       2        5    2.0000E+02
      1     11     25       2        6    2.0000E+02
      1     12     24       2        7    2.0000E+02
      1     13     23       2        8    2.0000E+02
      1     14     22       2        9    2.0000E+02
      1     14     22       3        1    2.0000E+02
      1     15     23       3        2    2.0000E+02
      1     15     24       3        3    2.0000E+02
      1     15     25       3        4    2.0000E+02
      1     15     26       3        5    2.0000E+02
      1     16     27       3        6    2.0000E+02
      1     17     28       3        7    2.0000E+02
      1     18     29       3        8    2.0000E+02
      1     18     30       3        9    2.0000E+02




 PCG -- CONJUGATE-GRADIENT SOLUTION PACKAGE, VERSION 7, 5/2/2005
 MAXIMUM OF    500 CALLS OF SOLUTION ROUTINE
 MAXIMUM OF      5 INTERNAL ITERATIONS PER CALL TO SOLUTION ROUTINE
 MATRIX PRECONDITIONING TYPE :    1



                                    SOLUTION BY THE CONJUGATE-GRADIENT METHOD
                                   -------------------------------------------
                    MAXIMUM NUMBER OF CALLS TO PCG ROUTINE =      500
                        MAXIMUM ITERATIONS PER CALL TO PCG =        5
                               MATRIX PRECONDITIONING TYPE =        1
        RELAXATION FACTOR (ONLY USED WITH PRECOND. TYPE 1) =    0.10000E+01
 PARAMETER OF POLYNOMIAL PRECOND. = 2 (2) OR IS CALCULATED :        0
                         HEAD CHANGE CRITERION FOR CLOSURE =    0.10000E-05
                     RESIDUAL CHANGE CRITERION FOR CLOSURE =    0.10000E+01
            PCG HEAD AND RESIDUAL CHANGE PRINTOUT INTERVAL =        1
     PRINTING FROM SOLVER IS LIMITED(1) OR SUPPRESSED (>1) =        1
                            STEADY-STATE DAMPING PARAMETER =    0.10000E+01
                               TRANSIENT DAMPING PARAMETER =    0.10000E+01
1
                            STRESS PERIOD NO.    1, LENGTH =   92.00000    
                            -----------------------------------------------

                              NUMBER OF TIME STEPS =     1

                               MULTIPLIER FOR DELT =     1.500

                            INITIAL TIME STEP SIZE =   92.00000    

 WELL NO.  LAYER   ROW   COL   STRESS RATE         
 --------------------------------------------------
      1      1     19     29     -0.1190E+05
      2      1     13     22     -0.1207E+05
      3      1     11     24     -0.1558E+05
      4      1     17     29     -0.1500E+05

      4 WELLS

                 RECHARGE =  5.000000E-04



 CLASSIFICATION & COUNT OF STREAM SEGMENTS BASED ON SOURCE OF INFLOW:

                HEADWATER     DIVERSION     RECEIVES TRIBUTARY FLOW
                ---------     ---------     -----------------------
                     2              0               1



                    INPUT DATA FOR EACH STREAM SEGMENT
 ---------------------------------------------------------------------------------------------

 SEGMENT    SEG.     INFLOW   OVERLAND   STREAM    STREAM   ICALC  OUTFLOW  DIVERSION PRIORITY
    NO.    LENGTH     RATE     RUNOFF      ET       PPT.    METH.  TO SEG.  FROM SEG.    NO.

      1  4.400E+03 1.000E+05 0.000E+00 0.000E+00 0.000E+00    1        3        0        0
      2  1.800E+03 5.000E+04 0.000E+00 0.000E+00 0.000E+00    1        3        0        0
      3  1.800E+03 0.000E+00 0.000E+00 0.000E+00 0.000E+00    1        0        0        0


         STREAMBED PROPERTIES AND STREAM DIMENSIONS

 SEGMENT     BED HYD. COND.      BED THICKNESS     ELEV.-TOP OF BED     WIDTH OF STREAM     DEPTH OF STREAM    STREAM ROUGHNESS
    No.     UPPER     LOWER     UPPER     LOWER     UPPER     LOWER     UPPER     LOWER     UPPER     LOWER   CHANNEL      BANK

     1  5.000E+00 5.000E+00 1.000E+00 1.000E+00 4.850E+01 3.800E+01 2.000E+01 2.000E+01                     5.000E-02
     2  5.000E+00 5.000E+00 1.000E+00 1.000E+00 4.025E+01 3.800E+01 2.000E+01 2.000E+01                     5.000E-02
     3  5.000E+00 5.000E+00 1.000E+00 1.000E+00 3.800E+01 3.000E+01 2.000E+01 2.000E+01                     5.000E-02



 
 SOLVING FOR HEAD 


     9 CALLS TO PCG ROUTINE FOR TIME STEP   1 IN STRESS PERIOD    1
    36 TOTAL ITERATIONS

 OUTPUT CONTROL FOR STRESS PERIOD    1   TIME STEP    1
    SAVE BUDGET
    SAVE HEAD FOR ALL LAYERS
    PRINT HEAD FOR ALL LAYERS
 UBDSV2 SAVING "STREAMFLOW OUT  " ON UNIT  50 AT TIME STEP  1, STRESS PERIOD   1



 STREAM LISTING     PERIOD      1   STEP        1

 LAYER ROW COL. STREAM  RCH.  FLOW INTO     FLOW TO   FLOW OUT OF   OVRLND.     DIRECT     STREAM       STREAM     STREAM     STREAM   STREAMBED  STREAMBED
                SEG.NO.  NO.  STRM. RCH.    AQUIFER    STRM. RCH.    RUNOFF     PRECIP       ET          HEAD       DEPTH      WIDTH   CONDCTNC.   GRADIENT

   1   13    1     1     1    1.0000E+05 -6.1242E+03   1.0612E+05  0.000E+00  0.000E+00  0.000E+00  4.84087E+01  1.473E-01  2.000E+01  2.000E+04 -3.062E-01
   1   13    2     1     2    1.0612E+05 -7.5939E+03   1.1372E+05  0.000E+00  0.000E+00  0.000E+00  4.79372E+01  1.531E-01  2.000E+01  2.000E+04 -3.797E-01
   1   14    3     1     3    1.1372E+05 -2.1992E+03   1.1592E+05  0.000E+00  0.000E+00  0.000E+00  4.74640E+01  1.572E-01  2.000E+01  2.000E+04 -1.100E-01
   1   15    4     1     4    1.1592E+05 -2.2705E+03   1.1819E+05  0.000E+00  0.000E+00  0.000E+00  4.69885E+01  1.590E-01  2.000E+01  2.000E+04 -1.135E-01
   1   16    5     1     5    1.1819E+05 -7.1867E+03   1.2537E+05  0.000E+00  0.000E+00  0.000E+00  4.65151E+01  1.628E-01  2.000E+01  2.000E+04 -3.593E-01
   1   16    6     1     6    1.2537E+05 -4.3050E+03   1.2968E+05  0.000E+00  0.000E+00  0.000E+00  4.60424E+01  1.674E-01  2.000E+01  2.000E+04 -2.152E-01
   1   16    7     1     7    1.2968E+05 -4.1402E+03   1.3382E+05  0.000E+00  0.000E+00  0.000E+00  4.55684E+01  1.707E-01  2.000E+01  2.000E+04 -2.070E-01
   1   16    8     1     8    1.3382E+05 -4.0999E+03   1.3792E+05  0.000E+00  0.000E+00  0.000E+00  4.50943E+01  1.739E-01  2.000E+01  2.000E+04 -2.050E-01
   1   16    9     1     9    1.3792E+05 -4.0901E+03   1.4201E+05  0.000E+00  0.000E+00  0.000E+00  4.46202E+01  1.770E-01  2.000E+01  2.000E+04 -2.045E-01
   1   16   10     1    10    1.4201E+05 -4.0885E+03   1.4610E+05  0.000E+00  0.000E+00  0.000E+00  4.41460E+01  1.801E-01  2.000E+01  2.000E+04 -2.044E-01
   1   16   11     1    11    1.4610E+05 -4.1257E+03   1.5022E+05  0.000E+00  0.000E+00  0.000E+00  4.36718E+01  1.831E-01  2.000E+01  2.000E+04 -2.063E-01
   1   16   12     1    12    1.5022E+05 -7.0162E+03   1.5724E+05  0.000E+00  0.000E+00  0.000E+00  4.31986E+01  1.872E-01  2.000E+01  2.000E+04 -3.508E-01
   1   15   13     1    13    1.5724E+05 -7.3402E+03   1.6458E+05  0.000E+00  0.000E+00  0.000E+00  4.27265E+01  1.924E-01  2.000E+01  2.000E+04 -3.670E-01
   1   14   14     1    14    1.6458E+05 -7.8415E+03   1.7242E+05  0.000E+00  0.000E+00  0.000E+00  4.22546E+01  1.978E-01  2.000E+01  2.000E+04 -3.921E-01
   1   13   15     1    15    1.7242E+05 -8.1863E+03   1.8061E+05  0.000E+00  0.000E+00  0.000E+00  4.17830E+01  2.034E-01  2.000E+01  2.000E+04 -4.093E-01
   1   12   16     1    16    1.8061E+05 -8.8193E+03   1.8943E+05  0.000E+00  0.000E+00  0.000E+00  4.13115E+01  2.092E-01  2.000E+01  2.000E+04 -4.410E-01
   1   12   17     1    17    1.8943E+05 -6.2331E+03   1.9566E+05  0.000E+00  0.000E+00  0.000E+00  4.08393E+01  2.143E-01  2.000E+01  2.000E+04 -3.117E-01
   1   12   18     1    18    1.9566E+05 -5.9953E+03   2.0166E+05  0.000E+00  0.000E+00  0.000E+00  4.03661E+01  2.184E-01  2.000E+01  2.000E+04 -2.998E-01
   1   12   19     1    19    2.0166E+05 -6.9572E+03   2.0861E+05  0.000E+00  0.000E+00  0.000E+00  3.98931E+01  2.226E-01  2.000E+01  2.000E+04 -3.479E-01
   1   13   20     1    20    2.0861E+05 -4.8305E+03   2.1344E+05  0.000E+00  0.000E+00  0.000E+00  3.94196E+01  2.264E-01  2.000E+01  2.000E+04 -2.415E-01
   1   14   21     1    21    2.1344E+05 -4.8514E+03   2.1830E+05  0.000E+00  0.000E+00  0.000E+00  3.89454E+01  2.295E-01  2.000E+01  2.000E+04 -2.426E-01
   1   14   22     1    22    2.1830E+05  5.4420E+03   2.1285E+05  0.000E+00  0.000E+00  0.000E+00  3.84680E+01  2.293E-01  2.000E+01  2.000E+04  2.721E-01
   1    9   30     2     1    5.0000E+04 -4.6733E+03   5.4673E+04  0.000E+00  0.000E+00  0.000E+00  4.02441E+01  1.191E-01  2.000E+01  2.000E+04 -2.337E-01
   1    9   29     2     2    5.4673E+04 -4.9709E+03   5.9644E+04  0.000E+00  0.000E+00  0.000E+00  4.00006E+01  1.256E-01  2.000E+01  2.000E+04 -2.485E-01
   1    9   28     2     3    5.9644E+04 -5.2496E+03   6.4894E+04  0.000E+00  0.000E+00  0.000E+00  3.97572E+01  1.322E-01  2.000E+01  2.000E+04 -2.625E-01
   1    9   27     2     4    6.4894E+04 -7.8724E+03   7.2766E+04  0.000E+00  0.000E+00  0.000E+00  3.95154E+01  1.404E-01  2.000E+01  2.000E+04 -3.936E-01
   1   10   26     2     5    7.2766E+04 -6.2397E+03   7.9006E+04  0.000E+00  0.000E+00  0.000E+00  3.92738E+01  1.488E-01  2.000E+01  2.000E+04 -3.120E-01
   1   11   25     2     6    7.9006E+04 -1.2153E+03   8.0221E+04  0.000E+00  0.000E+00  0.000E+00  3.90282E+01  1.532E-01  2.000E+01  2.000E+04 -6.077E-02
   1   12   24     2     7    8.0221E+04  7.3320E+01   8.0148E+04  0.000E+00  0.000E+00  0.000E+00  3.87788E+01  1.538E-01  2.000E+01  2.000E+04  3.666E-03
   1   13   23     2     8    8.0148E+04 -4.5365E+02   8.0601E+04  0.000E+00  0.000E+00  0.000E+00  3.85290E+01  1.540E-01  2.000E+01  2.000E+04 -2.268E-02
   1   14   22     2     9    8.0601E+04  1.6495E+03   7.8952E+04  0.000E+00  0.000E+00  0.000E+00  3.82784E+01  1.534E-01  2.000E+01  2.000E+04  8.248E-02
   1   14   22     3     1    2.9180E+05 -8.2036E+03   3.0001E+05  0.000E+00  0.000E+00  0.000E+00  3.77857E+01  2.301E-01  2.000E+01  2.000E+04 -4.102E-01
   1   15   23     3     2    3.0001E+05 -1.9738E+03   3.0198E+05  0.000E+00  0.000E+00  0.000E+00  3.68992E+01  2.325E-01  2.000E+01  2.000E+04 -9.869E-02
   1   15   24     3     3    3.0198E+05 -1.5207E+03   3.0350E+05  0.000E+00  0.000E+00  0.000E+00  3.60111E+01  2.333E-01  2.000E+01  2.000E+04 -7.603E-02
   1   15   25     3     4    3.0350E+05 -1.5656E+03   3.0507E+05  0.000E+00  0.000E+00  0.000E+00  3.51229E+01  2.340E-01  2.000E+01  2.000E+04 -7.828E-02
   1   15   26     3     5    3.0507E+05 -1.8099E+03   3.0688E+05  0.000E+00  0.000E+00  0.000E+00  3.42348E+01  2.348E-01  2.000E+01  2.000E+04 -9.049E-02
   1   16   27     3     6    3.0688E+05 -1.8777E+03   3.0876E+05  0.000E+00  0.000E+00  0.000E+00  3.33468E+01  2.357E-01  2.000E+01  2.000E+04 -9.388E-02
   1   17   28     3     7    3.0876E+05  6.3484E+01   3.0869E+05  0.000E+00  0.000E+00  0.000E+00  3.24583E+01  2.361E-01  2.000E+01  2.000E+04  3.174E-03
   1   18   29     3     8    3.0869E+05  2.0766E+03   3.0662E+05  0.000E+00  0.000E+00  0.000E+00  3.15689E+01  2.356E-01  2.000E+01  2.000E+04  1.038E-01
   1   18   30     3     9    3.0662E+05 -2.4343E+03   3.0905E+05  0.000E+00  0.000E+00  0.000E+00  3.06801E+01  2.357E-01  2.000E+01  2.000E+04 -1.217E-01



1
              HEAD IN LAYER   1 AT END OF TIME STEP   1 IN STRESS PERIOD    1
  ---------------------------------------------------------------------------

          1      2      3      4      5      6      7      8      9     10
         11     12     13     14     15     16     17     18     19     20
         21     22     23     24     25     26     27     28     29     30
 .........................................................................
   1  ****** ****** ****** ****** ****** ****** ****** ****** ****** ******
      ****** ****** ****** ****** ****** ****** ****** ****** ****** ******
      ****** ****** ****** ****** ****** ****** ****** ****** ****** ******
   2  ****** ****** ****** ****** ****** ****** ****** ****** ****** ******
      ****** ****** ****** ****** ****** ****** ****** ****** ****** ******
      ****** ****** ****** ****** ****** ****** ****** ****** ****** ******
   3  ****** ****** ****** ****** ****** ****** ****** ****** ****** ******
      ****** ****** ****** ****** ****** ****** ****** ****** ****** ******
      ****** ****** ****** ****** ****** ****** ****** ****** ****** ******
   4  ****** ****** ****** ****** ****** ****** ****** ****** ****** ******
      ****** ****** ****** ****** ****** ****** ****** ****** ****** ******
      ****** ****** ****** ****** ****** ****** ****** ****** ****** ******
   5  ****** ****** ****** ****** ****** ****** ****** ****** ****** ******
      ****** ****** ****** ****** ****** ****** ****** ****** ****** ******
      ****** ****** ****** ****** ****** ****** ****** ****** ****** ******
   6  ****** ****** ****** ****** ****** ****** ****** ****** ****** ******
      ****** ****** ****** ****** ****** ****** ****** ****** ****** ******
      ****** ****** ****** ****** ****** ****** ****** ****** ****** ******
   7  ****** ****** ****** ****** ****** ****** ****** ****** ****** ******
      ****** ****** ****** ****** ****** ****** ****** ****** ****** ******
      ****** ****** ****** ****** ****** ****** ****** ****** ****** ******
   8  ****** ****** ****** ****** ****** ****** ****** ****** ****** ******
      ****** ****** ****** ****** ****** ****** ****** ****** ****** ******
      ****** ****** ****** ****** ****** ****** ****** ****** ****** ******
   9  ****** ****** ****** ****** ****** ****** ****** ****** ****** ******
      ****** ****** ****** ****** ****** ****** ****** ****** ****** ******
      ****** ****** ****** ****** ****** ****** ****** ****** ****** ******
  10  ****** ****** ****** ****** ****** ****** ****** ****** ****** ******
      ****** ****** ****** ****** ****** ****** ****** ****** ****** ******
      ****** ****** ****** ****** ****** ****** ****** ****** ****** ******
  11  ****** ****** ****** ****** ****** ****** ****** ****** ****** ******
      ****** ****** ****** ****** ****** ****** ****** ****** ****** ******
      ****** ****** ****** ****** ****** ****** ****** ****** ****** ******
  12  ****** ****** ****** ****** ****** ****** ****** ****** ****** ******
      ****** ****** ****** ****** ****** ****** ****** ****** ****** ******
      ****** ****** ****** ****** ****** ****** ****** ****** ****** ******
  13  ****** ****** ****** ****** ****** ****** ****** ****** ****** ******
      ****** ****** ****** ****** ****** ****** ****** ****** ****** ******
      ****** ****** ****** ****** ****** ****** ****** ****** ****** ******
  14  ****** ****** ****** ****** ****** ****** ****** ****** ****** ******
      ****** ****** ****** ****** ****** ****** ****** ****** ****** ******
      ****** ****** ****** ****** ****** ****** ****** ****** ****** ******
  15  ****** ****** ****** ****** ****** ****** ****** ****** ****** ******
      ****** ****** ****** ****** ****** ****** ****** ****** ****** ******
      ****** ****** ****** ****** ****** ****** ****** ****** ****** ******
  16  ****** ****** ****** ****** ****** ****** ****** ****** ****** ******
      ****** ****** ****** ****** ****** ****** ****** ****** ****** ******
      ****** ****** ****** ****** ****** ****** ****** ****** ****** ******
  17  ****** ****** ****** ****** ****** ****** ****** ****** ****** ******
      ****** ****** ****** ****** ****** ****** ****** ****** ****** ******
      ****** ****** ****** ****** ****** ****** ****** ****** ****** ******
  18  ****** ****** ****** ****** ****** ****** ****** ****** ****** ******
      ****** ****** ****** ****** ****** ****** ****** ****** ****** ******
      ****** ****** ****** ****** ****** ****** ****** ****** ****** ******
  19  ****** ****** ****** ****** ****** ****** ****** ****** ****** ******
      ****** ****** ****** ****** ****** ****** ****** ****** ****** ******
      ****** ****** ****** ****** ****** ****** ****** ****** ****** ******
  20  ****** ****** ****** ****** ****** ****** ****** ****** ****** ******
      ****** ****** ****** ****** ****** ****** ****** ****** ****** ******
      ****** ****** ****** ****** ****** ****** ****** ****** ****** ******
  21  ****** ****** ****** ****** ****** ****** ****** ****** ****** ******
      ****** ****** ****** ****** ****** ****** ****** ****** ****** ******
      ****** ****** ****** ****** ****** ****** ****** ****** ****** ******
  22  ****** ****** ****** ****** ****** ****** ****** ****** ****** ******
      ****** ****** ****** ****** ****** ****** ****** ****** ****** ******
      ****** ****** ****** ****** ****** ****** ****** ****** ****** ******
  23  ****** ****** ****** ****** ****** ****** ****** ****** ****** ******
      ****** ****** ****** ****** ****** ****** ****** ****** ****** ******
      ****** ****** ****** ****** ****** ****** ****** ****** ****** ******
  24  ****** ****** ****** ****** ****** ****** ****** ****** ****** ******
      ****** ****** ****** ****** ****** ****** ****** ****** ****** ******
      ****** ****** ****** ****** ****** ****** ****** ****** ****** ******
  25  ****** ****** ****** ****** ****** ****** ****** ****** ****** ******
      ****** ****** ****** ****** ****** ****** ****** ****** ****** ******
      ****** ****** ****** ****** ****** ****** ****** ****** ****** ******

 HEAD WILL BE SAVED ON UNIT   51 AT END OF TIME STEP    1, STRESS PERIOD    1
1
  VOLUMETRIC BUDGET FOR ENTIRE MODEL AT END OF TIME STEP    1, STRESS PERIOD   1
  ------------------------------------------------------------------------------

     CUMULATIVE VOLUMES      L**3       RATES FOR THIS TIME STEP      L**3/T
     ------------------                 ------------------------

           IN:                                      IN:
           ---                                      ---
             STORAGE =    17262039.9218               STORAGE =      187630.8687
       CONSTANT HEAD =     1119600.9078         CONSTANT HEAD =       12169.5751
               WELLS =           0.0000                 WELLS =           0.0000
            RECHARGE =     1269600.0000              RECHARGE =       13800.0000
      STREAM LEAKAGE =      856048.6298        STREAM LEAKAGE =        9304.8764

            TOTAL IN =    20507289.4594              TOTAL IN =      222905.3202

          OUT:                                     OUT:
          ----                                     ----
             STORAGE =           0.0000               STORAGE =           0.0000
       CONSTANT HEAD =           0.0000         CONSTANT HEAD =           0.0000
               WELLS =     5018598.3111                 WELLS =       54549.9816
            RECHARGE =           0.0000              RECHARGE =           0.0000
      STREAM LEAKAGE =    15488691.4385        STREAM LEAKAGE =      168355.3417

           TOTAL OUT =    20507289.7496             TOTAL OUT =      222905.3234

            IN - OUT =          -0.2902              IN - OUT =      -3.1542E-03

 PERCENT DISCREPANCY =          -0.00     PERCENT DISCREPANCY =          -0.00






         TIME SUMMARY AT END OF TIME STEP    1 IN STRESS PERIOD    1
                    SECONDS     MINUTES      HOURS       DAYS        YEARS
                    -----------------------------------------------------------
   TIME STEP LENGTH 7.94880E+06 1.32480E+05  2208.0      92.000     0.25188    
 STRESS PERIOD TIME 7.94880E+06 1.32480E+05  2208.0      92.000     0.25188    
         TOTAL TIME 7.94880E+06 1.32480E+05  2208.0      92.000     0.25188    
1
1
                            STRESS PERIOD NO.    2, LENGTH =   91.00000    
                            -----------------------------------------------

                              NUMBER OF TIME STEPS =     1

                               MULTIPLIER FOR DELT =     1.500

                            INITIAL TIME STEP SIZE =   91.00000    

 WELL NO.  LAYER   ROW   COL   STRESS RATE         
 --------------------------------------------------
      1      1     19     29     -0.1190E+05
      2      1     13     22     -0.1207E+05
      3      1     11     24     -0.1558E+05
      4      1     17     29     -0.1500E+05

      4 WELLS

                 RECHARGE =  2.000000E-03

 REUSING STREAM SEGMENT DATA FROM LAST STRESS PERIOD
 
 SOLVING FOR HEAD 


     7 CALLS TO PCG ROUTINE FOR TIME STEP   1 IN STRESS PERIOD    2
    27 TOTAL ITERATIONS

 OUTPUT CONTROL FOR STRESS PERIOD    2   TIME STEP    1
    SAVE BUDGET
    SAVE HEAD FOR ALL LAYERS
    PRINT HEAD FOR ALL LAYERS
 UBDSV2 SAVING "STREAMFLOW OUT  " ON UNIT  50 AT TIME STEP  1, STRESS PERIOD   2



 STREAM LISTING     PERIOD      2   STEP        1

 LAYER ROW COL. STREAM  RCH.  FLOW INTO     FLOW TO   FLOW OUT OF   OVRLND.     DIRECT     STREAM       STREAM     STREAM     STREAM   STREAMBED  STREAMBED
                SEG.NO.  NO.  STRM. RCH.    AQUIFER    STRM. RCH.    RUNOFF     PRECIP       ET          HEAD       DEPTH      WIDTH   CONDCTNC.   GRADIENT

   1   13    1     1     1    1.0000E+05 -4.0149E+03   1.0401E+05  0.000E+00  0.000E+00  0.000E+00  4.84078E+01  1.464E-01  2.000E+01  2.000E+04 -2.007E-01
   1   13    2     1     2    1.0401E+05 -5.2774E+03   1.0929E+05  0.000E+00  0.000E+00  0.000E+00  4.79344E+01  1.504E-01  2.000E+01  2.000E+04 -2.639E-01
   1   14    3     1     3    1.0929E+05 -1.1171E+03   1.1041E+05  0.000E+00  0.000E+00  0.000E+00  4.74599E+01  1.530E-01  2.000E+01  2.000E+04 -5.585E-02
   1   15    4     1     4    1.1041E+05 -1.1450E+03   1.1155E+05  0.000E+00  0.000E+00  0.000E+00  4.69835E+01  1.540E-01  2.000E+01  2.000E+04 -5.725E-02
   1   16    5     1     5    1.1155E+05 -4.2590E+03   1.1581E+05  0.000E+00  0.000E+00  0.000E+00  4.65085E+01  1.562E-01  2.000E+01  2.000E+04 -2.130E-01
   1   16    6     1     6    1.1581E+05 -2.5117E+03   1.1833E+05  0.000E+00  0.000E+00  0.000E+00  4.60340E+01  1.590E-01  2.000E+01  2.000E+04 -1.256E-01
   1   16    7     1     7    1.1833E+05 -2.4183E+03   1.2074E+05  0.000E+00  0.000E+00  0.000E+00  4.55587E+01  1.610E-01  2.000E+01  2.000E+04 -1.209E-01
   1   16    8     1     8    1.2074E+05 -2.3903E+03   1.2313E+05  0.000E+00  0.000E+00  0.000E+00  4.50834E+01  1.629E-01  2.000E+01  2.000E+04 -1.195E-01
   1   16    9     1     9    1.2313E+05 -2.3711E+03   1.2550E+05  0.000E+00  0.000E+00  0.000E+00  4.46080E+01  1.648E-01  2.000E+01  2.000E+04 -1.186E-01
   1   16   10     1    10    1.2550E+05 -2.3487E+03   1.2785E+05  0.000E+00  0.000E+00  0.000E+00  4.41326E+01  1.667E-01  2.000E+01  2.000E+04 -1.174E-01
   1   16   11     1    11    1.2785E+05 -2.3575E+03   1.3021E+05  0.000E+00  0.000E+00  0.000E+00  4.36572E+01  1.686E-01  2.000E+01  2.000E+04 -1.179E-01
   1   16   12     1    12    1.3021E+05 -4.1542E+03   1.3437E+05  0.000E+00  0.000E+00  0.000E+00  4.31825E+01  1.711E-01  2.000E+01  2.000E+04 -2.077E-01
   1   15   13     1    13    1.3437E+05 -4.1425E+03   1.3851E+05  0.000E+00  0.000E+00  0.000E+00  4.27084E+01  1.743E-01  2.000E+01  2.000E+04 -2.071E-01
   1   14   14     1    14    1.3851E+05 -4.5356E+03   1.4304E+05  0.000E+00  0.000E+00  0.000E+00  4.22344E+01  1.776E-01  2.000E+01  2.000E+04 -2.268E-01
   1   13   15     1    15    1.4304E+05 -4.8926E+03   1.4794E+05  0.000E+00  0.000E+00  0.000E+00  4.17607E+01  1.811E-01  2.000E+01  2.000E+04 -2.446E-01
   1   12   16     1    16    1.4794E+05 -5.7204E+03   1.5366E+05  0.000E+00  0.000E+00  0.000E+00  4.12874E+01  1.851E-01  2.000E+01  2.000E+04 -2.860E-01
   1   12   17     1    17    1.5366E+05 -3.7574E+03   1.5741E+05  0.000E+00  0.000E+00  0.000E+00  4.08135E+01  1.885E-01  2.000E+01  2.000E+04 -1.879E-01
   1   12   18     1    18    1.5741E+05 -3.4964E+03   1.6091E+05  0.000E+00  0.000E+00  0.000E+00  4.03389E+01  1.912E-01  2.000E+01  2.000E+04 -1.748E-01
   1   12   19     1    19    1.6091E+05 -3.7611E+03   1.6467E+05  0.000E+00  0.000E+00  0.000E+00  3.98642E+01  1.938E-01  2.000E+01  2.000E+04 -1.881E-01
   1   13   20     1    20    1.6467E+05 -1.6009E+03   1.6627E+05  0.000E+00  0.000E+00  0.000E+00  3.93889E+01  1.957E-01  2.000E+01  2.000E+04 -8.005E-02
   1   14   21     1    21    1.6627E+05 -2.0522E+03   1.6832E+05  0.000E+00  0.000E+00  0.000E+00  3.89129E+01  1.970E-01  2.000E+01  2.000E+04 -1.026E-01
   1   14   22     1    22    1.6832E+05  6.2779E+03   1.6205E+05  0.000E+00  0.000E+00  0.000E+00  3.84341E+01  1.955E-01  2.000E+01  2.000E+04  3.139E-01
   1    9   30     2     1    5.0000E+04 -1.8867E+03   5.1887E+04  0.000E+00  0.000E+00  0.000E+00  4.02422E+01  1.172E-01  2.000E+01  2.000E+04 -9.433E-02
   1    9   29     2     2    5.1887E+04 -2.2004E+03   5.4087E+04  0.000E+00  0.000E+00  0.000E+00  3.99950E+01  1.200E-01  2.000E+01  2.000E+04 -1.100E-01
   1    9   28     2     3    5.4087E+04 -2.5001E+03   5.6587E+04  0.000E+00  0.000E+00  0.000E+00  3.97481E+01  1.231E-01  2.000E+01  2.000E+04 -1.250E-01
   1    9   27     2     4    5.6587E+04 -4.3203E+03   6.0907E+04  0.000E+00  0.000E+00  0.000E+00  3.95026E+01  1.276E-01  2.000E+01  2.000E+04 -2.160E-01
   1   10   26     2     5    6.0907E+04 -2.4871E+03   6.3395E+04  0.000E+00  0.000E+00  0.000E+00  3.92570E+01  1.320E-01  2.000E+01  2.000E+04 -1.244E-01
   1   11   25     2     6    6.3395E+04  2.4743E+03   6.0920E+04  0.000E+00  0.000E+00  0.000E+00  3.90070E+01  1.320E-01  2.000E+01  2.000E+04  1.237E-01
   1   12   24     2     7    6.0920E+04  3.4456E+03   5.7475E+04  0.000E+00  0.000E+00  0.000E+00  3.87532E+01  1.282E-01  2.000E+01  2.000E+04  1.723E-01
   1   13   23     2     8    5.7475E+04  6.4255E+02   5.6832E+04  0.000E+00  0.000E+00  0.000E+00  3.85005E+01  1.255E-01  2.000E+01  2.000E+04  3.213E-02
   1   14   22     2     9    5.6832E+04  2.5639E+03   5.4268E+04  0.000E+00  0.000E+00  0.000E+00  3.82484E+01  1.234E-01  2.000E+01  2.000E+04  1.282E-01
   1   14   22     3     1    2.1631E+05 -7.4401E+03   2.2375E+05  0.000E+00  0.000E+00  0.000E+00  3.77482E+01  1.927E-01  2.000E+01  2.000E+04 -3.720E-01
   1   15   23     3     2    2.2375E+05 -1.0286E+03   2.2478E+05  0.000E+00  0.000E+00  0.000E+00  3.68615E+01  1.949E-01  2.000E+01  2.000E+04 -5.143E-02
   1   15   24     3     3    2.2478E+05 -6.4718E+02   2.2543E+05  0.000E+00  0.000E+00  0.000E+00  3.59731E+01  1.953E-01  2.000E+01  2.000E+04 -3.236E-02
   1   15   25     3     4    2.2543E+05 -6.4550E+02   2.2608E+05  0.000E+00  0.000E+00  0.000E+00  3.50845E+01  1.957E-01  2.000E+01  2.000E+04 -3.227E-02
   1   15   26     3     5    2.2608E+05 -6.6813E+02   2.2674E+05  0.000E+00  0.000E+00  0.000E+00  3.41960E+01  1.960E-01  2.000E+01  2.000E+04 -3.341E-02
   1   16   27     3     6    2.2674E+05 -5.4812E+02   2.2729E+05  0.000E+00  0.000E+00  0.000E+00  3.33074E+01  1.963E-01  2.000E+01  2.000E+04 -2.741E-02
   1   17   28     3     7    2.2729E+05  3.8655E+03   2.2343E+05  0.000E+00  0.000E+00  0.000E+00  3.24177E+01  1.954E-01  2.000E+01  2.000E+04  1.933E-01
   1   18   29     3     8    2.2343E+05  5.6711E+03   2.1776E+05  0.000E+00  0.000E+00  0.000E+00  3.15263E+01  1.930E-01  2.000E+01  2.000E+04  2.836E-01
   1   18   30     3     9    2.1776E+05  5.5030E+02   2.1721E+05  0.000E+00  0.000E+00  0.000E+00  3.06358E+01  1.913E-01  2.000E+01  2.000E+04  2.752E-02



1
              HEAD IN LAYER   1 AT END OF TIME STEP   1 IN STRESS PERIOD    2
  ---------------------------------------------------------------------------

          1      2      3      4      5      6      7      8      9     10
         11     12     13     14     15     16     17     18     19     20
         21     22     23     24     25     26     27     28     29     30
 .........................................................................
   1  ****** ****** ****** ****** ****** ****** ****** ****** ****** ******
      ****** ****** ****** ****** ****** ****** ****** ****** ****** ******
      ****** ****** ****** ****** ****** ****** ****** ****** ****** ******
   2  ****** ****** ****** ****** ****** ****** ****** ****** ****** ******
      ****** ****** ****** ****** ****** ****** ****** ****** ****** ******
      ****** ****** ****** ****** ****** ****** ****** ****** ****** ******
   3  ****** ****** ****** ****** ****** ****** ****** ****** ****** ******
      ****** ****** ****** ****** ****** ****** ****** ****** ****** ******
      ****** ****** ****** ****** ****** ****** ****** ****** ****** ******
   4  ****** ****** ****** ****** ****** ****** ****** ****** ****** ******
      ****** ****** ****** ****** ****** ****** ****** ****** ****** ******
      ****** ****** ****** ****** ****** ****** ****** ****** ****** ******
   5  ****** ****** ****** ****** ****** ****** ****** ****** ****** ******
      ****** ****** ****** ****** ****** ****** ****** ****** ****** ******
      ****** ****** ****** ****** ****** ****** ****** ****** ****** ******
   6  ****** ****** ****** ****** ****** ****** ****** ****** ****** ******
      ****** ****** ****** ****** ****** ****** ****** ****** ****** ******
      ****** ****** ****** ****** ****** ****** ****** ****** ****** ******
   7  ****** ****** ****** ****** ****** ****** ****** ****** ****** ******
      ****** ****** ****** ****** ****** ****** ****** ****** ****** ******
      ****** ****** ****** ****** ****** ****** ****** ****** ****** ******
   8  ****** ****** ****** ****** ****** ****** ****** ****** ****** ******
      ****** ****** ****** ****** ****** ****** ****** ****** ****** ******
      ****** ****** ****** ****** ****** ****** ****** ****** ****** ******
   9  ****** ****** ****** ****** ****** ****** ****** ****** ****** ******
      ****** ****** ****** ****** ****** ****** ****** ****** ****** ******
      ****** ****** ****** ****** ****** ****** ****** ****** ****** ******
  10  ****** ****** ****** ****** ****** ****** ****** ****** ****** ******
      ****** ****** ****** ****** ****** ****** ****** ****** ****** ******
      ****** ****** ****** ****** ****** ****** ****** ****** ****** ******
  11  ****** ****** ****** ****** ****** ****** ****** ****** ****** ******
      ****** ****** ****** ****** ****** ****** ****** ****** ****** ******
      ****** ****** ****** ****** ****** ****** ****** ****** ****** ******
  12  ****** ****** ****** ****** ****** ****** ****** ****** ****** ******
      ****** ****** ****** ****** ****** ****** ****** ****** ****** ******
      ****** ****** ****** ****** ****** ****** ****** ****** ****** ******
  13  ****** ****** ****** ****** ****** ****** ****** ****** ****** ******
      ****** ****** ****** ****** ****** ****** ****** ****** ****** ******
      ****** ****** ****** ****** ****** ****** ****** ****** ****** ******
  14  ****** ****** ****** ****** ****** ****** ****** ****** ****** ******
      ****** ****** ****** ****** ****** ****** ****** ****** ****** ******
      ****** ****** ****** ****** ****** ****** ****** ****** ****** ******
  15  ****** ****** ****** ****** ****** ****** ****** ****** ****** ******
      ****** ****** ****** ****** ****** ****** ****** ****** ****** ******
      ****** ****** ****** ****** ****** ****** ****** ****** ****** ******
  16  ****** ****** ****** ****** ****** ****** ****** ****** ****** ******
      ****** ****** ****** ****** ****** ****** ****** ****** ****** ******
      ****** ****** ****** ****** ****** ****** ****** ****** ****** ******
  17  ****** ****** ****** ****** ****** ****** ****** ****** ****** ******
      ****** ****** ****** ****** ****** ****** ****** ****** ****** ******
      ****** ****** ****** ****** ****** ****** ****** ****** ****** ******
  18  ****** ****** ****** ****** ****** ****** ****** ****** ****** ******
      ****** ****** ****** ****** ****** ****** ****** ****** ****** ******
      ****** ****** ****** ****** ****** ****** ****** ****** ****** ******
  19  ****** ****** ****** ****** ****** ****** ****** ****** ****** ******
      ****** ****** ****** ****** ****** ****** ****** ****** ****** ******
      ****** ****** ****** ****** ****** ****** ****** ****** ****** ******
  20  ****** ****** ****** ****** ****** ****** ****** ****** ****** ******
      ****** ****** ****** ****** ****** ****** ****** ****** ****** ******
      ****** ****** ****** ****** ****** ****** ****** ****** ****** ******
  21  ****** ****** ****** ****** ****** ****** ****** ****** ****** ******
      ****** ****** ****** ****** ****** ****** ****** ****** ****** ******
      ****** ****** ****** ****** ****** ****** ****** ****** ****** ******
  22  ****** ****** ****** ****** ****** ****** ****** ****** ****** ******
      ****** ****** ****** ****** ****** ****** ****** ****** ****** ******
      ****** ****** ****** ****** ****** ****** ****** ****** ****** ******
  23  ****** ****** ****** ****** ****** ****** ****** ****** ****** ******
      ****** ****** ****** ****** ****** ****** ****** ****** ****** ******
      ****** ****** ****** ****** ****** ****** ****** ****** ****** ******
  24  ****** ****** ****** ****** ****** ****** ****** ****** ****** ******
      ****** ****** ****** ****** ****** ****** ****** ****** ****** ******
      ****** ****** ****** ****** ****** ****** ****** ****** ****** ******
  25  ****** ****** ****** ****** ****** ****** ****** ****** ****** ******
      ****** ****** ****** ****** ****** ****** ****** ****** ****** ******
      ****** ****** ****** ****** ****** ****** ****** ****** ****** ******

 HEAD WILL BE SAVED ON UNIT   51 AT END OF TIME STEP    1, STRESS PERIOD    2
1
  VOLUMETRIC BUDGET FOR ENTIRE MODEL AT END OF TIME STEP    1, STRESS PERIOD   2
  ------------------------------------------------------------------------------

     CUMULATIVE VOLUMES      L**3       RATES FOR THIS TIME STEP      L**3/T
     ------------------                 ------------------------

           IN:                                      IN:
           ---                                      ---
             STORAGE =    21834517.8440               STORAGE =       50247.0101
       CONSTANT HEAD =     2603652.6008         CONSTANT HEAD =       16308.2604
               WELLS =           0.0000                 WELLS =           0.0000
            RECHARGE =     6292800.0000              RECHARGE =       55200.0000
      STREAM LEAKAGE =     3175747.3849        STREAM LEAKAGE =       25491.1951

            TOTAL IN =    33906717.8298              TOTAL IN =      147246.4656

          OUT:                                     OUT:
          ----                                     ----
             STORAGE =           0.0000               STORAGE =           0.0000
       CONSTANT HEAD =           0.0000         CONSTANT HEAD =           0.0000
               WELLS =     9982646.6405                 WELLS =       54549.9816
            RECHARGE =           0.0000              RECHARGE =           0.0000
      STREAM LEAKAGE =    23924072.4032        STREAM LEAKAGE =       92696.4941

           TOTAL OUT =    33906719.0437             TOTAL OUT =      147246.4758

            IN - OUT =          -1.2139              IN - OUT =      -1.0151E-02

 PERCENT DISCREPANCY =          -0.00     PERCENT DISCREPANCY =          -0.00






         TIME SUMMARY AT END OF TIME STEP    1 IN STRESS PERIOD    2
                    SECONDS     MINUTES      HOURS       DAYS        YEARS
                    -----------------------------------------------------------
   TIME STEP LENGTH 7.86240E+06 1.31040E+05  2184.0      91.000     0.24914    
 STRESS PERIOD TIME 7.86240E+06 1.31040E+05  2184.0      91.000     0.24914    
         TOTAL TIME 1.58112E+07 2.63520E+05  4392.0      183.00     0.50103    
1
1
                            STRESS PERIOD NO.    3, LENGTH =   91.00000    
                            -----------------------------------------------

                              NUMBER OF TIME STEPS =     1

                               MULTIPLIER FOR DELT =     1.500

                            INITIAL TIME STEP SIZE =   91.00000    

 WELL NO.  LAYER   ROW   COL   STRESS RATE         
 --------------------------------------------------
      1      1     19     29     -0.1190E+05
      2      1     13     22     -0.1207E+05
      3      1     11     24     -0.1558E+05
      4      1     17     29     -0.1500E+05

      4 WELLS

                 RECHARGE =   0.00000    

 REUSING STREAM SEGMENT DATA FROM LAST STRESS PERIOD
 
 SOLVING FOR HEAD 


     7 CALLS TO PCG ROUTINE FOR TIME STEP   1 IN STRESS PERIOD    3
    27 TOTAL ITERATIONS

 OUTPUT CONTROL FOR STRESS PERIOD    3   TIME STEP    1
    SAVE BUDGET
    SAVE HEAD FOR ALL LAYERS
    PRINT HEAD FOR ALL LAYERS
 UBDSV2 SAVING "STREAMFLOW OUT  " ON UNIT  50 AT TIME STEP  1, STRESS PERIOD   3



 STREAM LISTING     PERIOD      3   STEP        1

 LAYER ROW COL. STREAM  RCH.  FLOW INTO     FLOW TO   FLOW OUT OF   OVRLND.     DIRECT     STREAM       STREAM     STREAM     STREAM   STREAMBED  STREAMBED
                SEG.NO.  NO.  STRM. RCH.    AQUIFER    STRM. RCH.    RUNOFF     PRECIP       ET          HEAD       DEPTH      WIDTH   CONDCTNC.   GRADIENT

   1   13    1     1     1    1.0000E+05 -2.7761E+03   1.0278E+05  0.000E+00  0.000E+00  0.000E+00  4.84072E+01  1.459E-01  2.000E+01  2.000E+04 -1.388E-01
   1   13    2     1     2    1.0278E+05 -3.8860E+03   1.0666E+05  0.000E+00  0.000E+00  0.000E+00  4.79328E+01  1.487E-01  2.000E+01  2.000E+04 -1.943E-01
   1   14    3     1     3    1.0666E+05 -6.5767E+02   1.0732E+05  0.000E+00  0.000E+00  0.000E+00  4.74575E+01  1.506E-01  2.000E+01  2.000E+04 -3.288E-02
   1   15    4     1     4    1.0732E+05 -6.4123E+02   1.0796E+05  0.000E+00  0.000E+00  0.000E+00  4.69807E+01  1.512E-01  2.000E+01  2.000E+04 -3.206E-02
   1   16    5     1     5    1.0796E+05 -2.4696E+03   1.1043E+05  0.000E+00  0.000E+00  0.000E+00  4.65048E+01  1.525E-01  2.000E+01  2.000E+04 -1.235E-01
   1   16    6     1     6    1.1043E+05 -1.5124E+03   1.1194E+05  0.000E+00  0.000E+00  0.000E+00  4.60292E+01  1.542E-01  2.000E+01  2.000E+04 -7.562E-02
   1   16    7     1     7    1.1194E+05 -1.4773E+03   1.1342E+05  0.000E+00  0.000E+00  0.000E+00  4.55531E+01  1.554E-01  2.000E+01  2.000E+04 -7.386E-02
   1   16    8     1     8    1.1342E+05 -1.4676E+03   1.1489E+05  0.000E+00  0.000E+00  0.000E+00  4.50771E+01  1.566E-01  2.000E+01  2.000E+04 -7.338E-02
   1   16    9     1     9    1.1489E+05 -1.4532E+03   1.1634E+05  0.000E+00  0.000E+00  0.000E+00  4.46010E+01  1.578E-01  2.000E+01  2.000E+04 -7.266E-02
   1   16   10     1    10    1.1634E+05 -1.4315E+03   1.1777E+05  0.000E+00  0.000E+00  0.000E+00  4.41249E+01  1.590E-01  2.000E+01  2.000E+04 -7.158E-02
   1   16   11     1    11    1.1777E+05 -1.4349E+03   1.1921E+05  0.000E+00  0.000E+00  0.000E+00  4.36488E+01  1.602E-01  2.000E+01  2.000E+04 -7.175E-02
   1   16   12     1    12    1.1921E+05 -2.5538E+03   1.2176E+05  0.000E+00  0.000E+00  0.000E+00  4.31731E+01  1.618E-01  2.000E+01  2.000E+04 -1.277E-01
   1   15   13     1    13    1.2176E+05 -2.5080E+03   1.2427E+05  0.000E+00  0.000E+00  0.000E+00  4.26979E+01  1.638E-01  2.000E+01  2.000E+04 -1.254E-01
   1   14   14     1    14    1.2427E+05 -2.8590E+03   1.2713E+05  0.000E+00  0.000E+00  0.000E+00  4.22227E+01  1.659E-01  2.000E+01  2.000E+04 -1.429E-01
   1   13   15     1    15    1.2713E+05 -3.2152E+03   1.3034E+05  0.000E+00  0.000E+00  0.000E+00  4.17479E+01  1.683E-01  2.000E+01  2.000E+04 -1.608E-01
   1   12   16     1    16    1.3034E+05 -3.9866E+03   1.3433E+05  0.000E+00  0.000E+00  0.000E+00  4.12734E+01  1.711E-01  2.000E+01  2.000E+04 -1.993E-01
   1   12   17     1    17    1.3433E+05 -2.4975E+03   1.3683E+05  0.000E+00  0.000E+00  0.000E+00  4.07986E+01  1.736E-01  2.000E+01  2.000E+04 -1.249E-01
   1   12   18     1    18    1.3683E+05 -2.2506E+03   1.3908E+05  0.000E+00  0.000E+00  0.000E+00  4.03232E+01  1.755E-01  2.000E+01  2.000E+04 -1.125E-01
   1   12   19     1    19    1.3908E+05 -2.1853E+03   1.4126E+05  0.000E+00  0.000E+00  0.000E+00  3.98476E+01  1.771E-01  2.000E+01  2.000E+04 -1.093E-01
   1   13   20     1    20    1.4126E+05 -1.5011E+02   1.4141E+05  0.000E+00  0.000E+00  0.000E+00  3.93712E+01  1.780E-01  2.000E+01  2.000E+04 -7.505E-03
   1   14   21     1    21    1.4141E+05 -5.7764E+02   1.4199E+05  0.000E+00  0.000E+00  0.000E+00  3.88942E+01  1.783E-01  2.000E+01  2.000E+04 -2.888E-02
   1   14   22     1    22    1.4199E+05  6.6506E+03   1.3534E+05  0.000E+00  0.000E+00  0.000E+00  3.84146E+01  1.760E-01  2.000E+01  2.000E+04  3.325E-01
   1    9   30     2     1    5.0000E+04 -6.7065E+02   5.0671E+04  0.000E+00  0.000E+00  0.000E+00  4.02413E+01  1.163E-01  2.000E+01  2.000E+04 -3.353E-02
   1    9   29     2     2    5.0671E+04 -9.8705E+02   5.1658E+04  0.000E+00  0.000E+00  0.000E+00  3.99925E+01  1.175E-01  2.000E+01  2.000E+04 -4.935E-02
   1    9   28     2     3    5.1658E+04 -1.2754E+03   5.2933E+04  0.000E+00  0.000E+00  0.000E+00  3.97440E+01  1.190E-01  2.000E+01  2.000E+04 -6.377E-02
   1    9   27     2     4    5.2933E+04 -2.5637E+03   5.5497E+04  0.000E+00  0.000E+00  0.000E+00  3.94966E+01  1.216E-01  2.000E+01  2.000E+04 -1.282E-01
   1   10   26     2     5    5.5497E+04 -8.3882E+02   5.6336E+04  0.000E+00  0.000E+00  0.000E+00  3.92489E+01  1.239E-01  2.000E+01  2.000E+04 -4.194E-02
   1   11   25     2     6    5.6336E+04  4.0126E+03   5.2323E+04  0.000E+00  0.000E+00  0.000E+00  3.89968E+01  1.218E-01  2.000E+01  2.000E+04  2.006E-01
   1   12   24     2     7    5.2323E+04  4.8201E+03   4.7503E+04  0.000E+00  0.000E+00  0.000E+00  3.87407E+01  1.157E-01  2.000E+01  2.000E+04  2.410E-01
   1   13   23     2     8    4.7503E+04  9.8153E+02   4.6521E+04  0.000E+00  0.000E+00  0.000E+00  3.84867E+01  1.117E-01  2.000E+01  2.000E+04  4.908E-02
   1   14   22     2     9    4.6521E+04  3.0334E+03   4.3488E+04  0.000E+00  0.000E+00  0.000E+00  3.82338E+01  1.088E-01  2.000E+01  2.000E+04  1.517E-01
   1   14   22     3     1    1.7883E+05 -7.0882E+03   1.8592E+05  0.000E+00  0.000E+00  0.000E+00  3.77277E+01  1.721E-01  2.000E+01  2.000E+04 -3.544E-01
   1   15   23     3     2    1.8592E+05 -6.3476E+02   1.8655E+05  0.000E+00  0.000E+00  0.000E+00  3.68410E+01  1.743E-01  2.000E+01  2.000E+04 -3.174E-02
   1   15   24     3     3    1.8655E+05 -3.2106E+02   1.8687E+05  0.000E+00  0.000E+00  0.000E+00  3.59524E+01  1.746E-01  2.000E+01  2.000E+04 -1.605E-02
   1   15   25     3     4    1.8687E+05 -3.0102E+02   1.8717E+05  0.000E+00  0.000E+00  0.000E+00  3.50636E+01  1.748E-01  2.000E+01  2.000E+04 -1.505E-02
   1   15   26     3     5    1.8717E+05 -2.5382E+02   1.8743E+05  0.000E+00  0.000E+00  0.000E+00  3.41749E+01  1.749E-01  2.000E+01  2.000E+04 -1.269E-02
   1   16   27     3     6    1.8743E+05 -6.5643E+01   1.8749E+05  0.000E+00  0.000E+00  0.000E+00  3.32861E+01  1.750E-01  2.000E+01  2.000E+04 -3.282E-03
   1   17   28     3     7    1.8749E+05  5.3687E+03   1.8212E+05  0.000E+00  0.000E+00  0.000E+00  3.23957E+01  1.735E-01  2.000E+01  2.000E+04  2.684E-01
   1   18   29     3     8    1.8212E+05  7.3294E+03   1.7480E+05  0.000E+00  0.000E+00  0.000E+00  3.15032E+01  1.699E-01  2.000E+01  2.000E+04  3.665E-01
   1   18   30     3     9    1.7480E+05  1.7891E+03   1.7301E+05  0.000E+00  0.000E+00  0.000E+00  3.06117E+01  1.673E-01  2.000E+01  2.000E+04  8.945E-02



1
              HEAD IN LAYER   1 AT END OF TIME STEP   1 IN STRESS PERIOD    3
  ---------------------------------------------------------------------------

          1      2      3      4      5      6      7      8      9     10
         11     12     13     14     15     16     17     18     19     20
         21     22     23     24     25     26     27     28     29     30
 .........................................................................
   1  ****** ****** ****** ****** ****** ****** ****** ****** ****** ******
      ****** ****** ****** ****** ****** ****** ****** ****** ****** ******
      ****** ****** ****** ****** ****** ****** ****** ****** ****** ******
   2  ****** ****** ****** ****** ****** ****** ****** ****** ****** ******
      ****** ****** ****** ****** ****** ****** ****** ****** ****** ******
      ****** ****** ****** ****** ****** ****** ****** ****** ****** ******
   3  ****** ****** ****** ****** ****** ****** ****** ****** ****** ******
      ****** ****** ****** ****** ****** ****** ****** ****** ****** ******
      ****** ****** ****** ****** ****** ****** ****** ****** ****** ******
   4  ****** ****** ****** ****** ****** ****** ****** ****** ****** ******
      ****** ****** ****** ****** ****** ****** ****** ****** ****** ******
      ****** ****** ****** ****** ****** ****** ****** ****** ****** ******
   5  ****** ****** ****** ****** ****** ****** ****** ****** ****** ******
      ****** ****** ****** ****** ****** ****** ****** ****** ****** ******
      ****** ****** ****** ****** ****** ****** ****** ****** ****** ******
   6  ****** ****** ****** ****** ****** ****** ****** ****** ****** ******
      ****** ****** ****** ****** ****** ****** ****** ****** ****** ******
      ****** ****** ****** ****** ****** ****** ****** ****** ****** ******
   7  ****** ****** ****** ****** ****** ****** ****** ****** ****** ******
      ****** ****** ****** ****** ****** ****** ****** ****** ****** ******
      ****** ****** ****** ****** ****** ****** ****** ****** ****** ******
   8  ****** ****** ****** ****** ****** ****** ****** ****** ****** ******
      ****** ****** ****** ****** ****** ****** ****** ****** ****** ******
      ****** ****** ****** ****** ****** ****** ****** ****** ****** ******
   9  ****** ****** ****** ****** ****** ****** ****** ****** ****** ******
      ****** ****** ****** ****** ****** ****** ****** ****** ****** ******
      ****** ****** ****** ****** ****** ****** ****** ****** ****** ******
  10  ****** ****** ****** ****** ****** ****** ****** ****** ****** ******
      ****** ****** ****** ****** ****** ****** ****** ****** ****** ******
      ****** ****** ****** ****** ****** ****** ****** ****** ****** ******
  11  ****** ****** ****** ****** ****** ****** ****** ****** ****** ******
      ****** ****** ****** ****** ****** ****** ****** ****** ****** ******
      ****** ****** ****** ****** ****** ****** ****** ****** ****** ******
  12  ****** ****** ****** ****** ****** ****** ****** ****** ****** ******
      ****** ****** ****** ****** ****** ****** ****** ****** ****** ******
      ****** ****** ****** ****** ****** ****** ****** ****** ****** ******
  13  ****** ****** ****** ****** ****** ****** ****** ****** ****** ******
      ****** ****** ****** ****** ****** ****** ****** ****** ****** ******
      ****** ****** ****** ****** ****** ****** ****** ****** ****** ******
  14  ****** ****** ****** ****** ****** ****** ****** ****** ****** ******
      ****** ****** ****** ****** ****** ****** ****** ****** ****** ******
      ****** ****** ****** ****** ****** ****** ****** ****** ****** ******
  15  ****** ****** ****** ****** ****** ****** ****** ****** ****** ******
      ****** ****** ****** ****** ****** ****** ****** ****** ****** ******
      ****** ****** ****** ****** ****** ****** ****** ****** ****** ******
  16  ****** ****** ****** ****** ****** ****** ****** ****** ****** ******
      ****** ****** ****** ****** ****** ****** ****** ****** ****** ******
      ****** ****** ****** ****** ****** ****** ****** ****** ****** ******
  17  ****** ****** ****** ****** ****** ****** ****** ****** ****** ******
      ****** ****** ****** ****** ****** ****** ****** ****** ****** ******
      ****** ****** ****** ****** ****** ****** ****** ****** ****** ******
  18  ****** ****** ****** ****** ****** ****** ****** ****** ****** ******
      ****** ****** ****** ****** ****** ****** ****** ****** ****** ******
      ****** ****** ****** ****** ****** ****** ****** ****** ****** ******
  19  ****** ****** ****** ****** ****** ****** ****** ****** ****** ******
      ****** ****** ****** ****** ****** ****** ****** ****** ****** ******
      ****** ****** ****** ****** ****** ****** ****** ****** ****** ******
  20  ****** ****** ****** ****** ****** ****** ****** ****** ****** ******
      ****** ****** ****** ****** ****** ****** ****** ****** ****** ******
      ****** ****** ****** ****** ****** ****** ****** ****** ****** ******
  21  ****** ****** ****** ****** ****** ****** ****** ****** ****** ******
      ****** ****** ****** ****** ****** ****** ****** ****** ****** ******
      ****** ****** ****** ****** ****** ****** ****** ****** ****** ******
  22  ****** ****** ****** ****** ****** ****** ****** ****** ****** ******
      ****** ****** ****** ****** ****** ****** ****** ****** ****** ******
      ****** ****** ****** ****** ****** ****** ****** ****** ****** ******
  23  ****** ****** ****** ****** ****** ****** ****** ****** ****** ******
      ****** ****** ****** ****** ****** ****** ****** ****** ****** ******
      ****** ****** ****** ****** ****** ****** ****** ****** ****** ******
  24  ****** ****** ****** ****** ****** ****** ****** ****** ****** ******
      ****** ****** ****** ****** ****** ****** ****** ****** ****** ******
      ****** ****** ****** ****** ****** ****** ****** ****** ****** ******
  25  ****** ****** ****** ****** ****** ****** ****** ****** ****** ******
      ****** ****** ****** ****** ****** ****** ****** ****** ****** ******
      ****** ****** ****** ****** ****** ****** ****** ****** ****** ******

 HEAD WILL BE SAVED ON UNIT   51 AT END OF TIME STEP    1, STRESS PERIOD    3
1
  VOLUMETRIC BUDGET FOR ENTIRE MODEL AT END OF TIME STEP    1, STRESS PERIOD   3
  ------------------------------------------------------------------------------

     CUMULATIVE VOLUMES      L**3       RATES FOR THIS TIME STEP      L**3/T
     ------------------                 ------------------------

           IN:                                      IN:
           ---                                      ---
             STORAGE =    26654310.5748               STORAGE =       52964.7553
       CONSTANT HEAD =     4841452.0340         CONSTANT HEAD =       24591.2026
               WELLS =           0.0000                 WELLS =           0.0000
            RECHARGE =     6292800.0000              RECHARGE =           0.0000
      STREAM LEAKAGE =     6268423.6900        STREAM LEAKAGE =       33985.4539

            TOTAL IN =    44056986.2987              TOTAL IN =      111541.4117

          OUT:                                     OUT:
          ----                                     ----
             STORAGE =           0.0000               STORAGE =           0.0000
       CONSTANT HEAD =           0.0000         CONSTANT HEAD =           0.0000
               WELLS =    14946694.9699                 WELLS =       54549.9816
            RECHARGE =           0.0000              RECHARGE =           0.0000
      STREAM LEAKAGE =    29110293.2111        STREAM LEAKAGE =       56991.4374

           TOTAL OUT =    44056988.1810             TOTAL OUT =      111541.4191

            IN - OUT =          -1.8823              IN - OUT =      -7.3448E-03

 PERCENT DISCREPANCY =          -0.00     PERCENT DISCREPANCY =          -0.00






         TIME SUMMARY AT END OF TIME STEP    1 IN STRESS PERIOD    3
                    SECONDS     MINUTES      HOURS       DAYS        YEARS
                    -----------------------------------------------------------
   TIME STEP LENGTH 7.86240E+06 1.31040E+05  2184.0      91.000     0.24914    
 STRESS PERIOD TIME 7.86240E+06 1.31040E+05  2184.0      91.000     0.24914    
         TOTAL TIME 2.36736E+07 3.94560E+05  6576.0      274.00     0.75017    
1
1
                            STRESS PERIOD NO.    4, LENGTH =   91.00000    
                            -----------------------------------------------

                              NUMBER OF TIME STEPS =     1

                               MULTIPLIER FOR DELT =     1.500

                            INITIAL TIME STEP SIZE =   91.00000    

 WELL NO.  LAYER   ROW   COL   STRESS RATE         
 --------------------------------------------------
      1      1     19     29     -0.1190E+05
      2      1     13     22     -0.1207E+05
      3      1     11     24     -0.1558E+05
      4      1     17     29     -0.1500E+05

      4 WELLS

                 RECHARGE =  1.000000E-03

 REUSING STREAM SEGMENT DATA FROM LAST STRESS PERIOD
 
 SOLVING FOR HEAD 


     7 CALLS TO PCG ROUTINE FOR TIME STEP   1 IN STRESS PERIOD    4
    24 TOTAL ITERATIONS

 OUTPUT CONTROL FOR STRESS PERIOD    4   TIME STEP    1
    SAVE BUDGET
    SAVE HEAD FOR ALL LAYERS
    PRINT HEAD FOR ALL LAYERS
 UBDSV2 SAVING "STREAMFLOW OUT  " ON UNIT  50 AT TIME STEP  1, STRESS PERIOD   4



 STREAM LISTING     PERIOD      4   STEP        1

 LAYER ROW COL. STREAM  RCH.  FLOW INTO     FLOW TO   FLOW OUT OF   OVRLND.     DIRECT     STREAM       STREAM     STREAM     STREAM   STREAMBED  STREAMBED
                SEG.NO.  NO.  STRM. RCH.    AQUIFER    STRM. RCH.    RUNOFF     PRECIP       ET          HEAD       DEPTH      WIDTH   CONDCTNC.   GRADIENT

   1   13    1     1     1    1.0000E+05 -2.5532E+03   1.0255E+05  0.000E+00  0.000E+00  0.000E+00  4.84071E+01  1.458E-01  2.000E+01  2.000E+04 -1.277E-01
   1   13    2     1     2    1.0255E+05 -3.6262E+03   1.0618E+05  0.000E+00  0.000E+00  0.000E+00  4.79325E+01  1.484E-01  2.000E+01  2.000E+04 -1.813E-01
   1   14    3     1     3    1.0618E+05 -6.3093E+02   1.0681E+05  0.000E+00  0.000E+00  0.000E+00  4.74570E+01  1.502E-01  2.000E+01  2.000E+04 -3.155E-02
   1   15    4     1     4    1.0681E+05 -6.0456E+02   1.0741E+05  0.000E+00  0.000E+00  0.000E+00  4.69803E+01  1.507E-01  2.000E+01  2.000E+04 -3.023E-02
   1   16    5     1     5    1.0741E+05 -2.1738E+03   1.0959E+05  0.000E+00  0.000E+00  0.000E+00  4.65042E+01  1.519E-01  2.000E+01  2.000E+04 -1.087E-01
   1   16    6     1     6    1.0959E+05 -1.3680E+03   1.1096E+05  0.000E+00  0.000E+00  0.000E+00  4.60284E+01  1.534E-01  2.000E+01  2.000E+04 -6.840E-02
   1   16    7     1     7    1.1096E+05 -1.3445E+03   1.1230E+05  0.000E+00  0.000E+00  0.000E+00  4.55522E+01  1.545E-01  2.000E+01  2.000E+04 -6.723E-02
   1   16    8     1     8    1.1230E+05 -1.3395E+03   1.1364E+05  0.000E+00  0.000E+00  0.000E+00  4.50761E+01  1.556E-01  2.000E+01  2.000E+04 -6.698E-02
   1   16    9     1     9    1.1364E+05 -1.3284E+03   1.1497E+05  0.000E+00  0.000E+00  0.000E+00  4.45999E+01  1.567E-01  2.000E+01  2.000E+04 -6.642E-02
   1   16   10     1    10    1.1497E+05 -1.3106E+03   1.1628E+05  0.000E+00  0.000E+00  0.000E+00  4.41237E+01  1.578E-01  2.000E+01  2.000E+04 -6.553E-02
   1   16   11     1    11    1.1628E+05 -1.3145E+03   1.1759E+05  0.000E+00  0.000E+00  0.000E+00  4.36475E+01  1.589E-01  2.000E+01  2.000E+04 -6.573E-02
   1   16   12     1    12    1.1759E+05 -2.3009E+03   1.1990E+05  0.000E+00  0.000E+00  0.000E+00  4.31717E+01  1.604E-01  2.000E+01  2.000E+04 -1.150E-01
   1   15   13     1    13    1.1990E+05 -2.2774E+03   1.2217E+05  0.000E+00  0.000E+00  0.000E+00  4.26963E+01  1.622E-01  2.000E+01  2.000E+04 -1.139E-01
   1   14   14     1    14    1.2217E+05 -2.6098E+03   1.2478E+05  0.000E+00  0.000E+00  0.000E+00  4.22210E+01  1.642E-01  2.000E+01  2.000E+04 -1.305E-01
   1   13   15     1    15    1.2478E+05 -2.9442E+03   1.2773E+05  0.000E+00  0.000E+00  0.000E+00  4.17459E+01  1.664E-01  2.000E+01  2.000E+04 -1.472E-01
   1   12   16     1    16    1.2773E+05 -3.6250E+03   1.3135E+05  0.000E+00  0.000E+00  0.000E+00  4.12712E+01  1.690E-01  2.000E+01  2.000E+04 -1.812E-01
   1   12   17     1    17    1.3135E+05 -2.2813E+03   1.3363E+05  0.000E+00  0.000E+00  0.000E+00  4.07963E+01  1.713E-01  2.000E+01  2.000E+04 -1.141E-01
   1   12   18     1    18    1.3363E+05 -2.0491E+03   1.3568E+05  0.000E+00  0.000E+00  0.000E+00  4.03207E+01  1.729E-01  2.000E+01  2.000E+04 -1.025E-01
   1   12   19     1    19    1.3568E+05 -1.9328E+03   1.3761E+05  0.000E+00  0.000E+00  0.000E+00  3.98449E+01  1.745E-01  2.000E+01  2.000E+04 -9.664E-02
   1   13   20     1    20    1.3761E+05  1.1250E+01   1.3760E+05  0.000E+00  0.000E+00  0.000E+00  3.93684E+01  1.752E-01  2.000E+01  2.000E+04  5.625E-04
   1   14   21     1    21    1.3760E+05 -3.5371E+02   1.3796E+05  0.000E+00  0.000E+00  0.000E+00  3.88912E+01  1.753E-01  2.000E+01  2.000E+04 -1.769E-02
   1   14   22     1    22    1.3796E+05  6.6870E+03   1.3127E+05  0.000E+00  0.000E+00  0.000E+00  3.84115E+01  1.729E-01  2.000E+01  2.000E+04  3.344E-01
   1    9   30     2     1    5.0000E+04 -5.8095E+02   5.0581E+04  0.000E+00  0.000E+00  0.000E+00  4.02413E+01  1.163E-01  2.000E+01  2.000E+04 -2.905E-02
   1    9   29     2     2    5.0581E+04 -8.9072E+02   5.1472E+04  0.000E+00  0.000E+00  0.000E+00  3.99923E+01  1.173E-01  2.000E+01  2.000E+04 -4.454E-02
   1    9   28     2     3    5.1472E+04 -1.1597E+03   5.2631E+04  0.000E+00  0.000E+00  0.000E+00  3.97437E+01  1.187E-01  2.000E+01  2.000E+04 -5.799E-02
   1    9   27     2     4    5.2631E+04 -2.3007E+03   5.4932E+04  0.000E+00  0.000E+00  0.000E+00  3.94960E+01  1.210E-01  2.000E+01  2.000E+04 -1.150E-01
   1   10   26     2     5    5.4932E+04 -6.8465E+02   5.5617E+04  0.000E+00  0.000E+00  0.000E+00  3.92481E+01  1.231E-01  2.000E+01  2.000E+04 -3.423E-02
   1   11   25     2     6    5.5617E+04  4.1267E+03   5.1490E+04  0.000E+00  0.000E+00  0.000E+00  3.89957E+01  1.207E-01  2.000E+01  2.000E+04  2.063E-01
   1   12   24     2     7    5.1490E+04  4.9159E+03   4.6574E+04  0.000E+00  0.000E+00  0.000E+00  3.87395E+01  1.145E-01  2.000E+01  2.000E+04  2.458E-01
   1   13   23     2     8    4.6574E+04  9.5557E+02   4.5619E+04  0.000E+00  0.000E+00  0.000E+00  3.84854E+01  1.104E-01  2.000E+01  2.000E+04  4.778E-02
   1   14   22     2     9    4.5619E+04  3.1046E+03   4.2514E+04  0.000E+00  0.000E+00  0.000E+00  3.82324E+01  1.074E-01  2.000E+01  2.000E+04  1.552E-01
   1   14   22     3     1    1.7378E+05 -7.0474E+03   1.8083E+05  0.000E+00  0.000E+00  0.000E+00  3.77248E+01  1.693E-01  2.000E+01  2.000E+04 -3.524E-01
   1   15   23     3     2    1.8083E+05 -6.1094E+02   1.8144E+05  0.000E+00  0.000E+00  0.000E+00  3.68381E+01  1.714E-01  2.000E+01  2.000E+04 -3.055E-02
   1   15   24     3     3    1.8144E+05 -3.1889E+02   1.8176E+05  0.000E+00  0.000E+00  0.000E+00  3.59495E+01  1.717E-01  2.000E+01  2.000E+04 -1.594E-02
   1   15   25     3     4    1.8176E+05 -2.9797E+02   1.8206E+05  0.000E+00  0.000E+00  0.000E+00  3.50608E+01  1.719E-01  2.000E+01  2.000E+04 -1.490E-02
   1   15   26     3     5    1.8206E+05 -2.5953E+02   1.8232E+05  0.000E+00  0.000E+00  0.000E+00  3.41720E+01  1.720E-01  2.000E+01  2.000E+04 -1.298E-02
   1   16   27     3     6    1.8232E+05 -6.0722E+01   1.8238E+05  0.000E+00  0.000E+00  0.000E+00  3.32832E+01  1.721E-01  2.000E+01  2.000E+04 -3.036E-03
   1   17   28     3     7    1.8238E+05  5.4571E+03   1.7692E+05  0.000E+00  0.000E+00  0.000E+00  3.23928E+01  1.706E-01  2.000E+01  2.000E+04  2.729E-01
   1   18   29     3     8    1.7692E+05  7.5904E+03   1.6933E+05  0.000E+00  0.000E+00  0.000E+00  3.15002E+01  1.668E-01  2.000E+01  2.000E+04  3.795E-01
   1   18   30     3     9    1.6933E+05  1.9269E+03   1.6741E+05  0.000E+00  0.000E+00  0.000E+00  3.06085E+01  1.641E-01  2.000E+01  2.000E+04  9.635E-02



1
              HEAD IN LAYER   1 AT END OF TIME STEP   1 IN STRESS PERIOD    4
  ---------------------------------------------------------------------------

          1      2      3      4      5      6      7      8      9     10
         11     12     13     14     15     16     17     18     19     20
         21     22     23     24     25     26     27     28     29     30
 .........................................................................
   1  ****** ****** ****** ****** ****** ****** ****** ****** ****** ******
      ****** ****** ****** ****** ****** ****** ****** ****** ****** ******
      ****** ****** ****** ****** ****** ****** ****** ****** ****** ******
   2  ****** ****** ****** ****** ****** ****** ****** ****** ****** ******
      ****** ****** ****** ****** ****** ****** ****** ****** ****** ******
      ****** ****** ****** ****** ****** ****** ****** ****** ****** ******
   3  ****** ****** ****** ****** ****** ****** ****** ****** ****** ******
      ****** ****** ****** ****** ****** ****** ****** ****** ****** ******
      ****** ****** ****** ****** ****** ****** ****** ****** ****** ******
   4  ****** ****** ****** ****** ****** ****** ****** ****** ****** ******
      ****** ****** ****** ****** ****** ****** ****** ****** ****** ******
      ****** ****** ****** ****** ****** ****** ****** ****** ****** ******
   5  ****** ****** ****** ****** ****** ****** ****** ****** ****** ******
      ****** ****** ****** ****** ****** ****** ****** ****** ****** ******
      ****** ****** ****** ****** ****** ****** ****** ****** ****** ******
   6  ****** ****** ****** ****** ****** ****** ****** ****** ****** ******
      ****** ****** ****** ****** ****** ****** ****** ****** ****** ******
      ****** ****** ****** ****** ****** ****** ****** ****** ****** ******
   7  ****** ****** ****** ****** ****** ****** ****** ****** ****** ******
      ****** ****** ****** ****** ****** ****** ****** ****** ****** ******
      ****** ****** ****** ****** ****** ****** ****** ****** ****** ******
   8  ****** ****** ****** ****** ****** ****** ****** ****** ****** ******
      ****** ****** ****** ****** ****** ****** ****** ****** ****** ******
      ****** ****** ****** ****** ****** ****** ****** ****** ****** ******
   9  ****** ****** ****** ****** ****** ****** ****** ****** ****** ******
      ****** ****** ****** ****** ****** ****** ****** ****** ****** ******
      ****** ****** ****** ****** ****** ****** ****** ****** ****** ******
  10  ****** ****** ****** ****** ****** ****** ****** ****** ****** ******
      ****** ****** ****** ****** ****** ****** ****** ****** ****** ******
      ****** ****** ****** ****** ****** ****** ****** ****** ****** ******
  11  ****** ****** ****** ****** ****** ****** ****** ****** ****** ******
      ****** ****** ****** ****** ****** ****** ****** ****** ****** ******
      ****** ****** ****** ****** ****** ****** ****** ****** ****** ******
  12  ****** ****** ****** ****** ****** ****** ****** ****** ****** ******
      ****** ****** ****** ****** ****** ****** ****** ****** ****** ******
      ****** ****** ****** ****** ****** ****** ****** ****** ****** ******
  13  ****** ****** ****** ****** ****** ****** ****** ****** ****** ******
      ****** ****** ****** ****** ****** ****** ****** ****** ****** ******
      ****** ****** ****** ****** ****** ****** ****** ****** ****** ******
  14  ****** ****** ****** ****** ****** ****** ****** ****** ****** ******
      ****** ****** ****** ****** ****** ****** ****** ****** ****** ******
      ****** ****** ****** ****** ****** ****** ****** ****** ****** ******
  15  ****** ****** ****** ****** ****** ****** ****** ****** ****** ******
      ****** ****** ****** ****** ****** ****** ****** ****** ****** ******
      ****** ****** ****** ****** ****** ****** ****** ****** ****** ******
  16  ****** ****** ****** ****** ****** ****** ****** ****** ****** ******
      ****** ****** ****** ****** ****** ****** ****** ****** ****** ******
      ****** ****** ****** ****** ****** ****** ****** ****** ****** ******
  17  ****** ****** ****** ****** ****** ****** ****** ****** ****** ******
      ****** ****** ****** ****** ****** ****** ****** ****** ****** ******
      ****** ****** ****** ****** ****** ****** ****** ****** ****** ******
  18  ****** ****** ****** ****** ****** ****** ****** ****** ****** ******
      ****** ****** ****** ****** ****** ****** ****** ****** ****** ******
      ****** ****** ****** ****** ****** ****** ****** ****** ****** ******
  19  ****** ****** ****** ****** ****** ****** ****** ****** ****** ******
      ****** ****** ****** ****** ****** ****** ****** ****** ****** ******
      ****** ****** ****** ****** ****** ****** ****** ****** ****** ******
  20  ****** ****** ****** ****** ****** ****** ****** ****** ****** ******
      ****** ****** ****** ****** ****** ****** ****** ****** ****** ******
      ****** ****** ****** ****** ****** ****** ****** ****** ****** ******
  21  ****** ****** ****** ****** ****** ****** ****** ****** ****** ******
      ****** ****** ****** ****** ****** ****** ****** ****** ****** ******
      ****** ****** ****** ****** ****** ****** ****** ****** ****** ******
  22  ****** ****** ****** ****** ****** ****** ****** ****** ****** ******
      ****** ****** ****** ****** ****** ****** ****** ****** ****** ******
      ****** ****** ****** ****** ****** ****** ****** ****** ****** ******
  23  ****** ****** ****** ****** ****** ****** ****** ****** ****** ******
      ****** ****** ****** ****** ****** ****** ****** ****** ****** ******
      ****** ****** ****** ****** ****** ****** ****** ****** ****** ******
  24  ****** ****** ****** ****** ****** ****** ****** ****** ****** ******
      ****** ****** ****** ****** ****** ****** ****** ****** ****** ******
      ****** ****** ****** ****** ****** ****** ****** ****** ****** ******
  25  ****** ****** ****** ****** ****** ****** ****** ****** ****** ******
      ****** ****** ****** ****** ****** ****** ****** ****** ****** ******
      ****** ****** ****** ****** ****** ****** ****** ****** ****** ******

 HEAD WILL BE SAVED ON UNIT   51 AT END OF TIME STEP    1, STRESS PERIOD    4
1
  VOLUMETRIC BUDGET FOR ENTIRE MODEL AT END OF TIME STEP    1, STRESS PERIOD   4
  ------------------------------------------------------------------------------

     CUMULATIVE VOLUMES      L**3       RATES FOR THIS TIME STEP      L**3/T
     ------------------                 ------------------------

           IN:                                      IN:
           ---                                      ---
             STORAGE =    28232105.9085               STORAGE =       17338.4103
       CONSTANT HEAD =     7300829.2643         CONSTANT HEAD =       27026.1234
               WELLS =           0.0000                 WELLS =           0.0000
            RECHARGE =     8804400.0000              RECHARGE =       27600.0000
      STREAM LEAKAGE =     9432995.9620        STREAM LEAKAGE =       34775.5195

            TOTAL IN =    53770331.1347              TOTAL IN =      106740.0531

          OUT:                                     OUT:
          ----                                     ----
             STORAGE =         845.3876               STORAGE =           9.2900
       CONSTANT HEAD =           0.0000         CONSTANT HEAD =           0.0000
               WELLS =    19910743.2993                 WELLS =       54549.9816
            RECHARGE =           0.0000              RECHARGE =           0.0000
      STREAM LEAKAGE =    33858744.4326        STREAM LEAKAGE =       52180.7827

           TOTAL OUT =    53770333.1195             TOTAL OUT =      106740.0543

            IN - OUT =          -1.9847              IN - OUT =      -1.1262E-03

 PERCENT DISCREPANCY =          -0.00     PERCENT DISCREPANCY =          -0.00






         TIME SUMMARY AT END OF TIME STEP    1 IN STRESS PERIOD    4
                    SECONDS     MINUTES      HOURS       DAYS        YEARS
                    -----------------------------------------------------------
   TIME STEP LENGTH 7.86240E+06 1.31040E+05  2184.0      91.000     0.24914    
 STRESS PERIOD TIME 7.86240E+06 1.31040E+05  2184.0      91.000     0.24914    
         TOTAL TIME 3.15360E+07 5.25600E+05  8760.0      365.00     0.99932    
1
1
                            STRESS PERIOD NO.    5, LENGTH =   92.00000    
                            -----------------------------------------------

                              NUMBER OF TIME STEPS =     1

                               MULTIPLIER FOR DELT =     1.500

                            INITIAL TIME STEP SIZE =   92.00000    

 WELL NO.  LAYER   ROW   COL   STRESS RATE         
 --------------------------------------------------
      1      1     19     29     -0.1190E+05
      2      1     13     22     -0.1207E+05
      3      1     11     24     -0.1558E+05
      4      1     17     29     -0.1500E+05

      4 WELLS

                 RECHARGE =  5.000000E-04

 REUSING STREAM SEGMENT DATA FROM LAST STRESS PERIOD
 
 SOLVING FOR HEAD 


     7 CALLS TO PCG ROUTINE FOR TIME STEP   1 IN STRESS PERIOD    5
    26 TOTAL ITERATIONS

 OUTPUT CONTROL FOR STRESS PERIOD    5   TIME STEP    1
    SAVE BUDGET
    SAVE HEAD FOR ALL LAYERS
    PRINT HEAD FOR ALL LAYERS
 UBDSV2 SAVING "STREAMFLOW OUT  " ON UNIT  50 AT TIME STEP  1, STRESS PERIOD   5



 STREAM LISTING     PERIOD      5   STEP        1

 LAYER ROW COL. STREAM  RCH.  FLOW INTO     FLOW TO   FLOW OUT OF   OVRLND.     DIRECT     STREAM       STREAM     STREAM     STREAM   STREAMBED  STREAMBED
                SEG.NO.  NO.  STRM. RCH.    AQUIFER    STRM. RCH.    RUNOFF     PRECIP       ET          HEAD       DEPTH      WIDTH   CONDCTNC.   GRADIENT

   1   13    1     1     1    1.0000E+05 -2.1492E+03   1.0215E+05  0.000E+00  0.000E+00  0.000E+00  4.84069E+01  1.456E-01  2.000E+01  2.000E+04 -1.075E-01
   1   13    2     1     2    1.0215E+05 -3.1694E+03   1.0532E+05  0.000E+00  0.000E+00  0.000E+00  4.79320E+01  1.479E-01  2.000E+01  2.000E+04 -1.585E-01
   1   14    3     1     3    1.0532E+05 -5.1038E+02   1.0583E+05  0.000E+00  0.000E+00  0.000E+00  4.74563E+01  1.494E-01  2.000E+01  2.000E+04 -2.552E-02
   1   15    4     1     4    1.0583E+05 -4.7732E+02   1.0631E+05  0.000E+00  0.000E+00  0.000E+00  4.69794E+01  1.499E-01  2.000E+01  2.000E+04 -2.387E-02
   1   16    5     1     5    1.0631E+05 -1.7477E+03   1.0805E+05  0.000E+00  0.000E+00  0.000E+00  4.65031E+01  1.508E-01  2.000E+01  2.000E+04 -8.739E-02
   1   16    6     1     6    1.0805E+05 -1.1190E+03   1.0917E+05  0.000E+00  0.000E+00  0.000E+00  4.60270E+01  1.520E-01  2.000E+01  2.000E+04 -5.595E-02
   1   16    7     1     7    1.0917E+05 -1.1061E+03   1.1028E+05  0.000E+00  0.000E+00  0.000E+00  4.55507E+01  1.529E-01  2.000E+01  2.000E+04 -5.530E-02
   1   16    8     1     8    1.1028E+05 -1.1050E+03   1.1138E+05  0.000E+00  0.000E+00  0.000E+00  4.50743E+01  1.539E-01  2.000E+01  2.000E+04 -5.525E-02
   1   16    9     1     9    1.1138E+05 -1.0970E+03   1.1248E+05  0.000E+00  0.000E+00  0.000E+00  4.45980E+01  1.548E-01  2.000E+01  2.000E+04 -5.485E-02
   1   16   10     1    10    1.1248E+05 -1.0827E+03   1.1356E+05  0.000E+00  0.000E+00  0.000E+00  4.41216E+01  1.557E-01  2.000E+01  2.000E+04 -5.413E-02
   1   16   11     1    11    1.1356E+05 -1.0864E+03   1.1465E+05  0.000E+00  0.000E+00  0.000E+00  4.36452E+01  1.566E-01  2.000E+01  2.000E+04 -5.432E-02
   1   16   12     1    12    1.1465E+05 -1.8934E+03   1.1654E+05  0.000E+00  0.000E+00  0.000E+00  4.31692E+01  1.578E-01  2.000E+01  2.000E+04 -9.467E-02
   1   15   13     1    13    1.1654E+05 -1.8503E+03   1.1839E+05  0.000E+00  0.000E+00  0.000E+00  4.26934E+01  1.593E-01  2.000E+01  2.000E+04 -9.252E-02
   1   14   14     1    14    1.1839E+05 -2.1574E+03   1.2055E+05  0.000E+00  0.000E+00  0.000E+00  4.22178E+01  1.609E-01  2.000E+01  2.000E+04 -1.079E-01
   1   13   15     1    15    1.2055E+05 -2.4765E+03   1.2303E+05  0.000E+00  0.000E+00  0.000E+00  4.17424E+01  1.628E-01  2.000E+01  2.000E+04 -1.238E-01
   1   12   16     1    16    1.2303E+05 -3.1152E+03   1.2614E+05  0.000E+00  0.000E+00  0.000E+00  4.12673E+01  1.650E-01  2.000E+01  2.000E+04 -1.558E-01
   1   12   17     1    17    1.2614E+05 -1.9375E+03   1.2808E+05  0.000E+00  0.000E+00  0.000E+00  4.07920E+01  1.670E-01  2.000E+01  2.000E+04 -9.688E-02
   1   12   18     1    18    1.2808E+05 -1.7211E+03   1.2980E+05  0.000E+00  0.000E+00  0.000E+00  4.03162E+01  1.685E-01  2.000E+01  2.000E+04 -8.606E-02
   1   12   19     1    19    1.2980E+05 -1.5350E+03   1.3134E+05  0.000E+00  0.000E+00  0.000E+00  3.98402E+01  1.698E-01  2.000E+01  2.000E+04 -7.675E-02
   1   13   20     1    20    1.3134E+05  3.6069E+02   1.3098E+05  0.000E+00  0.000E+00  0.000E+00  3.93634E+01  1.702E-01  2.000E+01  2.000E+04  1.803E-02
   1   14   21     1    21    1.3098E+05  2.2067E+01   1.3095E+05  0.000E+00  0.000E+00  0.000E+00  3.88860E+01  1.701E-01  2.000E+01  2.000E+04  1.103E-03
   1   14   22     1    22    1.3095E+05  6.7698E+03   1.2418E+05  0.000E+00  0.000E+00  0.000E+00  3.84060E+01  1.674E-01  2.000E+01  2.000E+04  3.385E-01
   1    9   30     2     1    5.0000E+04 -3.5122E+02   5.0351E+04  0.000E+00  0.000E+00  0.000E+00  4.02411E+01  1.161E-01  2.000E+01  2.000E+04 -1.756E-02
   1    9   29     2     2    5.0351E+04 -6.5768E+02   5.1009E+04  0.000E+00  0.000E+00  0.000E+00  3.99918E+01  1.168E-01  2.000E+01  2.000E+04 -3.288E-02
   1    9   28     2     3    5.1009E+04 -9.1540E+02   5.1924E+04  0.000E+00  0.000E+00  0.000E+00  3.97429E+01  1.179E-01  2.000E+01  2.000E+04 -4.577E-02
   1    9   27     2     4    5.1924E+04 -1.9176E+03   5.3842E+04  0.000E+00  0.000E+00  0.000E+00  3.94948E+01  1.198E-01  2.000E+01  2.000E+04 -9.588E-02
   1   10   26     2     5    5.3842E+04 -3.4970E+02   5.4192E+04  0.000E+00  0.000E+00  0.000E+00  3.92464E+01  1.214E-01  2.000E+01  2.000E+04 -1.749E-02
   1   11   25     2     6    5.4192E+04  4.4341E+03   4.9758E+04  0.000E+00  0.000E+00  0.000E+00  3.89936E+01  1.186E-01  2.000E+01  2.000E+04  2.217E-01
   1   12   24     2     7    4.9758E+04  5.1960E+03   4.4562E+04  0.000E+00  0.000E+00  0.000E+00  3.87369E+01  1.119E-01  2.000E+01  2.000E+04  2.598E-01
   1   13   23     2     8    4.4562E+04  1.0233E+03   4.3538E+04  0.000E+00  0.000E+00  0.000E+00  3.84824E+01  1.074E-01  2.000E+01  2.000E+04  5.117E-02
   1   14   22     2     9    4.3538E+04  3.2337E+03   4.0305E+04  0.000E+00  0.000E+00  0.000E+00  3.82292E+01  1.042E-01  2.000E+01  2.000E+04  1.617E-01
   1   14   22     3     1    1.6449E+05 -6.9630E+03   1.7145E+05  0.000E+00  0.000E+00  0.000E+00  3.77194E+01  1.638E-01  2.000E+01  2.000E+04 -3.482E-01
   1   15   23     3     2    1.7145E+05 -5.1179E+02   1.7196E+05  0.000E+00  0.000E+00  0.000E+00  3.68327E+01  1.660E-01  2.000E+01  2.000E+04 -2.559E-02
   1   15   24     3     3    1.7196E+05 -2.4577E+02   1.7221E+05  0.000E+00  0.000E+00  0.000E+00  3.59440E+01  1.662E-01  2.000E+01  2.000E+04 -1.229E-02
   1   15   25     3     4    1.7221E+05 -2.2523E+02   1.7243E+05  0.000E+00  0.000E+00  0.000E+00  3.50553E+01  1.664E-01  2.000E+01  2.000E+04 -1.126E-02
   1   15   26     3     5    1.7243E+05 -1.8597E+02   1.7262E+05  0.000E+00  0.000E+00  0.000E+00  3.41665E+01  1.665E-01  2.000E+01  2.000E+04 -9.298E-03
   1   16   27     3     6    1.7262E+05  3.2216E+01   1.7259E+05  0.000E+00  0.000E+00  0.000E+00  3.32777E+01  1.665E-01  2.000E+01  2.000E+04  1.611E-03
   1   17   28     3     7    1.7259E+05  5.7352E+03   1.6685E+05  0.000E+00  0.000E+00  0.000E+00  3.23871E+01  1.649E-01  2.000E+01  2.000E+04  2.868E-01
   1   18   29     3     8    1.6685E+05  7.9841E+03   1.5887E+05  0.000E+00  0.000E+00  0.000E+00  3.14942E+01  1.608E-01  2.000E+01  2.000E+04  3.992E-01
   1   18   30     3     9    1.5887E+05  2.1972E+03   1.5667E+05  0.000E+00  0.000E+00  0.000E+00  3.06022E+01  1.578E-01  2.000E+01  2.000E+04  1.099E-01



1
              HEAD IN LAYER   1 AT END OF TIME STEP   1 IN STRESS PERIOD    5
  ---------------------------------------------------------------------------

          1      2      3      4      5      6      7      8      9     10
         11     12     13     14     15     16     17     18     19     20
         21     22     23     24     25     26     27     28     29     30
 .........................................................................
   1  ****** ****** ****** ****** ****** ****** ****** ****** ****** ******
      ****** ****** ****** ****** ****** ****** ****** ****** ****** ******
      ****** ****** ****** ****** ****** ****** ****** ****** ****** ******
   2  ****** ****** ****** ****** ****** ****** ****** ****** ****** ******
      ****** ****** ****** ****** ****** ****** ****** ****** ****** ******
      ****** ****** ****** ****** ****** ****** ****** ****** ****** ******
   3  ****** ****** ****** ****** ****** ****** ****** ****** ****** ******
      ****** ****** ****** ****** ****** ****** ****** ****** ****** ******
      ****** ****** ****** ****** ****** ****** ****** ****** ****** ******
   4  ****** ****** ****** ****** ****** ****** ****** ****** ****** ******
      ****** ****** ****** ****** ****** ****** ****** ****** ****** ******
      ****** ****** ****** ****** ****** ****** ****** ****** ****** ******
   5  ****** ****** ****** ****** ****** ****** ****** ****** ****** ******
      ****** ****** ****** ****** ****** ****** ****** ****** ****** ******
      ****** ****** ****** ****** ****** ****** ****** ****** ****** ******
   6  ****** ****** ****** ****** ****** ****** ****** ****** ****** ******
      ****** ****** ****** ****** ****** ****** ****** ****** ****** ******
      ****** ****** ****** ****** ****** ****** ****** ****** ****** ******
   7  ****** ****** ****** ****** ****** ****** ****** ****** ****** ******
      ****** ****** ****** ****** ****** ****** ****** ****** ****** ******
      ****** ****** ****** ****** ****** ****** ****** ****** ****** ******
   8  ****** ****** ****** ****** ****** ****** ****** ****** ****** ******
      ****** ****** ****** ****** ****** ****** ****** ****** ****** ******
      ****** ****** ****** ****** ****** ****** ****** ****** ****** ******
   9  ****** ****** ****** ****** ****** ****** ****** ****** ****** ******
      ****** ****** ****** ****** ****** ****** ****** ****** ****** ******
      ****** ****** ****** ****** ****** ****** ****** ****** ****** ******
  10  ****** ****** ****** ****** ****** ****** ****** ****** ****** ******
      ****** ****** ****** ****** ****** ****** ****** ****** ****** ******
      ****** ****** ****** ****** ****** ****** ****** ****** ****** ******
  11  ****** ****** ****** ****** ****** ****** ****** ****** ****** ******
      ****** ****** ****** ****** ****** ****** ****** ****** ****** ******
      ****** ****** ****** ****** ****** ****** ****** ****** ****** ******
  12  ****** ****** ****** ****** ****** ****** ****** ****** ****** ******
      ****** ****** ****** ****** ****** ****** ****** ****** ****** ******
      ****** ****** ****** ****** ****** ****** ****** ****** ****** ******
  13  ****** ****** ****** ****** ****** ****** ****** ****** ****** ******
      ****** ****** ****** ****** ****** ****** ****** ****** ****** ******
      ****** ****** ****** ****** ****** ****** ****** ****** ****** ******
  14  ****** ****** ****** ****** ****** ****** ****** ****** ****** ******
      ****** ****** ****** ****** ****** ****** ****** ****** ****** ******
      ****** ****** ****** ****** ****** ****** ****** ****** ****** ******
  15  ****** ****** ****** ****** ****** ****** ****** ****** ****** ******
      ****** ****** ****** ****** ****** ****** ****** ****** ****** ******
      ****** ****** ****** ****** ****** ****** ****** ****** ****** ******
  16  ****** ****** ****** ****** ****** ****** ****** ****** ****** ******
      ****** ****** ****** ****** ****** ****** ****** ****** ****** ******
      ****** ****** ****** ****** ****** ****** ****** ****** ****** ******
  17  ****** ****** ****** ****** ****** ****** ****** ****** ****** ******
      ****** ****** ****** ****** ****** ****** ****** ****** ****** ******
      ****** ****** ****** ****** ****** ****** ****** ****** ****** ******
  18  ****** ****** ****** ****** ****** ****** ****** ****** ****** ******
      ****** ****** ****** ****** ****** ****** ****** ****** ****** ******
      ****** ****** ****** ****** ****** ****** ****** ****** ****** ******
  19  ****** ****** ****** ****** ****** ****** ****** ****** ****** ******
      ****** ****** ****** ****** ****** ****** ****** ****** ****** ******
      ****** ****** ****** ****** ****** ****** ****** ****** ****** ******
  20  ****** ****** ****** ****** ****** ****** ****** ****** ****** ******
      ****** ****** ****** ****** ****** ****** ****** ****** ****** ******
      ****** ****** ****** ****** ****** ****** ****** ****** ****** ******
  21  ****** ****** ****** ****** ****** ****** ****** ****** ****** ******
      ****** ****** ****** ****** ****** ****** ****** ****** ****** ******
      ****** ****** ****** ****** ****** ****** ****** ****** ****** ******
  22  ****** ****** ****** ****** ****** ****** ****** ****** ****** ******
      ****** ****** ****** ****** ****** ****** ****** ****** ****** ******
      ****** ****** ****** ****** ****** ****** ****** ****** ****** ******
  23  ****** ****** ****** ****** ****** ****** ****** ****** ****** ******
      ****** ****** ****** ****** ****** ****** ****** ****** ****** ******
      ****** ****** ****** ****** ****** ****** ****** ****** ****** ******
  24  ****** ****** ****** ****** ****** ****** ****** ****** ****** ******
      ****** ****** ****** ****** ****** ****** ****** ****** ****** ******
      ****** ****** ****** ****** ****** ****** ****** ****** ****** ******
  25  ****** ****** ****** ****** ****** ****** ****** ****** ****** ******
      ****** ****** ****** ****** ****** ****** ****** ****** ****** ******
      ****** ****** ****** ****** ****** ****** ****** ****** ****** ******

 HEAD WILL BE SAVED ON UNIT   51 AT END OF TIME STEP    1, STRESS PERIOD    5
1
  VOLUMETRIC BUDGET FOR ENTIRE MODEL AT END OF TIME STEP    1, STRESS PERIOD   5
  ------------------------------------------------------------------------------

     CUMULATIVE VOLUMES      L**3       RATES FOR THIS TIME STEP      L**3/T
     ------------------                 ------------------------

           IN:                                      IN:
           ---                                      ---
             STORAGE =    29849154.1674               STORAGE =       17576.6115
       CONSTANT HEAD =    10046568.7147         CONSTANT HEAD =       29844.9940
               WELLS =           0.0000                 WELLS =           0.0000
            RECHARGE =    10074000.0000              RECHARGE =       13800.0000
      STREAM LEAKAGE =    12835928.1427        STREAM LEAKAGE =       36988.3933

            TOTAL IN =    62805651.0249              TOTAL IN =       98209.9988

          OUT:                                     OUT:
          ----                                     ----
             STORAGE =         845.3876               STORAGE =           0.0000
       CONSTANT HEAD =           0.0000         CONSTANT HEAD =           0.0000
               WELLS =    24929341.6104                 WELLS =       54549.9816
            RECHARGE =           0.0000              RECHARGE =           0.0000
      STREAM LEAKAGE =    37875466.2807        STREAM LEAKAGE =       43660.0201

           TOTAL OUT =    62805653.2787             TOTAL OUT =       98210.0017

            IN - OUT =          -2.2538              IN - OUT =      -2.9245E-03

 PERCENT DISCREPANCY =          -0.00     PERCENT DISCREPANCY =          -0.00






         TIME SUMMARY AT END OF TIME STEP    1 IN STRESS PERIOD    5
                    SECONDS     MINUTES      HOURS       DAYS        YEARS
                    -----------------------------------------------------------
   TIME STEP LENGTH 7.94880E+06 1.32480E+05  2208.0      92.000     0.25188    
 STRESS PERIOD TIME 7.94880E+06 1.32480E+05  2208.0      92.000     0.25188    
         TOTAL TIME 3.94848E+07 6.58080E+05  10968.      457.00      1.2512    
1
1
                            STRESS PERIOD NO.    6, LENGTH =   91.00000    
                            -----------------------------------------------

                              NUMBER OF TIME STEPS =     1

                               MULTIPLIER FOR DELT =     1.500

                            INITIAL TIME STEP SIZE =   91.00000    

 WELL NO.  LAYER   ROW   COL   STRESS RATE         
 --------------------------------------------------
      1      1     19     29     -0.1190E+05
      2      1     13     22     -0.1207E+05
      3      1     11     24     -0.1558E+05
      4      1     17     29     -0.1500E+05

      4 WELLS

                 RECHARGE =  2.000000E-03

 REUSING STREAM SEGMENT DATA FROM LAST STRESS PERIOD
 
 SOLVING FOR HEAD 


     7 CALLS TO PCG ROUTINE FOR TIME STEP   1 IN STRESS PERIOD    6
    26 TOTAL ITERATIONS

 OUTPUT CONTROL FOR STRESS PERIOD    6   TIME STEP    1
    SAVE BUDGET
    SAVE HEAD FOR ALL LAYERS
    PRINT HEAD FOR ALL LAYERS
 UBDSV2 SAVING "STREAMFLOW OUT  " ON UNIT  50 AT TIME STEP  1, STRESS PERIOD   6



 STREAM LISTING     PERIOD      6   STEP        1

 LAYER ROW COL. STREAM  RCH.  FLOW INTO     FLOW TO   FLOW OUT OF   OVRLND.     DIRECT     STREAM       STREAM     STREAM     STREAM   STREAMBED  STREAMBED
                SEG.NO.  NO.  STRM. RCH.    AQUIFER    STRM. RCH.    RUNOFF     PRECIP       ET          HEAD       DEPTH      WIDTH   CONDCTNC.   GRADIENT

   1   13    1     1     1    1.0000E+05 -2.4731E+03   1.0247E+05  0.000E+00  0.000E+00  0.000E+00  4.84071E+01  1.457E-01  2.000E+01  2.000E+04 -1.237E-01
   1   13    2     1     2    1.0247E+05 -3.5245E+03   1.0600E+05  0.000E+00  0.000E+00  0.000E+00  4.79324E+01  1.483E-01  2.000E+01  2.000E+04 -1.762E-01
   1   14    3     1     3    1.0600E+05 -6.6674E+02   1.0666E+05  0.000E+00  0.000E+00  0.000E+00  4.74569E+01  1.501E-01  2.000E+01  2.000E+04 -3.334E-02
   1   15    4     1     4    1.0666E+05 -6.4495E+02   1.0731E+05  0.000E+00  0.000E+00  0.000E+00  4.69802E+01  1.506E-01  2.000E+01  2.000E+04 -3.225E-02
   1   16    5     1     5    1.0731E+05 -2.2473E+03   1.0956E+05  0.000E+00  0.000E+00  0.000E+00  4.65041E+01  1.519E-01  2.000E+01  2.000E+04 -1.124E-01
   1   16    6     1     6    1.0956E+05 -1.4125E+03   1.1097E+05  0.000E+00  0.000E+00  0.000E+00  4.60284E+01  1.534E-01  2.000E+01  2.000E+04 -7.063E-02
   1   16    7     1     7    1.1097E+05 -1.3844E+03   1.1235E+05  0.000E+00  0.000E+00  0.000E+00  4.55523E+01  1.545E-01  2.000E+01  2.000E+04 -6.922E-02
   1   16    8     1     8    1.1235E+05 -1.3788E+03   1.1373E+05  0.000E+00  0.000E+00  0.000E+00  4.50761E+01  1.557E-01  2.000E+01  2.000E+04 -6.894E-02
   1   16    9     1     9    1.1373E+05 -1.3703E+03   1.1510E+05  0.000E+00  0.000E+00  0.000E+00  4.46000E+01  1.568E-01  2.000E+01  2.000E+04 -6.852E-02
   1   16   10     1    10    1.1510E+05 -1.3576E+03   1.1646E+05  0.000E+00  0.000E+00  0.000E+00  4.41239E+01  1.579E-01  2.000E+01  2.000E+04 -6.788E-02
   1   16   11     1    11    1.1646E+05 -1.3646E+03   1.1782E+05  0.000E+00  0.000E+00  0.000E+00  4.36477E+01  1.591E-01  2.000E+01  2.000E+04 -6.823E-02
   1   16   12     1    12    1.1782E+05 -2.3437E+03   1.2017E+05  0.000E+00  0.000E+00  0.000E+00  4.31719E+01  1.606E-01  2.000E+01  2.000E+04 -1.172E-01
   1   15   13     1    13    1.2017E+05 -2.3122E+03   1.2248E+05  0.000E+00  0.000E+00  0.000E+00  4.26965E+01  1.624E-01  2.000E+01  2.000E+04 -1.156E-01
   1   14   14     1    14    1.2248E+05 -2.6160E+03   1.2510E+05  0.000E+00  0.000E+00  0.000E+00  4.22212E+01  1.644E-01  2.000E+01  2.000E+04 -1.308E-01
   1   13   15     1    15    1.2510E+05 -2.9171E+03   1.2801E+05  0.000E+00  0.000E+00  0.000E+00  4.17462E+01  1.666E-01  2.000E+01  2.000E+04 -1.459E-01
   1   12   16     1    16    1.2801E+05 -3.5123E+03   1.3153E+05  0.000E+00  0.000E+00  0.000E+00  4.12714E+01  1.691E-01  2.000E+01  2.000E+04 -1.756E-01
   1   12   17     1    17    1.3153E+05 -2.2583E+03   1.3378E+05  0.000E+00  0.000E+00  0.000E+00  4.07964E+01  1.714E-01  2.000E+01  2.000E+04 -1.129E-01
   1   12   18     1    18    1.3378E+05 -2.0449E+03   1.3583E+05  0.000E+00  0.000E+00  0.000E+00  4.03208E+01  1.730E-01  2.000E+01  2.000E+04 -1.022E-01
   1   12   19     1    19    1.3583E+05 -1.9369E+03   1.3777E+05  0.000E+00  0.000E+00  0.000E+00  3.98450E+01  1.746E-01  2.000E+01  2.000E+04 -9.685E-02
   1   13   20     1    20    1.3777E+05 -6.5558E+01   1.3783E+05  0.000E+00  0.000E+00  0.000E+00  3.93685E+01  1.753E-01  2.000E+01  2.000E+04 -3.278E-03
   1   14   21     1    21    1.3783E+05 -3.9232E+02   1.3822E+05  0.000E+00  0.000E+00  0.000E+00  3.88914E+01  1.755E-01  2.000E+01  2.000E+04 -1.962E-02
   1   14   22     1    22    1.3822E+05  6.6575E+03   1.3157E+05  0.000E+00  0.000E+00  0.000E+00  3.84117E+01  1.731E-01  2.000E+01  2.000E+04  3.329E-01
   1    9   30     2     1    5.0000E+04 -7.1676E+02   5.0717E+04  0.000E+00  0.000E+00  0.000E+00  4.02414E+01  1.164E-01  2.000E+01  2.000E+04 -3.584E-02
   1    9   29     2     2    5.0717E+04 -1.0190E+03   5.1736E+04  0.000E+00  0.000E+00  0.000E+00  3.99926E+01  1.176E-01  2.000E+01  2.000E+04 -5.095E-02
   1    9   28     2     3    5.1736E+04 -1.2704E+03   5.3006E+04  0.000E+00  0.000E+00  0.000E+00  3.97441E+01  1.191E-01  2.000E+01  2.000E+04 -6.352E-02
   1    9   27     2     4    5.3006E+04 -2.3685E+03   5.5375E+04  0.000E+00  0.000E+00  0.000E+00  3.94966E+01  1.216E-01  2.000E+01  2.000E+04 -1.184E-01
   1   10   26     2     5    5.5375E+04 -8.2378E+02   5.6198E+04  0.000E+00  0.000E+00  0.000E+00  3.92487E+01  1.237E-01  2.000E+01  2.000E+04 -4.119E-02
   1   11   25     2     6    5.6198E+04  3.9750E+03   5.2223E+04  0.000E+00  0.000E+00  0.000E+00  3.89966E+01  1.216E-01  2.000E+01  2.000E+04  1.987E-01
   1   12   24     2     7    5.2223E+04  4.7820E+03   4.7441E+04  0.000E+00  0.000E+00  0.000E+00  3.87406E+01  1.156E-01  2.000E+01  2.000E+04  2.391E-01
   1   13   23     2     8    4.7441E+04  8.8491E+02   4.6557E+04  0.000E+00  0.000E+00  0.000E+00  3.84866E+01  1.116E-01  2.000E+01  2.000E+04  4.425E-02
   1   14   22     2     9    4.6557E+04  3.0981E+03   4.3458E+04  0.000E+00  0.000E+00  0.000E+00  3.82338E+01  1.088E-01  2.000E+01  2.000E+04  1.549E-01
   1   14   22     3     1    1.7503E+05 -7.0670E+03   1.8209E+05  0.000E+00  0.000E+00  0.000E+00  3.77255E+01  1.700E-01  2.000E+01  2.000E+04 -3.533E-01
   1   15   23     3     2    1.8209E+05 -6.4915E+02   1.8274E+05  0.000E+00  0.000E+00  0.000E+00  3.68388E+01  1.722E-01  2.000E+01  2.000E+04 -3.246E-02
   1   15   24     3     3    1.8274E+05 -3.6751E+02   1.8311E+05  0.000E+00  0.000E+00  0.000E+00  3.59502E+01  1.725E-01  2.000E+01  2.000E+04 -1.838E-02
   1   15   25     3     4    1.8311E+05 -3.5134E+02   1.8346E+05  0.000E+00  0.000E+00  0.000E+00  3.50615E+01  1.727E-01  2.000E+01  2.000E+04 -1.757E-02
   1   15   26     3     5    1.8346E+05 -3.3703E+02   1.8380E+05  0.000E+00  0.000E+00  0.000E+00  3.41728E+01  1.728E-01  2.000E+01  2.000E+04 -1.685E-02
   1   16   27     3     6    1.8380E+05 -1.3596E+02   1.8393E+05  0.000E+00  0.000E+00  0.000E+00  3.32841E+01  1.730E-01  2.000E+01  2.000E+04 -6.798E-03
   1   17   28     3     7    1.8393E+05  5.2745E+03   1.7866E+05  0.000E+00  0.000E+00  0.000E+00  3.23937E+01  1.715E-01  2.000E+01  2.000E+04  2.637E-01
   1   18   29     3     8    1.7866E+05  7.5487E+03   1.7111E+05  0.000E+00  0.000E+00  0.000E+00  3.15012E+01  1.679E-01  2.000E+01  2.000E+04  3.774E-01
   1   18   30     3     9    1.7111E+05  1.8439E+03   1.6927E+05  0.000E+00  0.000E+00  0.000E+00  3.06096E+01  1.651E-01  2.000E+01  2.000E+04  9.220E-02



1
              HEAD IN LAYER   1 AT END OF TIME STEP   1 IN STRESS PERIOD    6
  ---------------------------------------------------------------------------

          1      2      3      4      5      6      7      8      9     10
         11     12     13     14     15     16     17     18     19     20
         21     22     23     24     25     26     27     28     29     30
 .........................................................................
   1  ****** ****** ****** ****** ****** ****** ****** ****** ****** ******
      ****** ****** ****** ****** ****** ****** ****** ****** ****** ******
      ****** ****** ****** ****** ****** ****** ****** ****** ****** ******
   2  ****** ****** ****** ****** ****** ****** ****** ****** ****** ******
      ****** ****** ****** ****** ****** ****** ****** ****** ****** ******
      ****** ****** ****** ****** ****** ****** ****** ****** ****** ******
   3  ****** ****** ****** ****** ****** ****** ****** ****** ****** ******
      ****** ****** ****** ****** ****** ****** ****** ****** ****** ******
      ****** ****** ****** ****** ****** ****** ****** ****** ****** ******
   4  ****** ****** ****** ****** ****** ****** ****** ****** ****** ******
      ****** ****** ****** ****** ****** ****** ****** ****** ****** ******
      ****** ****** ****** ****** ****** ****** ****** ****** ****** ******
   5  ****** ****** ****** ****** ****** ****** ****** ****** ****** ******
      ****** ****** ****** ****** ****** ****** ****** ****** ****** ******
      ****** ****** ****** ****** ****** ****** ****** ****** ****** ******
   6  ****** ****** ****** ****** ****** ****** ****** ****** ****** ******
      ****** ****** ****** ****** ****** ****** ****** ****** ****** ******
      ****** ****** ****** ****** ****** ****** ****** ****** ****** ******
   7  ****** ****** ****** ****** ****** ****** ****** ****** ****** ******
      ****** ****** ****** ****** ****** ****** ****** ****** ****** ******
      ****** ****** ****** ****** ****** ****** ****** ****** ****** ******
   8  ****** ****** ****** ****** ****** ****** ****** ****** ****** ******
      ****** ****** ****** ****** ****** ****** ****** ****** ****** ******
      ****** ****** ****** ****** ****** ****** ****** ****** ****** ******
   9  ****** ****** ****** ****** ****** ****** ****** ****** ****** ******
      ****** ****** ****** ****** ****** ****** ****** ****** ****** ******
      ****** ****** ****** ****** ****** ****** ****** ****** ****** ******
  10  ****** ****** ****** ****** ****** ****** ****** ****** ****** ******
      ****** ****** ****** ****** ****** ****** ****** ****** ****** ******
      ****** ****** ****** ****** ****** ****** ****** ****** ****** ******
  11  ****** ****** ****** ****** ****** ****** ****** ****** ****** ******
      ****** ****** ****** ****** ****** ****** ****** ****** ****** ******
      ****** ****** ****** ****** ****** ****** ****** ****** ****** ******
  12  ****** ****** ****** ****** ****** ****** ****** ****** ****** ******
      ****** ****** ****** ****** ****** ****** ****** ****** ****** ******
      ****** ****** ****** ****** ****** ****** ****** ****** ****** ******
  13  ****** ****** ****** ****** ****** ****** ****** ****** ****** ******
      ****** ****** ****** ****** ****** ****** ****** ****** ****** ******
      ****** ****** ****** ****** ****** ****** ****** ****** ****** ******
  14  ****** ****** ****** ****** ****** ****** ****** ****** ****** ******
      ****** ****** ****** ****** ****** ****** ****** ****** ****** ******
      ****** ****** ****** ****** ****** ****** ****** ****** ****** ******
  15  ****** ****** ****** ****** ****** ****** ****** ****** ****** ******
      ****** ****** ****** ****** ****** ****** ****** ****** ****** ******
      ****** ****** ****** ****** ****** ****** ****** ****** ****** ******
  16  ****** ****** ****** ****** ****** ****** ****** ****** ****** ******
      ****** ****** ****** ****** ****** ****** ****** ****** ****** ******
      ****** ****** ****** ****** ****** ****** ****** ****** ****** ******
  17  ****** ****** ****** ****** ****** ****** ****** ****** ****** ******
      ****** ****** ****** ****** ****** ****** ****** ****** ****** ******
      ****** ****** ****** ****** ****** ****** ****** ****** ****** ******
  18  ****** ****** ****** ****** ****** ****** ****** ****** ****** ******
      ****** ****** ****** ****** ****** ****** ****** ****** ****** ******
      ****** ****** ****** ****** ****** ****** ****** ****** ****** ******
  19  ****** ****** ****** ****** ****** ****** ****** ****** ****** ******
      ****** ****** ****** ****** ****** ****** ****** ****** ****** ******
      ****** ****** ****** ****** ****** ****** ****** ****** ****** ******
  20  ****** ****** ****** ****** ****** ****** ****** ****** ****** ******
      ****** ****** ****** ****** ****** ****** ****** ****** ****** ******
      ****** ****** ****** ****** ****** ****** ****** ****** ****** ******
  21  ****** ****** ****** ****** ****** ****** ****** ****** ****** ******
      ****** ****** ****** ****** ****** ****** ****** ****** ****** ******
      ****** ****** ****** ****** ****** ****** ****** ****** ****** ******
  22  ****** ****** ****** ****** ****** ****** ****** ****** ****** ******
      ****** ****** ****** ****** ****** ****** ****** ****** ****** ******
      ****** ****** ****** ****** ****** ****** ****** ****** ****** ******
  23  ****** ****** ****** ****** ****** ****** ****** ****** ****** ******
      ****** ****** ****** ****** ****** ****** ****** ****** ****** ******
      ****** ****** ****** ****** ****** ****** ****** ****** ****** ******
  24  ****** ****** ****** ****** ****** ****** ****** ****** ****** ******
      ****** ****** ****** ****** ****** ****** ****** ****** ****** ******
      ****** ****** ****** ****** ****** ****** ****** ****** ****** ******
  25  ****** ****** ****** ****** ****** ****** ****** ****** ****** ******
      ****** ****** ****** ****** ****** ****** ****** ****** ****** ******
      ****** ****** ****** ****** ****** ****** ****** ****** ****** ******

 HEAD WILL BE SAVED ON UNIT   51 AT END OF TIME STEP    1, STRESS PERIOD    6
1
  VOLUMETRIC BUDGET FOR ENTIRE MODEL AT END OF TIME STEP    1, STRESS PERIOD   6
  ------------------------------------------------------------------------------

     CUMULATIVE VOLUMES      L**3       RATES FOR THIS TIME STEP      L**3/T
     ------------------                 ------------------------

           IN:                                      IN:
           ---                                      ---
             STORAGE =    29849154.1674               STORAGE =           0.0000
       CONSTANT HEAD =    12583034.8274         CONSTANT HEAD =       27873.2540
               WELLS =           0.0000                 WELLS =           0.0000
            RECHARGE =    15097200.0000              RECHARGE =       55200.0000
      STREAM LEAKAGE =    15935801.3940        STREAM LEAKAGE =       34064.5412

            TOTAL IN =    73465190.3888              TOTAL IN =      117137.7952

          OUT:                                     OUT:
          ----                                     ----
             STORAGE =      843264.9611               STORAGE =        9257.3580
       CONSTANT HEAD =           0.0000         CONSTANT HEAD =           0.0000
               WELLS =    29893389.9398                 WELLS =       54549.9816
            RECHARGE =           0.0000              RECHARGE =           0.0000
      STREAM LEAKAGE =    42728537.4819        STREAM LEAKAGE =       53330.4528

           TOTAL OUT =    73465192.3827             TOTAL OUT =      117137.7924

            IN - OUT =          -1.9939              IN - OUT =       2.8558E-03

 PERCENT DISCREPANCY =          -0.00     PERCENT DISCREPANCY =           0.00






         TIME SUMMARY AT END OF TIME STEP    1 IN STRESS PERIOD    6
                    SECONDS     MINUTES      HOURS       DAYS        YEARS
                    -----------------------------------------------------------
   TIME STEP LENGTH 7.86240E+06 1.31040E+05  2184.0      91.000     0.24914    
 STRESS PERIOD TIME 7.86240E+06 1.31040E+05  2184.0      91.000     0.24914    
         TOTAL TIME 4.73472E+07 7.89120E+05  13152.      548.00      1.5003    
1
1
                            STRESS PERIOD NO.    7, LENGTH =   91.00000    
                            -----------------------------------------------

                              NUMBER OF TIME STEPS =     1

                               MULTIPLIER FOR DELT =     1.500

                            INITIAL TIME STEP SIZE =   91.00000    

 WELL NO.  LAYER   ROW   COL   STRESS RATE         
 --------------------------------------------------
      1      1     19     29     -0.1190E+05
      2      1     13     22     -0.1207E+05
      3      1     11     24     -0.1558E+05
      4      1     17     29     -0.1500E+05

      4 WELLS

                 RECHARGE =   0.00000    

 REUSING STREAM SEGMENT DATA FROM LAST STRESS PERIOD
 
 SOLVING FOR HEAD 


     7 CALLS TO PCG ROUTINE FOR TIME STEP   1 IN STRESS PERIOD    7
    26 TOTAL ITERATIONS

 OUTPUT CONTROL FOR STRESS PERIOD    7   TIME STEP    1
    SAVE BUDGET
    SAVE HEAD FOR ALL LAYERS
    PRINT HEAD FOR ALL LAYERS
 UBDSV2 SAVING "STREAMFLOW OUT  " ON UNIT  50 AT TIME STEP  1, STRESS PERIOD   7



 STREAM LISTING     PERIOD      7   STEP        1

 LAYER ROW COL. STREAM  RCH.  FLOW INTO     FLOW TO   FLOW OUT OF   OVRLND.     DIRECT     STREAM       STREAM     STREAM     STREAM   STREAMBED  STREAMBED
                SEG.NO.  NO.  STRM. RCH.    AQUIFER    STRM. RCH.    RUNOFF     PRECIP       ET          HEAD       DEPTH      WIDTH   CONDCTNC.   GRADIENT

   1   13    1     1     1    1.0000E+05 -1.8146E+03   1.0181E+05  0.000E+00  0.000E+00  0.000E+00  4.84068E+01  1.454E-01  2.000E+01  2.000E+04 -9.073E-02
   1   13    2     1     2    1.0181E+05 -2.7879E+03   1.0460E+05  0.000E+00  0.000E+00  0.000E+00  4.79315E+01  1.474E-01  2.000E+01  2.000E+04 -1.394E-01
   1   14    3     1     3    1.0460E+05 -4.1603E+02   1.0502E+05  0.000E+00  0.000E+00  0.000E+00  4.74556E+01  1.488E-01  2.000E+01  2.000E+04 -2.080E-02
   1   15    4     1     4    1.0502E+05 -3.8330E+02   1.0540E+05  0.000E+00  0.000E+00  0.000E+00  4.69787E+01  1.491E-01  2.000E+01  2.000E+04 -1.916E-02
   1   16    5     1     5    1.0540E+05 -1.4960E+03   1.0690E+05  0.000E+00  0.000E+00  0.000E+00  4.65022E+01  1.499E-01  2.000E+01  2.000E+04 -7.480E-02
   1   16    6     1     6    1.0690E+05 -9.5962E+02   1.0786E+05  0.000E+00  0.000E+00  0.000E+00  4.60260E+01  1.510E-01  2.000E+01  2.000E+04 -4.798E-02
   1   16    7     1     7    1.0786E+05 -9.4994E+02   1.0881E+05  0.000E+00  0.000E+00  0.000E+00  4.55495E+01  1.518E-01  2.000E+01  2.000E+04 -4.750E-02
   1   16    8     1     8    1.0881E+05 -9.5027E+02   1.0976E+05  0.000E+00  0.000E+00  0.000E+00  4.50730E+01  1.526E-01  2.000E+01  2.000E+04 -4.751E-02
   1   16    9     1     9    1.0976E+05 -9.4493E+02   1.1070E+05  0.000E+00  0.000E+00  0.000E+00  4.45965E+01  1.534E-01  2.000E+01  2.000E+04 -4.725E-02
   1   16   10     1    10    1.1070E+05 -9.3454E+02   1.1164E+05  0.000E+00  0.000E+00  0.000E+00  4.41200E+01  1.541E-01  2.000E+01  2.000E+04 -4.673E-02
   1   16   11     1    11    1.1164E+05 -9.4011E+02   1.1258E+05  0.000E+00  0.000E+00  0.000E+00  4.36436E+01  1.549E-01  2.000E+01  2.000E+04 -4.701E-02
   1   16   12     1    12    1.1258E+05 -1.6308E+03   1.1421E+05  0.000E+00  0.000E+00  0.000E+00  4.31673E+01  1.560E-01  2.000E+01  2.000E+04 -8.154E-02
   1   15   13     1    13    1.1421E+05 -1.5489E+03   1.1576E+05  0.000E+00  0.000E+00  0.000E+00  4.26914E+01  1.573E-01  2.000E+01  2.000E+04 -7.745E-02
   1   14   14     1    14    1.1576E+05 -1.8262E+03   1.1758E+05  0.000E+00  0.000E+00  0.000E+00  4.22155E+01  1.587E-01  2.000E+01  2.000E+04 -9.131E-02
   1   13   15     1    15    1.1758E+05 -2.1264E+03   1.1971E+05  0.000E+00  0.000E+00  0.000E+00  4.17398E+01  1.603E-01  2.000E+01  2.000E+04 -1.063E-01
   1   12   16     1    16    1.1971E+05 -2.7300E+03   1.2244E+05  0.000E+00  0.000E+00  0.000E+00  4.12645E+01  1.622E-01  2.000E+01  2.000E+04 -1.365E-01
   1   12   17     1    17    1.2244E+05 -1.6876E+03   1.2413E+05  0.000E+00  0.000E+00  0.000E+00  4.07890E+01  1.640E-01  2.000E+01  2.000E+04 -8.438E-02
   1   12   18     1    18    1.2413E+05 -1.4874E+03   1.2561E+05  0.000E+00  0.000E+00  0.000E+00  4.03130E+01  1.653E-01  2.000E+01  2.000E+04 -7.437E-02
   1   12   19     1    19    1.2561E+05 -1.2557E+03   1.2687E+05  0.000E+00  0.000E+00  0.000E+00  3.98368E+01  1.664E-01  2.000E+01  2.000E+04 -6.279E-02
   1   13   20     1    20    1.2687E+05  6.0073E+02   1.2627E+05  0.000E+00  0.000E+00  0.000E+00  3.93598E+01  1.666E-01  2.000E+01  2.000E+04  3.004E-02
   1   14   21     1    21    1.2627E+05  2.6670E+02   1.2600E+05  0.000E+00  0.000E+00  0.000E+00  3.88822E+01  1.663E-01  2.000E+01  2.000E+04  1.334E-02
   1   14   22     1    22    1.2600E+05  6.8227E+03   1.1918E+05  0.000E+00  0.000E+00  0.000E+00  3.84021E+01  1.635E-01  2.000E+01  2.000E+04  3.411E-01
   1    9   30     2     1    5.0000E+04 -2.0450E+02   5.0205E+04  0.000E+00  0.000E+00  0.000E+00  4.02410E+01  1.160E-01  2.000E+01  2.000E+04 -1.023E-02
   1    9   29     2     2    5.0205E+04 -5.0863E+02   5.0713E+04  0.000E+00  0.000E+00  0.000E+00  3.99915E+01  1.165E-01  2.000E+01  2.000E+04 -2.543E-02
   1    9   28     2     3    5.0713E+04 -7.5892E+02   5.1472E+04  0.000E+00  0.000E+00  0.000E+00  3.97424E+01  1.174E-01  2.000E+01  2.000E+04 -3.795E-02
   1    9   27     2     4    5.1472E+04 -1.6748E+03   5.3147E+04  0.000E+00  0.000E+00  0.000E+00  3.94940E+01  1.190E-01  2.000E+01  2.000E+04 -8.374E-02
   1   10   26     2     5    5.3147E+04 -1.2758E+02   5.3274E+04  0.000E+00  0.000E+00  0.000E+00  3.92453E+01  1.203E-01  2.000E+01  2.000E+04 -6.379E-03
   1   11   25     2     6    5.3274E+04  4.6427E+03   4.8632E+04  0.000E+00  0.000E+00  0.000E+00  3.89922E+01  1.172E-01  2.000E+01  2.000E+04  2.321E-01
   1   12   24     2     7    4.8632E+04  5.3902E+03   4.3242E+04  0.000E+00  0.000E+00  0.000E+00  3.87351E+01  1.101E-01  2.000E+01  2.000E+04  2.695E-01
   1   13   23     2     8    4.3242E+04  1.0762E+03   4.2165E+04  0.000E+00  0.000E+00  0.000E+00  3.84804E+01  1.054E-01  2.000E+01  2.000E+04  5.381E-02
   1   14   22     2     9    4.2165E+04  3.3231E+03   3.8842E+04  0.000E+00  0.000E+00  0.000E+00  3.82271E+01  1.021E-01  2.000E+01  2.000E+04  1.662E-01
   1   14   22     3     1    1.5802E+05 -6.9077E+03   1.6493E+05  0.000E+00  0.000E+00  0.000E+00  3.77156E+01  1.600E-01  2.000E+01  2.000E+04 -3.454E-01
   1   15   23     3     2    1.6493E+05 -4.4322E+02   1.6537E+05  0.000E+00  0.000E+00  0.000E+00  3.68289E+01  1.622E-01  2.000E+01  2.000E+04 -2.216E-02
   1   15   24     3     3    1.6537E+05 -1.9408E+02   1.6557E+05  0.000E+00  0.000E+00  0.000E+00  3.59402E+01  1.624E-01  2.000E+01  2.000E+04 -9.704E-03
   1   15   25     3     4    1.6557E+05 -1.7478E+02   1.6574E+05  0.000E+00  0.000E+00  0.000E+00  3.50514E+01  1.625E-01  2.000E+01  2.000E+04 -8.739E-03
   1   15   26     3     5    1.6574E+05 -1.3590E+02   1.6588E+05  0.000E+00  0.000E+00  0.000E+00  3.41626E+01  1.626E-01  2.000E+01  2.000E+04 -6.795E-03
   1   16   27     3     6    1.6588E+05  9.6271E+01   1.6578E+05  0.000E+00  0.000E+00  0.000E+00  3.32737E+01  1.626E-01  2.000E+01  2.000E+04  4.814E-03
   1   17   28     3     7    1.6578E+05  5.9157E+03   1.5987E+05  0.000E+00  0.000E+00  0.000E+00  3.23830E+01  1.608E-01  2.000E+01  2.000E+04  2.958E-01
   1   18   29     3     8    1.5987E+05  8.2343E+03   1.5163E+05  0.000E+00  0.000E+00  0.000E+00  3.14899E+01  1.566E-01  2.000E+01  2.000E+04  4.117E-01
   1   18   30     3     9    1.5163E+05  2.3718E+03   1.4926E+05  0.000E+00  0.000E+00  0.000E+00  3.05978E+01  1.534E-01  2.000E+01  2.000E+04  1.186E-01



1
              HEAD IN LAYER   1 AT END OF TIME STEP   1 IN STRESS PERIOD    7
  ---------------------------------------------------------------------------

          1      2      3      4      5      6      7      8      9     10
         11     12     13     14     15     16     17     18     19     20
         21     22     23     24     25     26     27     28     29     30
 .........................................................................
   1  ****** ****** ****** ****** ****** ****** ****** ****** ****** ******
      ****** ****** ****** ****** ****** ****** ****** ****** ****** ******
      ****** ****** ****** ****** ****** ****** ****** ****** ****** ******
   2  ****** ****** ****** ****** ****** ****** ****** ****** ****** ******
      ****** ****** ****** ****** ****** ****** ****** ****** ****** ******
      ****** ****** ****** ****** ****** ****** ****** ****** ****** ******
   3  ****** ****** ****** ****** ****** ****** ****** ****** ****** ******
      ****** ****** ****** ****** ****** ****** ****** ****** ****** ******
      ****** ****** ****** ****** ****** ****** ****** ****** ****** ******
   4  ****** ****** ****** ****** ****** ****** ****** ****** ****** ******
      ****** ****** ****** ****** ****** ****** ****** ****** ****** ******
      ****** ****** ****** ****** ****** ****** ****** ****** ****** ******
   5  ****** ****** ****** ****** ****** ****** ****** ****** ****** ******
      ****** ****** ****** ****** ****** ****** ****** ****** ****** ******
      ****** ****** ****** ****** ****** ****** ****** ****** ****** ******
   6  ****** ****** ****** ****** ****** ****** ****** ****** ****** ******
      ****** ****** ****** ****** ****** ****** ****** ****** ****** ******
      ****** ****** ****** ****** ****** ****** ****** ****** ****** ******
   7  ****** ****** ****** ****** ****** ****** ****** ****** ****** ******
      ****** ****** ****** ****** ****** ****** ****** ****** ****** ******
      ****** ****** ****** ****** ****** ****** ****** ****** ****** ******
   8  ****** ****** ****** ****** ****** ****** ****** ****** ****** ******
      ****** ****** ****** ****** ****** ****** ****** ****** ****** ******
      ****** ****** ****** ****** ****** ****** ****** ****** ****** ******
   9  ****** ****** ****** ****** ****** ****** ****** ****** ****** ******
      ****** ****** ****** ****** ****** ****** ****** ****** ****** ******
      ****** ****** ****** ****** ****** ****** ****** ****** ****** ******
  10  ****** ****** ****** ****** ****** ****** ****** ****** ****** ******
      ****** ****** ****** ****** ****** ****** ****** ****** ****** ******
      ****** ****** ****** ****** ****** ****** ****** ****** ****** ******
  11  ****** ****** ****** ****** ****** ****** ****** ****** ****** ******
      ****** ****** ****** ****** ****** ****** ****** ****** ****** ******
      ****** ****** ****** ****** ****** ****** ****** ****** ****** ******
  12  ****** ****** ****** ****** ****** ****** ****** ****** ****** ******
      ****** ****** ****** ****** ****** ****** ****** ****** ****** ******
      ****** ****** ****** ****** ****** ****** ****** ****** ****** ******
  13  ****** ****** ****** ****** ****** ****** ****** ****** ****** ******
      ****** ****** ****** ****** ****** ****** ****** ****** ****** ******
      ****** ****** ****** ****** ****** ****** ****** ****** ****** ******
  14  ****** ****** ****** ****** ****** ****** ****** ****** ****** ******
      ****** ****** ****** ****** ****** ****** ****** ****** ****** ******
      ****** ****** ****** ****** ****** ****** ****** ****** ****** ******
  15  ****** ****** ****** ****** ****** ****** ****** ****** ****** ******
      ****** ****** ****** ****** ****** ****** ****** ****** ****** ******
      ****** ****** ****** ****** ****** ****** ****** ****** ****** ******
  16  ****** ****** ****** ****** ****** ****** ****** ****** ****** ******
      ****** ****** ****** ****** ****** ****** ****** ****** ****** ******
      ****** ****** ****** ****** ****** ****** ****** ****** ****** ******
  17  ****** ****** ****** ****** ****** ****** ****** ****** ****** ******
      ****** ****** ****** ****** ****** ****** ****** ****** ****** ******
      ****** ****** ****** ****** ****** ****** ****** ****** ****** ******
  18  ****** ****** ****** ****** ****** ****** ****** ****** ****** ******
      ****** ****** ****** ****** ****** ****** ****** ****** ****** ******
      ****** ****** ****** ****** ****** ****** ****** ****** ****** ******
  19  ****** ****** ****** ****** ****** ****** ****** ****** ****** ******
      ****** ****** ****** ****** ****** ****** ****** ****** ****** ******
      ****** ****** ****** ****** ****** ****** ****** ****** ****** ******
  20  ****** ****** ****** ****** ****** ****** ****** ****** ****** ******
      ****** ****** ****** ****** ****** ****** ****** ****** ****** ******
      ****** ****** ****** ****** ****** ****** ****** ****** ****** ******
  21  ****** ****** ****** ****** ****** ****** ****** ****** ****** ******
      ****** ****** ****** ****** ****** ****** ****** ****** ****** ******
      ****** ****** ****** ****** ****** ****** ****** ****** ****** ******
  22  ****** ****** ****** ****** ****** ****** ****** ****** ****** ******
      ****** ****** ****** ****** ****** ****** ****** ****** ****** ******
      ****** ****** ****** ****** ****** ****** ****** ****** ****** ******
  23  ****** ****** ****** ****** ****** ****** ****** ****** ****** ******
      ****** ****** ****** ****** ****** ****** ****** ****** ****** ******
      ****** ****** ****** ****** ****** ****** ****** ****** ****** ******
  24  ****** ****** ****** ****** ****** ****** ****** ****** ****** ******
      ****** ****** ****** ****** ****** ****** ****** ****** ****** ******
      ****** ****** ****** ****** ****** ****** ****** ****** ****** ******
  25  ****** ****** ****** ****** ****** ****** ****** ****** ****** ******
      ****** ****** ****** ****** ****** ****** ****** ****** ****** ******
      ****** ****** ****** ****** ****** ****** ****** ****** ****** ******

 HEAD WILL BE SAVED ON UNIT   51 AT END OF TIME STEP    1, STRESS PERIOD    7
1
  VOLUMETRIC BUDGET FOR ENTIRE MODEL AT END OF TIME STEP    1, STRESS PERIOD   7
  ------------------------------------------------------------------------------

     CUMULATIVE VOLUMES      L**3       RATES FOR THIS TIME STEP      L**3/T
     ------------------                 ------------------------

           IN:                                      IN:
           ---                                      ---
             STORAGE =    31855905.3265               STORAGE =       22052.2105
       CONSTANT HEAD =    15472985.4474         CONSTANT HEAD =       31757.6991
               WELLS =           0.0000                 WELLS =           0.0000
            RECHARGE =    15097200.0000              RECHARGE =           0.0000
      STREAM LEAKAGE =    19461179.2281        STREAM LEAKAGE =       38740.4158

            TOTAL IN =    81887270.0021              TOTAL IN =       92550.3254

          OUT:                                     OUT:
          ----                                     ----
             STORAGE =      843264.9611               STORAGE =           0.0000
       CONSTANT HEAD =           0.0000         CONSTANT HEAD =           0.0000
               WELLS =    34857438.2692                 WELLS =       54549.9816
            RECHARGE =           0.0000              RECHARGE =           0.0000
      STREAM LEAKAGE =    46186569.2479        STREAM LEAKAGE =       38000.3491

           TOTAL OUT =    81887272.4782             TOTAL OUT =       92550.3307

            IN - OUT =          -2.4761              IN - OUT =      -5.2987E-03

 PERCENT DISCREPANCY =          -0.00     PERCENT DISCREPANCY =          -0.00






         TIME SUMMARY AT END OF TIME STEP    1 IN STRESS PERIOD    7
                    SECONDS     MINUTES      HOURS       DAYS        YEARS
                    -----------------------------------------------------------
   TIME STEP LENGTH 7.86240E+06 1.31040E+05  2184.0      91.000     0.24914    
 STRESS PERIOD TIME 7.86240E+06 1.31040E+05  2184.0      91.000     0.24914    
         TOTAL TIME 5.52096E+07 9.20160E+05  15336.      639.00      1.7495    
1
1
                            STRESS PERIOD NO.    8, LENGTH =   91.00000    
                            -----------------------------------------------

                              NUMBER OF TIME STEPS =     1

                               MULTIPLIER FOR DELT =     1.500

                            INITIAL TIME STEP SIZE =   91.00000    

 WELL NO.  LAYER   ROW   COL   STRESS RATE         
 --------------------------------------------------
      1      1     19     29     -0.1190E+05
      2      1     13     22     -0.1207E+05
      3      1     11     24     -0.1558E+05
      4      1     17     29     -0.1500E+05

      4 WELLS

                 RECHARGE =  1.000000E-03

 REUSING STREAM SEGMENT DATA FROM LAST STRESS PERIOD
 
 SOLVING FOR HEAD 


     6 CALLS TO PCG ROUTINE FOR TIME STEP   1 IN STRESS PERIOD    8
    22 TOTAL ITERATIONS

 OUTPUT CONTROL FOR STRESS PERIOD    8   TIME STEP    1
    SAVE BUDGET
    SAVE HEAD FOR ALL LAYERS
    PRINT HEAD FOR ALL LAYERS
 UBDSV2 SAVING "STREAMFLOW OUT  " ON UNIT  50 AT TIME STEP  1, STRESS PERIOD   8



 STREAM LISTING     PERIOD      8   STEP        1

 LAYER ROW COL. STREAM  RCH.  FLOW INTO     FLOW TO   FLOW OUT OF   OVRLND.     DIRECT     STREAM       STREAM     STREAM     STREAM   STREAMBED  STREAMBED
                SEG.NO.  NO.  STRM. RCH.    AQUIFER    STRM. RCH.    RUNOFF     PRECIP       ET          HEAD       DEPTH      WIDTH   CONDCTNC.   GRADIENT

   1   13    1     1     1    1.0000E+05 -1.8938E+03   1.0189E+05  0.000E+00  0.000E+00  0.000E+00  4.84068E+01  1.455E-01  2.000E+01  2.000E+04 -9.469E-02
   1   13    2     1     2    1.0189E+05 -2.8676E+03   1.0476E+05  0.000E+00  0.000E+00  0.000E+00  4.79316E+01  1.475E-01  2.000E+01  2.000E+04 -1.434E-01
   1   14    3     1     3    1.0476E+05 -4.8104E+02   1.0524E+05  0.000E+00  0.000E+00  0.000E+00  4.74558E+01  1.490E-01  2.000E+01  2.000E+04 -2.405E-02
   1   15    4     1     4    1.0524E+05 -4.5278E+02   1.0570E+05  0.000E+00  0.000E+00  0.000E+00  4.69789E+01  1.493E-01  2.000E+01  2.000E+04 -2.264E-02
   1   16    5     1     5    1.0570E+05 -1.6712E+03   1.0737E+05  0.000E+00  0.000E+00  0.000E+00  4.65025E+01  1.502E-01  2.000E+01  2.000E+04 -8.356E-02
   1   16    6     1     6    1.0737E+05 -1.0676E+03   1.0843E+05  0.000E+00  0.000E+00  0.000E+00  4.60264E+01  1.514E-01  2.000E+01  2.000E+04 -5.338E-02
   1   16    7     1     7    1.0843E+05 -1.0530E+03   1.0949E+05  0.000E+00  0.000E+00  0.000E+00  4.55500E+01  1.523E-01  2.000E+01  2.000E+04 -5.265E-02
   1   16    8     1     8    1.0949E+05 -1.0525E+03   1.1054E+05  0.000E+00  0.000E+00  0.000E+00  4.50736E+01  1.532E-01  2.000E+01  2.000E+04 -5.262E-02
   1   16    9     1     9    1.1054E+05 -1.0482E+03   1.1159E+05  0.000E+00  0.000E+00  0.000E+00  4.45972E+01  1.541E-01  2.000E+01  2.000E+04 -5.241E-02
   1   16   10     1    10    1.1159E+05 -1.0403E+03   1.1263E+05  0.000E+00  0.000E+00  0.000E+00  4.41208E+01  1.549E-01  2.000E+01  2.000E+04 -5.201E-02
   1   16   11     1    11    1.1263E+05 -1.0488E+03   1.1368E+05  0.000E+00  0.000E+00  0.000E+00  4.36444E+01  1.558E-01  2.000E+01  2.000E+04 -5.244E-02
   1   16   12     1    12    1.1368E+05 -1.7938E+03   1.1547E+05  0.000E+00  0.000E+00  0.000E+00  4.31683E+01  1.570E-01  2.000E+01  2.000E+04 -8.969E-02
   1   15   13     1    13    1.1547E+05 -1.7198E+03   1.1719E+05  0.000E+00  0.000E+00  0.000E+00  4.26925E+01  1.584E-01  2.000E+01  2.000E+04 -8.599E-02
   1   14   14     1    14    1.1719E+05 -1.9907E+03   1.1918E+05  0.000E+00  0.000E+00  0.000E+00  4.22167E+01  1.599E-01  2.000E+01  2.000E+04 -9.953E-02
   1   13   15     1    15    1.1918E+05 -2.2785E+03   1.2146E+05  0.000E+00  0.000E+00  0.000E+00  4.17412E+01  1.616E-01  2.000E+01  2.000E+04 -1.139E-01
   1   12   16     1    16    1.2146E+05 -2.8451E+03   1.2430E+05  0.000E+00  0.000E+00  0.000E+00  4.12660E+01  1.637E-01  2.000E+01  2.000E+04 -1.423E-01
   1   12   17     1    17    1.2430E+05 -1.8010E+03   1.2611E+05  0.000E+00  0.000E+00  0.000E+00  4.07905E+01  1.655E-01  2.000E+01  2.000E+04 -9.005E-02
   1   12   18     1    18    1.2611E+05 -1.6072E+03   1.2771E+05  0.000E+00  0.000E+00  0.000E+00  4.03146E+01  1.669E-01  2.000E+01  2.000E+04 -8.036E-02
   1   12   19     1    19    1.2771E+05 -1.4066E+03   1.2912E+05  0.000E+00  0.000E+00  0.000E+00  3.98385E+01  1.681E-01  2.000E+01  2.000E+04 -7.033E-02
   1   13   20     1    20    1.2912E+05  4.2141E+02   1.2870E+05  0.000E+00  0.000E+00  0.000E+00  3.93616E+01  1.685E-01  2.000E+01  2.000E+04  2.107E-02
   1   14   21     1    21    1.2870E+05  1.0720E+02   1.2859E+05  0.000E+00  0.000E+00  0.000E+00  3.88842E+01  1.683E-01  2.000E+01  2.000E+04  5.360E-03
   1   14   22     1    22    1.2859E+05  6.7727E+03   1.2182E+05  0.000E+00  0.000E+00  0.000E+00  3.84042E+01  1.655E-01  2.000E+01  2.000E+04  3.386E-01
   1    9   30     2     1    5.0000E+04 -3.6814E+02   5.0368E+04  0.000E+00  0.000E+00  0.000E+00  4.02411E+01  1.161E-01  2.000E+01  2.000E+04 -1.841E-02
   1    9   29     2     2    5.0368E+04 -6.6951E+02   5.1038E+04  0.000E+00  0.000E+00  0.000E+00  3.99918E+01  1.168E-01  2.000E+01  2.000E+04 -3.348E-02
   1    9   28     2     3    5.1038E+04 -9.1432E+02   5.1952E+04  0.000E+00  0.000E+00  0.000E+00  3.97429E+01  1.179E-01  2.000E+01  2.000E+04 -4.572E-02
   1    9   27     2     4    5.1952E+04 -1.8540E+03   5.3806E+04  0.000E+00  0.000E+00  0.000E+00  3.94948E+01  1.198E-01  2.000E+01  2.000E+04 -9.270E-02
   1   10   26     2     5    5.3806E+04 -3.3371E+02   5.4140E+04  0.000E+00  0.000E+00  0.000E+00  3.92463E+01  1.213E-01  2.000E+01  2.000E+04 -1.669E-02
   1   11   25     2     6    5.4140E+04  4.4381E+03   4.9702E+04  0.000E+00  0.000E+00  0.000E+00  3.89935E+01  1.185E-01  2.000E+01  2.000E+04  2.219E-01
   1   12   24     2     7    4.9702E+04  5.2046E+03   4.4497E+04  0.000E+00  0.000E+00  0.000E+00  3.87368E+01  1.118E-01  2.000E+01  2.000E+04  2.602E-01
   1   13   23     2     8    4.4497E+04  1.0018E+03   4.3495E+04  0.000E+00  0.000E+00  0.000E+00  3.84823E+01  1.073E-01  2.000E+01  2.000E+04  5.009E-02
   1   14   22     2     9    4.3495E+04  3.2721E+03   4.0223E+04  0.000E+00  0.000E+00  0.000E+00  3.82291E+01  1.041E-01  2.000E+01  2.000E+04  1.636E-01
   1   14   22     3     1    1.6204E+05 -6.9515E+03   1.6899E+05  0.000E+00  0.000E+00  0.000E+00  3.77180E+01  1.624E-01  2.000E+01  2.000E+04 -3.476E-01
   1   15   23     3     2    1.6899E+05 -5.0753E+02   1.6950E+05  0.000E+00  0.000E+00  0.000E+00  3.68313E+01  1.646E-01  2.000E+01  2.000E+04 -2.538E-02
   1   15   24     3     3    1.6950E+05 -2.5460E+02   1.6975E+05  0.000E+00  0.000E+00  0.000E+00  3.59426E+01  1.648E-01  2.000E+01  2.000E+04 -1.273E-02
   1   15   25     3     4    1.6975E+05 -2.3700E+02   1.6999E+05  0.000E+00  0.000E+00  0.000E+00  3.50538E+01  1.650E-01  2.000E+01  2.000E+04 -1.185E-02
   1   15   26     3     5    1.6999E+05 -2.1054E+02   1.7020E+05  0.000E+00  0.000E+00  0.000E+00  3.41651E+01  1.651E-01  2.000E+01  2.000E+04 -1.053E-02
   1   16   27     3     6    1.7020E+05  1.4477E+01   1.7019E+05  0.000E+00  0.000E+00  0.000E+00  3.32763E+01  1.651E-01  2.000E+01  2.000E+04  7.238E-04
   1   17   28     3     7    1.7019E+05  5.7121E+03   1.6448E+05  0.000E+00  0.000E+00  0.000E+00  3.23857E+01  1.635E-01  2.000E+01  2.000E+04  2.856E-01
   1   18   29     3     8    1.6448E+05  8.0691E+03   1.5641E+05  0.000E+00  0.000E+00  0.000E+00  3.14927E+01  1.594E-01  2.000E+01  2.000E+04  4.035E-01
   1   18   30     3     9    1.5641E+05  2.2254E+03   1.5418E+05  0.000E+00  0.000E+00  0.000E+00  3.06008E+01  1.563E-01  2.000E+01  2.000E+04  1.113E-01



1
              HEAD IN LAYER   1 AT END OF TIME STEP   1 IN STRESS PERIOD    8
  ---------------------------------------------------------------------------

          1      2      3      4      5      6      7      8      9     10
         11     12     13     14     15     16     17     18     19     20
         21     22     23     24     25     26     27     28     29     30
 .........................................................................
   1  ****** ****** ****** ****** ****** ****** ****** ****** ****** ******
      ****** ****** ****** ****** ****** ****** ****** ****** ****** ******
      ****** ****** ****** ****** ****** ****** ****** ****** ****** ******
   2  ****** ****** ****** ****** ****** ****** ****** ****** ****** ******
      ****** ****** ****** ****** ****** ****** ****** ****** ****** ******
      ****** ****** ****** ****** ****** ****** ****** ****** ****** ******
   3  ****** ****** ****** ****** ****** ****** ****** ****** ****** ******
      ****** ****** ****** ****** ****** ****** ****** ****** ****** ******
      ****** ****** ****** ****** ****** ****** ****** ****** ****** ******
   4  ****** ****** ****** ****** ****** ****** ****** ****** ****** ******
      ****** ****** ****** ****** ****** ****** ****** ****** ****** ******
      ****** ****** ****** ****** ****** ****** ****** ****** ****** ******
   5  ****** ****** ****** ****** ****** ****** ****** ****** ****** ******
      ****** ****** ****** ****** ****** ****** ****** ****** ****** ******
      ****** ****** ****** ****** ****** ****** ****** ****** ****** ******
   6  ****** ****** ****** ****** ****** ****** ****** ****** ****** ******
      ****** ****** ****** ****** ****** ****** ****** ****** ****** ******
      ****** ****** ****** ****** ****** ****** ****** ****** ****** ******
   7  ****** ****** ****** ****** ****** ****** ****** ****** ****** ******
      ****** ****** ****** ****** ****** ****** ****** ****** ****** ******
      ****** ****** ****** ****** ****** ****** ****** ****** ****** ******
   8  ****** ****** ****** ****** ****** ****** ****** ****** ****** ******
      ****** ****** ****** ****** ****** ****** ****** ****** ****** ******
      ****** ****** ****** ****** ****** ****** ****** ****** ****** ******
   9  ****** ****** ****** ****** ****** ****** ****** ****** ****** ******
      ****** ****** ****** ****** ****** ****** ****** ****** ****** ******
      ****** ****** ****** ****** ****** ****** ****** ****** ****** ******
  10  ****** ****** ****** ****** ****** ****** ****** ****** ****** ******
      ****** ****** ****** ****** ****** ****** ****** ****** ****** ******
      ****** ****** ****** ****** ****** ****** ****** ****** ****** ******
  11  ****** ****** ****** ****** ****** ****** ****** ****** ****** ******
      ****** ****** ****** ****** ****** ****** ****** ****** ****** ******
      ****** ****** ****** ****** ****** ****** ****** ****** ****** ******
  12  ****** ****** ****** ****** ****** ****** ****** ****** ****** ******
      ****** ****** ****** ****** ****** ****** ****** ****** ****** ******
      ****** ****** ****** ****** ****** ****** ****** ****** ****** ******
  13  ****** ****** ****** ****** ****** ****** ****** ****** ****** ******
      ****** ****** ****** ****** ****** ****** ****** ****** ****** ******
      ****** ****** ****** ****** ****** ****** ****** ****** ****** ******
  14  ****** ****** ****** ****** ****** ****** ****** ****** ****** ******
      ****** ****** ****** ****** ****** ****** ****** ****** ****** ******
      ****** ****** ****** ****** ****** ****** ****** ****** ****** ******
  15  ****** ****** ****** ****** ****** ****** ****** ****** ****** ******
      ****** ****** ****** ****** ****** ****** ****** ****** ****** ******
      ****** ****** ****** ****** ****** ****** ****** ****** ****** ******
  16  ****** ****** ****** ****** ****** ****** ****** ****** ****** ******
      ****** ****** ****** ****** ****** ****** ****** ****** ****** ******
      ****** ****** ****** ****** ****** ****** ****** ****** ****** ******
  17  ****** ****** ****** ****** ****** ****** ****** ****** ****** ******
      ****** ****** ****** ****** ****** ****** ****** ****** ****** ******
      ****** ****** ****** ****** ****** ****** ****** ****** ****** ******
  18  ****** ****** ****** ****** ****** ****** ****** ****** ****** ******
      ****** ****** ****** ****** ****** ****** ****** ****** ****** ******
      ****** ****** ****** ****** ****** ****** ****** ****** ****** ******
  19  ****** ****** ****** ****** ****** ****** ****** ****** ****** ******
      ****** ****** ****** ****** ****** ****** ****** ****** ****** ******
      ****** ****** ****** ****** ****** ****** ****** ****** ****** ******
  20  ****** ****** ****** ****** ****** ****** ****** ****** ****** ******
      ****** ****** ****** ****** ****** ****** ****** ****** ****** ******
      ****** ****** ****** ****** ****** ****** ****** ****** ****** ******
  21  ****** ****** ****** ****** ****** ****** ****** ****** ****** ******
      ****** ****** ****** ****** ****** ****** ****** ****** ****** ******
      ****** ****** ****** ****** ****** ****** ****** ****** ****** ******
  22  ****** ****** ****** ****** ****** ****** ****** ****** ****** ******
      ****** ****** ****** ****** ****** ****** ****** ****** ****** ******
      ****** ****** ****** ****** ****** ****** ****** ****** ****** ******
  23  ****** ****** ****** ****** ****** ****** ****** ****** ****** ******
      ****** ****** ****** ****** ****** ****** ****** ****** ****** ******
      ****** ****** ****** ****** ****** ****** ****** ****** ****** ******
  24  ****** ****** ****** ****** ****** ****** ****** ****** ****** ******
      ****** ****** ****** ****** ****** ****** ****** ****** ****** ******
      ****** ****** ****** ****** ****** ****** ****** ****** ****** ******
  25  ****** ****** ****** ****** ****** ****** ****** ****** ****** ******
      ****** ****** ****** ****** ****** ****** ****** ****** ****** ******
      ****** ****** ****** ****** ****** ****** ****** ****** ****** ******

 HEAD WILL BE SAVED ON UNIT   51 AT END OF TIME STEP    1, STRESS PERIOD    8
1
  VOLUMETRIC BUDGET FOR ENTIRE MODEL AT END OF TIME STEP    1, STRESS PERIOD   8
  ------------------------------------------------------------------------------

     CUMULATIVE VOLUMES      L**3       RATES FOR THIS TIME STEP      L**3/T
     ------------------                 ------------------------

           IN:                                      IN:
           ---                                      ---
             STORAGE =    31975148.4981               STORAGE =        1310.3645
       CONSTANT HEAD =    18333580.5883         CONSTANT HEAD =       31435.1114
               WELLS =           0.0000                 WELLS =           0.0000
            RECHARGE =    17608800.0000              RECHARGE =       27600.0000
      STREAM LEAKAGE =    22849937.7143        STREAM LEAKAGE =       37239.1042

            TOTAL IN =    90767466.8008              TOTAL IN =       97584.5802

          OUT:                                     OUT:
          ----                                     ----
             STORAGE =      990164.4223               STORAGE =        1614.2798
       CONSTANT HEAD =           0.0000         CONSTANT HEAD =           0.0000
               WELLS =    39821486.5986                 WELLS =       54549.9816
            RECHARGE =           0.0000              RECHARGE =           0.0000
      STREAM LEAKAGE =    49955817.4903        STREAM LEAKAGE =       41420.3104

           TOTAL OUT =    90767468.5113             TOTAL OUT =       97584.5718

            IN - OUT =          -1.7105              IN - OUT =       8.4134E-03

 PERCENT DISCREPANCY =          -0.00     PERCENT DISCREPANCY =           0.00






         TIME SUMMARY AT END OF TIME STEP    1 IN STRESS PERIOD    8
                    SECONDS     MINUTES      HOURS       DAYS        YEARS
                    -----------------------------------------------------------
   TIME STEP LENGTH 7.86240E+06 1.31040E+05  2184.0      91.000     0.24914    
 STRESS PERIOD TIME 7.86240E+06 1.31040E+05  2184.0      91.000     0.24914    
         TOTAL TIME 6.30720E+07 1.05120E+06  17520.      730.00      1.9986    
1
1
                            STRESS PERIOD NO.    9, LENGTH =   92.00000    
                            -----------------------------------------------

                              NUMBER OF TIME STEPS =     1

                               MULTIPLIER FOR DELT =     1.500

                            INITIAL TIME STEP SIZE =   92.00000    

 WELL NO.  LAYER   ROW   COL   STRESS RATE         
 --------------------------------------------------
      1      1     19     29     -0.1190E+05
      2      1     13     22     -0.1207E+05
      3      1     11     24     -0.1558E+05
      4      1     17     29     -0.1500E+05

      4 WELLS

                 RECHARGE =  5.000000E-04

 REUSING STREAM SEGMENT DATA FROM LAST STRESS PERIOD
 
 SOLVING FOR HEAD 


     6 CALLS TO PCG ROUTINE FOR TIME STEP   1 IN STRESS PERIOD    9
    23 TOTAL ITERATIONS

 OUTPUT CONTROL FOR STRESS PERIOD    9   TIME STEP    1
    SAVE BUDGET
    SAVE HEAD FOR ALL LAYERS
    PRINT HEAD FOR ALL LAYERS
 UBDSV2 SAVING "STREAMFLOW OUT  " ON UNIT  50 AT TIME STEP  1, STRESS PERIOD   9



 STREAM LISTING     PERIOD      9   STEP        1

 LAYER ROW COL. STREAM  RCH.  FLOW INTO     FLOW TO   FLOW OUT OF   OVRLND.     DIRECT     STREAM       STREAM     STREAM     STREAM   STREAMBED  STREAMBED
                SEG.NO.  NO.  STRM. RCH.    AQUIFER    STRM. RCH.    RUNOFF     PRECIP       ET          HEAD       DEPTH      WIDTH   CONDCTNC.   GRADIENT

   1   13    1     1     1    1.0000E+05 -1.6838E+03   1.0168E+05  0.000E+00  0.000E+00  0.000E+00  4.84067E+01  1.454E-01  2.000E+01  2.000E+04 -8.419E-02
   1   13    2     1     2    1.0168E+05 -2.6298E+03   1.0431E+05  0.000E+00  0.000E+00  0.000E+00  4.79313E+01  1.472E-01  2.000E+01  2.000E+04 -1.315E-01
   1   14    3     1     3    1.0431E+05 -4.1097E+02   1.0472E+05  0.000E+00  0.000E+00  0.000E+00  4.74554E+01  1.485E-01  2.000E+01  2.000E+04 -2.055E-02
   1   15    4     1     4    1.0472E+05 -3.8157E+02   1.0511E+05  0.000E+00  0.000E+00  0.000E+00  4.69784E+01  1.489E-01  2.000E+01  2.000E+04 -1.908E-02
   1   16    5     1     5    1.0511E+05 -1.4797E+03   1.0659E+05  0.000E+00  0.000E+00  0.000E+00  4.65019E+01  1.497E-01  2.000E+01  2.000E+04 -7.398E-02
   1   16    6     1     6    1.0659E+05 -9.4841E+02   1.0753E+05  0.000E+00  0.000E+00  0.000E+00  4.60257E+01  1.507E-01  2.000E+01  2.000E+04 -4.742E-02
   1   16    7     1     7    1.0753E+05 -9.3752E+02   1.0847E+05  0.000E+00  0.000E+00  0.000E+00  4.55492E+01  1.515E-01  2.000E+01  2.000E+04 -4.688E-02
   1   16    8     1     8    1.0847E+05 -9.3855E+02   1.0941E+05  0.000E+00  0.000E+00  0.000E+00  4.50727E+01  1.523E-01  2.000E+01  2.000E+04 -4.693E-02
   1   16    9     1     9    1.0941E+05 -9.3588E+02   1.1035E+05  0.000E+00  0.000E+00  0.000E+00  4.45962E+01  1.531E-01  2.000E+01  2.000E+04 -4.679E-02
   1   16   10     1    10    1.1035E+05 -9.2985E+02   1.1128E+05  0.000E+00  0.000E+00  0.000E+00  4.41198E+01  1.538E-01  2.000E+01  2.000E+04 -4.649E-02
   1   16   11     1    11    1.1128E+05 -9.3928E+02   1.1222E+05  0.000E+00  0.000E+00  0.000E+00  4.36433E+01  1.546E-01  2.000E+01  2.000E+04 -4.696E-02
   1   16   12     1    12    1.1222E+05 -1.6067E+03   1.1382E+05  0.000E+00  0.000E+00  0.000E+00  4.31670E+01  1.557E-01  2.000E+01  2.000E+04 -8.033E-02
   1   15   13     1    13    1.1382E+05 -1.5122E+03   1.1533E+05  0.000E+00  0.000E+00  0.000E+00  4.26910E+01  1.570E-01  2.000E+01  2.000E+04 -7.561E-02
   1   14   14     1    14    1.1533E+05 -1.7703E+03   1.1710E+05  0.000E+00  0.000E+00  0.000E+00  4.22151E+01  1.583E-01  2.000E+01  2.000E+04 -8.851E-02
   1   13   15     1    15    1.1710E+05 -2.0528E+03   1.1916E+05  0.000E+00  0.000E+00  0.000E+00  4.17394E+01  1.599E-01  2.000E+01  2.000E+04 -1.026E-01
   1   12   16     1    16    1.1916E+05 -2.6121E+03   1.2177E+05  0.000E+00  0.000E+00  0.000E+00  4.12640E+01  1.617E-01  2.000E+01  2.000E+04 -1.306E-01
   1   12   17     1    17    1.2177E+05 -1.6403E+03   1.2341E+05  0.000E+00  0.000E+00  0.000E+00  4.07885E+01  1.635E-01  2.000E+01  2.000E+04 -8.202E-02
   1   12   18     1    18    1.2341E+05 -1.4537E+03   1.2486E+05  0.000E+00  0.000E+00  0.000E+00  4.03124E+01  1.647E-01  2.000E+01  2.000E+04 -7.269E-02
   1   12   19     1    19    1.2486E+05 -1.2218E+03   1.2609E+05  0.000E+00  0.000E+00  0.000E+00  3.98362E+01  1.658E-01  2.000E+01  2.000E+04 -6.109E-02
   1   13   20     1    20    1.2609E+05  5.9384E+02   1.2549E+05  0.000E+00  0.000E+00  0.000E+00  3.93592E+01  1.660E-01  2.000E+01  2.000E+04  2.969E-02
   1   14   21     1    21    1.2549E+05  2.7806E+02   1.2521E+05  0.000E+00  0.000E+00  0.000E+00  3.88816E+01  1.657E-01  2.000E+01  2.000E+04  1.390E-02
   1   14   22     1    22    1.2521E+05  6.8130E+03   1.1840E+05  0.000E+00  0.000E+00  0.000E+00  3.84015E+01  1.628E-01  2.000E+01  2.000E+04  3.406E-01
   1    9   30     2     1    5.0000E+04 -2.4528E+02   5.0245E+04  0.000E+00  0.000E+00  0.000E+00  4.02410E+01  1.160E-01  2.000E+01  2.000E+04 -1.226E-02
   1    9   29     2     2    5.0245E+04 -5.4647E+02   5.0792E+04  0.000E+00  0.000E+00  0.000E+00  3.99916E+01  1.166E-01  2.000E+01  2.000E+04 -2.732E-02
   1    9   28     2     3    5.0792E+04 -7.8947E+02   5.1581E+04  0.000E+00  0.000E+00  0.000E+00  3.97425E+01  1.175E-01  2.000E+01  2.000E+04 -3.947E-02
   1    9   27     2     4    5.1581E+04 -1.6787E+03   5.3260E+04  0.000E+00  0.000E+00  0.000E+00  3.94942E+01  1.192E-01  2.000E+01  2.000E+04 -8.393E-02
   1   10   26     2     5    5.3260E+04 -1.6109E+02   5.3421E+04  0.000E+00  0.000E+00  0.000E+00  3.92454E+01  1.204E-01  2.000E+01  2.000E+04 -8.055E-03
   1   11   25     2     6    5.3421E+04  4.6033E+03   4.8818E+04  0.000E+00  0.000E+00  0.000E+00  3.89924E+01  1.174E-01  2.000E+01  2.000E+04  2.302E-01
   1   12   24     2     7    4.8818E+04  5.3563E+03   4.3461E+04  0.000E+00  0.000E+00  0.000E+00  3.87354E+01  1.104E-01  2.000E+01  2.000E+04  2.678E-01
   1   13   23     2     8    4.3461E+04  1.0488E+03   4.2413E+04  0.000E+00  0.000E+00  0.000E+00  3.84807E+01  1.057E-01  2.000E+01  2.000E+04  5.244E-02
   1   14   22     2     9    4.2413E+04  3.3332E+03   3.9079E+04  0.000E+00  0.000E+00  0.000E+00  3.82275E+01  1.025E-01  2.000E+01  2.000E+04  1.667E-01
   1   14   22     3     1    1.5748E+05 -6.9113E+03   1.6439E+05  0.000E+00  0.000E+00  0.000E+00  3.77153E+01  1.597E-01  2.000E+01  2.000E+04 -3.456E-01
   1   15   23     3     2    1.6439E+05 -4.5511E+02   1.6485E+05  0.000E+00  0.000E+00  0.000E+00  3.68285E+01  1.619E-01  2.000E+01  2.000E+04 -2.276E-02
   1   15   24     3     3    1.6485E+05 -2.1166E+02   1.6506E+05  0.000E+00  0.000E+00  0.000E+00  3.59399E+01  1.621E-01  2.000E+01  2.000E+04 -1.058E-02
   1   15   25     3     4    1.6506E+05 -1.9379E+02   1.6525E+05  0.000E+00  0.000E+00  0.000E+00  3.50511E+01  1.622E-01  2.000E+01  2.000E+04 -9.690E-03
   1   15   26     3     5    1.6525E+05 -1.6298E+02   1.6541E+05  0.000E+00  0.000E+00  0.000E+00  3.41623E+01  1.623E-01  2.000E+01  2.000E+04 -8.149E-03
   1   16   27     3     6    1.6541E+05  7.0414E+01   1.6534E+05  0.000E+00  0.000E+00  0.000E+00  3.32734E+01  1.623E-01  2.000E+01  2.000E+04  3.521E-03
   1   17   28     3     7    1.6534E+05  5.8654E+03   1.5948E+05  0.000E+00  0.000E+00  0.000E+00  3.23828E+01  1.606E-01  2.000E+01  2.000E+04  2.933E-01
   1   18   29     3     8    1.5948E+05  8.2446E+03   1.5123E+05  0.000E+00  0.000E+00  0.000E+00  3.14897E+01  1.563E-01  2.000E+01  2.000E+04  4.122E-01
   1   18   30     3     9    1.5123E+05  2.3573E+03   1.4888E+05  0.000E+00  0.000E+00  0.000E+00  3.05976E+01  1.531E-01  2.000E+01  2.000E+04  1.179E-01



1
              HEAD IN LAYER   1 AT END OF TIME STEP   1 IN STRESS PERIOD    9
  ---------------------------------------------------------------------------

          1      2      3      4      5      6      7      8      9     10
         11     12     13     14     15     16     17     18     19     20
         21     22     23     24     25     26     27     28     29     30
 .........................................................................
   1  ****** ****** ****** ****** ****** ****** ****** ****** ****** ******
      ****** ****** ****** ****** ****** ****** ****** ****** ****** ******
      ****** ****** ****** ****** ****** ****** ****** ****** ****** ******
   2  ****** ****** ****** ****** ****** ****** ****** ****** ****** ******
      ****** ****** ****** ****** ****** ****** ****** ****** ****** ******
      ****** ****** ****** ****** ****** ****** ****** ****** ****** ******
   3  ****** ****** ****** ****** ****** ****** ****** ****** ****** ******
      ****** ****** ****** ****** ****** ****** ****** ****** ****** ******
      ****** ****** ****** ****** ****** ****** ****** ****** ****** ******
   4  ****** ****** ****** ****** ****** ****** ****** ****** ****** ******
      ****** ****** ****** ****** ****** ****** ****** ****** ****** ******
      ****** ****** ****** ****** ****** ****** ****** ****** ****** ******
   5  ****** ****** ****** ****** ****** ****** ****** ****** ****** ******
      ****** ****** ****** ****** ****** ****** ****** ****** ****** ******
      ****** ****** ****** ****** ****** ****** ****** ****** ****** ******
   6  ****** ****** ****** ****** ****** ****** ****** ****** ****** ******
      ****** ****** ****** ****** ****** ****** ****** ****** ****** ******
      ****** ****** ****** ****** ****** ****** ****** ****** ****** ******
   7  ****** ****** ****** ****** ****** ****** ****** ****** ****** ******
      ****** ****** ****** ****** ****** ****** ****** ****** ****** ******
      ****** ****** ****** ****** ****** ****** ****** ****** ****** ******
   8  ****** ****** ****** ****** ****** ****** ****** ****** ****** ******
      ****** ****** ****** ****** ****** ****** ****** ****** ****** ******
      ****** ****** ****** ****** ****** ****** ****** ****** ****** ******
   9  ****** ****** ****** ****** ****** ****** ****** ****** ****** ******
      ****** ****** ****** ****** ****** ****** ****** ****** ****** ******
      ****** ****** ****** ****** ****** ****** ****** ****** ****** ******
  10  ****** ****** ****** ****** ****** ****** ****** ****** ****** ******
      ****** ****** ****** ****** ****** ****** ****** ****** ****** ******
      ****** ****** ****** ****** ****** ****** ****** ****** ****** ******
  11  ****** ****** ****** ****** ****** ****** ****** ****** ****** ******
      ****** ****** ****** ****** ****** ****** ****** ****** ****** ******
      ****** ****** ****** ****** ****** ****** ****** ****** ****** ******
  12  ****** ****** ****** ****** ****** ****** ****** ****** ****** ******
      ****** ****** ****** ****** ****** ****** ****** ****** ****** ******
      ****** ****** ****** ****** ****** ****** ****** ****** ****** ******
  13  ****** ****** ****** ****** ****** ****** ****** ****** ****** ******
      ****** ****** ****** ****** ****** ****** ****** ****** ****** ******
      ****** ****** ****** ****** ****** ****** ****** ****** ****** ******
  14  ****** ****** ****** ****** ****** ****** ****** ****** ****** ******
      ****** ****** ****** ****** ****** ****** ****** ****** ****** ******
      ****** ****** ****** ****** ****** ****** ****** ****** ****** ******
  15  ****** ****** ****** ****** ****** ****** ****** ****** ****** ******
      ****** ****** ****** ****** ****** ****** ****** ****** ****** ******
      ****** ****** ****** ****** ****** ****** ****** ****** ****** ******
  16  ****** ****** ****** ****** ****** ****** ****** ****** ****** ******
      ****** ****** ****** ****** ****** ****** ****** ****** ****** ******
      ****** ****** ****** ****** ****** ****** ****** ****** ****** ******
  17  ****** ****** ****** ****** ****** ****** ****** ****** ****** ******
      ****** ****** ****** ****** ****** ****** ****** ****** ****** ******
      ****** ****** ****** ****** ****** ****** ****** ****** ****** ******
  18  ****** ****** ****** ****** ****** ****** ****** ****** ****** ******
      ****** ****** ****** ****** ****** ****** ****** ****** ****** ******
      ****** ****** ****** ****** ****** ****** ****** ****** ****** ******
  19  ****** ****** ****** ****** ****** ****** ****** ****** ****** ******
      ****** ****** ****** ****** ****** ****** ****** ****** ****** ******
      ****** ****** ****** ****** ****** ****** ****** ****** ****** ******
  20  ****** ****** ****** ****** ****** ****** ****** ****** ****** ******
      ****** ****** ****** ****** ****** ****** ****** ****** ****** ******
      ****** ****** ****** ****** ****** ****** ****** ****** ****** ******
  21  ****** ****** ****** ****** ****** ****** ****** ****** ****** ******
      ****** ****** ****** ****** ****** ****** ****** ****** ****** ******
      ****** ****** ****** ****** ****** ****** ****** ****** ****** ******
  22  ****** ****** ****** ****** ****** ****** ****** ****** ****** ******
      ****** ****** ****** ****** ****** ****** ****** ****** ****** ******
      ****** ****** ****** ****** ****** ****** ****** ****** ****** ******
  23  ****** ****** ****** ****** ****** ****** ****** ****** ****** ******
      ****** ****** ****** ****** ****** ****** ****** ****** ****** ******
      ****** ****** ****** ****** ****** ****** ****** ****** ****** ******
  24  ****** ****** ****** ****** ****** ****** ****** ****** ****** ******
      ****** ****** ****** ****** ****** ****** ****** ****** ****** ******
      ****** ****** ****** ****** ****** ****** ****** ****** ****** ******
  25  ****** ****** ****** ****** ****** ****** ****** ****** ****** ******
      ****** ****** ****** ****** ****** ****** ****** ****** ****** ******
      ****** ****** ****** ****** ****** ****** ****** ****** ****** ******

 HEAD WILL BE SAVED ON UNIT   51 AT END OF TIME STEP    1, STRESS PERIOD    9
1
  VOLUMETRIC BUDGET FOR ENTIRE MODEL AT END OF TIME STEP    1, STRESS PERIOD   9
  ------------------------------------------------------------------------------

     CUMULATIVE VOLUMES      L**3       RATES FOR THIS TIME STEP      L**3/T
     ------------------                 ------------------------

           IN:                                      IN:
           ---                                      ---
             STORAGE =    32623253.5740               STORAGE =        7044.6204
       CONSTANT HEAD =    21331123.5981         CONSTANT HEAD =       32581.9892
               WELLS =           0.0000                 WELLS =           0.0000
            RECHARGE =    18878400.0000              RECHARGE =       13800.0000
      STREAM LEAKAGE =    26397847.7399        STREAM LEAKAGE =       38564.2394

            TOTAL IN =    99230624.9120              TOTAL IN =       91990.8490

          OUT:                                     OUT:
          ----                                     ----
             STORAGE =      990164.4223               STORAGE =           0.0000
       CONSTANT HEAD =           0.0000         CONSTANT HEAD =           0.0000
               WELLS =    44840084.9097                 WELLS =       54549.9816
            RECHARGE =           0.0000              RECHARGE =           0.0000
      STREAM LEAKAGE =    53400377.3571        STREAM LEAKAGE =       37440.8681

           TOTAL OUT =    99230626.6891             TOTAL OUT =       91990.8498

            IN - OUT =          -1.7771              IN - OUT =      -7.2371E-04

 PERCENT DISCREPANCY =          -0.00     PERCENT DISCREPANCY =          -0.00






         TIME SUMMARY AT END OF TIME STEP    1 IN STRESS PERIOD    9
                    SECONDS     MINUTES      HOURS       DAYS        YEARS
                    -----------------------------------------------------------
   TIME STEP LENGTH 7.94880E+06 1.32480E+05  2208.0      92.000     0.25188    
 STRESS PERIOD TIME 7.94880E+06 1.32480E+05  2208.0      92.000     0.25188    
         TOTAL TIME 7.10208E+07 1.18368E+06  19728.      822.00      2.2505    
1
1
                            STRESS PERIOD NO.   10, LENGTH =   91.00000    
                            -----------------------------------------------

                              NUMBER OF TIME STEPS =     1

                               MULTIPLIER FOR DELT =     1.500

                            INITIAL TIME STEP SIZE =   91.00000    

 WELL NO.  LAYER   ROW   COL   STRESS RATE         
 --------------------------------------------------
      1      1     19     29     -0.1190E+05
      2      1     13     22     -0.1207E+05
      3      1     11     24     -0.1558E+05
      4      1     17     29     -0.1500E+05

      4 WELLS

                 RECHARGE =  2.000000E-03

 REUSING STREAM SEGMENT DATA FROM LAST STRESS PERIOD
 
 SOLVING FOR HEAD 


     7 CALLS TO PCG ROUTINE FOR TIME STEP   1 IN STRESS PERIOD   10
    26 TOTAL ITERATIONS

 OUTPUT CONTROL FOR STRESS PERIOD   10   TIME STEP    1
    SAVE BUDGET
    SAVE HEAD FOR ALL LAYERS
    PRINT HEAD FOR ALL LAYERS
 UBDSV2 SAVING "STREAMFLOW OUT  " ON UNIT  50 AT TIME STEP  1, STRESS PERIOD  10



 STREAM LISTING     PERIOD     10   STEP        1

 LAYER ROW COL. STREAM  RCH.  FLOW INTO     FLOW TO   FLOW OUT OF   OVRLND.     DIRECT     STREAM       STREAM     STREAM     STREAM   STREAMBED  STREAMBED
                SEG.NO.  NO.  STRM. RCH.    AQUIFER    STRM. RCH.    RUNOFF     PRECIP       ET          HEAD       DEPTH      WIDTH   CONDCTNC.   GRADIENT

   1   13    1     1     1    1.0000E+05 -2.1394E+03   1.0214E+05  0.000E+00  0.000E+00  0.000E+00  4.84069E+01  1.456E-01  2.000E+01  2.000E+04 -1.070E-01
   1   13    2     1     2    1.0214E+05 -3.1350E+03   1.0527E+05  0.000E+00  0.000E+00  0.000E+00  4.79319E+01  1.478E-01  2.000E+01  2.000E+04 -1.567E-01
   1   14    3     1     3    1.0527E+05 -5.9805E+02   1.0587E+05  0.000E+00  0.000E+00  0.000E+00  4.74563E+01  1.494E-01  2.000E+01  2.000E+04 -2.990E-02
   1   15    4     1     4    1.0587E+05 -5.8146E+02   1.0645E+05  0.000E+00  0.000E+00  0.000E+00  4.69795E+01  1.499E-01  2.000E+01  2.000E+04 -2.907E-02
   1   16    5     1     5    1.0645E+05 -2.0993E+03   1.0855E+05  0.000E+00  0.000E+00  0.000E+00  4.65033E+01  1.511E-01  2.000E+01  2.000E+04 -1.050E-01
   1   16    6     1     6    1.0855E+05 -1.3112E+03   1.0986E+05  0.000E+00  0.000E+00  0.000E+00  4.60275E+01  1.525E-01  2.000E+01  2.000E+04 -6.556E-02
   1   16    7     1     7    1.0986E+05 -1.2825E+03   1.1115E+05  0.000E+00  0.000E+00  0.000E+00  4.55513E+01  1.536E-01  2.000E+01  2.000E+04 -6.413E-02
   1   16    8     1     8    1.1115E+05 -1.2781E+03   1.1242E+05  0.000E+00  0.000E+00  0.000E+00  4.50751E+01  1.547E-01  2.000E+01  2.000E+04 -6.390E-02
   1   16    9     1     9    1.1242E+05 -1.2739E+03   1.1370E+05  0.000E+00  0.000E+00  0.000E+00  4.45989E+01  1.557E-01  2.000E+01  2.000E+04 -6.369E-02
   1   16   10     1    10    1.1370E+05 -1.2679E+03   1.1497E+05  0.000E+00  0.000E+00  0.000E+00  4.41227E+01  1.568E-01  2.000E+01  2.000E+04 -6.340E-02
   1   16   11     1    11    1.1497E+05 -1.2807E+03   1.1625E+05  0.000E+00  0.000E+00  0.000E+00  4.36464E+01  1.578E-01  2.000E+01  2.000E+04 -6.404E-02
   1   16   12     1    12    1.1625E+05 -2.1768E+03   1.1842E+05  0.000E+00  0.000E+00  0.000E+00  4.31706E+01  1.592E-01  2.000E+01  2.000E+04 -1.088E-01
   1   15   13     1    13    1.1842E+05 -2.1000E+03   1.2052E+05  0.000E+00  0.000E+00  0.000E+00  4.26950E+01  1.609E-01  2.000E+01  2.000E+04 -1.050E-01
   1   14   14     1    14    1.2052E+05 -2.3658E+03   1.2289E+05  0.000E+00  0.000E+00  0.000E+00  4.22196E+01  1.627E-01  2.000E+01  2.000E+04 -1.183E-01
   1   13   15     1    15    1.2289E+05 -2.6387E+03   1.2553E+05  0.000E+00  0.000E+00  0.000E+00  4.17443E+01  1.647E-01  2.000E+01  2.000E+04 -1.319E-01
   1   12   16     1    16    1.2553E+05 -3.1773E+03   1.2871E+05  0.000E+00  0.000E+00  0.000E+00  4.12693E+01  1.671E-01  2.000E+01  2.000E+04 -1.589E-01
   1   12   17     1    17    1.2871E+05 -2.0675E+03   1.3077E+05  0.000E+00  0.000E+00  0.000E+00  4.07941E+01  1.691E-01  2.000E+01  2.000E+04 -1.034E-01
   1   12   18     1    18    1.3077E+05 -1.8765E+03   1.3265E+05  0.000E+00  0.000E+00  0.000E+00  4.03184E+01  1.706E-01  2.000E+01  2.000E+04 -9.383E-02
   1   12   19     1    19    1.3265E+05 -1.7421E+03   1.3439E+05  0.000E+00  0.000E+00  0.000E+00  3.98425E+01  1.720E-01  2.000E+01  2.000E+04 -8.710E-02
   1   13   20     1    20    1.3439E+05  7.1607E+01   1.3432E+05  0.000E+00  0.000E+00  0.000E+00  3.93659E+01  1.727E-01  2.000E+01  2.000E+04  3.580E-03
   1   14   21     1    21    1.3432E+05 -2.4776E+02   1.3457E+05  0.000E+00  0.000E+00  0.000E+00  3.88887E+01  1.728E-01  2.000E+01  2.000E+04 -1.239E-02
   1   14   22     1    22    1.3457E+05  6.6798E+03   1.2789E+05  0.000E+00  0.000E+00  0.000E+00  3.84089E+01  1.703E-01  2.000E+01  2.000E+04  3.340E-01
   1    9   30     2     1    5.0000E+04 -6.5987E+02   5.0660E+04  0.000E+00  0.000E+00  0.000E+00  4.02413E+01  1.163E-01  2.000E+01  2.000E+04 -3.299E-02
   1    9   29     2     2    5.0660E+04 -9.5879E+02   5.1619E+04  0.000E+00  0.000E+00  0.000E+00  3.99924E+01  1.174E-01  2.000E+01  2.000E+04 -4.794E-02
   1    9   28     2     3    5.1619E+04 -1.2011E+03   5.2820E+04  0.000E+00  0.000E+00  0.000E+00  3.97439E+01  1.189E-01  2.000E+01  2.000E+04 -6.005E-02
   1    9   27     2     4    5.2820E+04 -2.2326E+03   5.5052E+04  0.000E+00  0.000E+00  0.000E+00  3.94963E+01  1.213E-01  2.000E+01  2.000E+04 -1.116E-01
   1   10   26     2     5    5.5052E+04 -7.1489E+02   5.5767E+04  0.000E+00  0.000E+00  0.000E+00  3.92482E+01  1.232E-01  2.000E+01  2.000E+04 -3.574E-02
   1   11   25     2     6    5.5767E+04  4.0741E+03   5.1693E+04  0.000E+00  0.000E+00  0.000E+00  3.89960E+01  1.210E-01  2.000E+01  2.000E+04  2.037E-01
   1   12   24     2     7    5.1693E+04  4.8775E+03   4.6816E+04  0.000E+00  0.000E+00  0.000E+00  3.87398E+01  1.148E-01  2.000E+01  2.000E+04  2.439E-01
   1   13   23     2     8    4.6816E+04  9.0004E+02   4.5916E+04  0.000E+00  0.000E+00  0.000E+00  3.84857E+01  1.107E-01  2.000E+01  2.000E+04  4.500E-02
   1   14   22     2     9    4.5916E+04  3.1578E+03   4.2758E+04  0.000E+00  0.000E+00  0.000E+00  3.82328E+01  1.078E-01  2.000E+01  2.000E+04  1.579E-01
   1   14   22     3     1    1.7065E+05 -7.0383E+03   1.7768E+05  0.000E+00  0.000E+00  0.000E+00  3.77230E+01  1.674E-01  2.000E+01  2.000E+04 -3.519E-01
   1   15   23     3     2    1.7768E+05 -6.1771E+02   1.7830E+05  0.000E+00  0.000E+00  0.000E+00  3.68363E+01  1.696E-01  2.000E+01  2.000E+04 -3.089E-02
   1   15   24     3     3    1.7830E+05 -3.4887E+02   1.7865E+05  0.000E+00  0.000E+00  0.000E+00  3.59477E+01  1.699E-01  2.000E+01  2.000E+04 -1.744E-02
   1   15   25     3     4    1.7865E+05 -3.3440E+02   1.7899E+05  0.000E+00  0.000E+00  0.000E+00  3.50590E+01  1.701E-01  2.000E+01  2.000E+04 -1.672E-02
   1   15   26     3     5    1.7899E+05 -3.2524E+02   1.7931E+05  0.000E+00  0.000E+00  0.000E+00  3.41703E+01  1.703E-01  2.000E+01  2.000E+04 -1.626E-02
   1   16   27     3     6    1.7931E+05 -1.1548E+02   1.7943E+05  0.000E+00  0.000E+00  0.000E+00  3.32815E+01  1.704E-01  2.000E+01  2.000E+04 -5.774E-03
   1   17   28     3     7    1.7943E+05  5.3446E+03   1.7408E+05  0.000E+00  0.000E+00  0.000E+00  3.23912E+01  1.689E-01  2.000E+01  2.000E+04  2.672E-01
   1   18   29     3     8    1.7408E+05  7.6930E+03   1.6639E+05  0.000E+00  0.000E+00  0.000E+00  3.14985E+01  1.652E-01  2.000E+01  2.000E+04  3.847E-01
   1   18   30     3     9    1.6639E+05  1.9320E+03   1.6446E+05  0.000E+00  0.000E+00  0.000E+00  3.06068E+01  1.624E-01  2.000E+01  2.000E+04  9.660E-02



1
              HEAD IN LAYER   1 AT END OF TIME STEP   1 IN STRESS PERIOD   10
  ---------------------------------------------------------------------------

          1      2      3      4      5      6      7      8      9     10
         11     12     13     14     15     16     17     18     19     20
         21     22     23     24     25     26     27     28     29     30
 .........................................................................
   1  ****** ****** ****** ****** ****** ****** ****** ****** ****** ******
      ****** ****** ****** ****** ****** ****** ****** ****** ****** ******
      ****** ****** ****** ****** ****** ****** ****** ****** ****** ******
   2  ****** ****** ****** ****** ****** ****** ****** ****** ****** ******
      ****** ****** ****** ****** ****** ****** ****** ****** ****** ******
      ****** ****** ****** ****** ****** ****** ****** ****** ****** ******
   3  ****** ****** ****** ****** ****** ****** ****** ****** ****** ******
      ****** ****** ****** ****** ****** ****** ****** ****** ****** ******
      ****** ****** ****** ****** ****** ****** ****** ****** ****** ******
   4  ****** ****** ****** ****** ****** ****** ****** ****** ****** ******
      ****** ****** ****** ****** ****** ****** ****** ****** ****** ******
      ****** ****** ****** ****** ****** ****** ****** ****** ****** ******
   5  ****** ****** ****** ****** ****** ****** ****** ****** ****** ******
      ****** ****** ****** ****** ****** ****** ****** ****** ****** ******
      ****** ****** ****** ****** ****** ****** ****** ****** ****** ******
   6  ****** ****** ****** ****** ****** ****** ****** ****** ****** ******
      ****** ****** ****** ****** ****** ****** ****** ****** ****** ******
      ****** ****** ****** ****** ****** ****** ****** ****** ****** ******
   7  ****** ****** ****** ****** ****** ****** ****** ****** ****** ******
      ****** ****** ****** ****** ****** ****** ****** ****** ****** ******
      ****** ****** ****** ****** ****** ****** ****** ****** ****** ******
   8  ****** ****** ****** ****** ****** ****** ****** ****** ****** ******
      ****** ****** ****** ****** ****** ****** ****** ****** ****** ******
      ****** ****** ****** ****** ****** ****** ****** ****** ****** ******
   9  ****** ****** ****** ****** ****** ****** ****** ****** ****** ******
      ****** ****** ****** ****** ****** ****** ****** ****** ****** ******
      ****** ****** ****** ****** ****** ****** ****** ****** ****** ******
  10  ****** ****** ****** ****** ****** ****** ****** ****** ****** ******
      ****** ****** ****** ****** ****** ****** ****** ****** ****** ******
      ****** ****** ****** ****** ****** ****** ****** ****** ****** ******
  11  ****** ****** ****** ****** ****** ****** ****** ****** ****** ******
      ****** ****** ****** ****** ****** ****** ****** ****** ****** ******
      ****** ****** ****** ****** ****** ****** ****** ****** ****** ******
  12  ****** ****** ****** ****** ****** ****** ****** ****** ****** ******
      ****** ****** ****** ****** ****** ****** ****** ****** ****** ******
      ****** ****** ****** ****** ****** ****** ****** ****** ****** ******
  13  ****** ****** ****** ****** ****** ****** ****** ****** ****** ******
      ****** ****** ****** ****** ****** ****** ****** ****** ****** ******
      ****** ****** ****** ****** ****** ****** ****** ****** ****** ******
  14  ****** ****** ****** ****** ****** ****** ****** ****** ****** ******
      ****** ****** ****** ****** ****** ****** ****** ****** ****** ******
      ****** ****** ****** ****** ****** ****** ****** ****** ****** ******
  15  ****** ****** ****** ****** ****** ****** ****** ****** ****** ******
      ****** ****** ****** ****** ****** ****** ****** ****** ****** ******
      ****** ****** ****** ****** ****** ****** ****** ****** ****** ******
  16  ****** ****** ****** ****** ****** ****** ****** ****** ****** ******
      ****** ****** ****** ****** ****** ****** ****** ****** ****** ******
      ****** ****** ****** ****** ****** ****** ****** ****** ****** ******
  17  ****** ****** ****** ****** ****** ****** ****** ****** ****** ******
      ****** ****** ****** ****** ****** ****** ****** ****** ****** ******
      ****** ****** ****** ****** ****** ****** ****** ****** ****** ******
  18  ****** ****** ****** ****** ****** ****** ****** ****** ****** ******
      ****** ****** ****** ****** ****** ****** ****** ****** ****** ******
      ****** ****** ****** ****** ****** ****** ****** ****** ****** ******
  19  ****** ****** ****** ****** ****** ****** ****** ****** ****** ******
      ****** ****** ****** ****** ****** ****** ****** ****** ****** ******
      ****** ****** ****** ****** ****** ****** ****** ****** ****** ******
  20  ****** ****** ****** ****** ****** ****** ****** ****** ****** ******
      ****** ****** ****** ****** ****** ****** ****** ****** ****** ******
      ****** ****** ****** ****** ****** ****** ****** ****** ****** ******
  21  ****** ****** ****** ****** ****** ****** ****** ****** ****** ******
      ****** ****** ****** ****** ****** ****** ****** ****** ****** ******
      ****** ****** ****** ****** ****** ****** ****** ****** ****** ******
  22  ****** ****** ****** ****** ****** ****** ****** ****** ****** ******
      ****** ****** ****** ****** ****** ****** ****** ****** ****** ******
      ****** ****** ****** ****** ****** ****** ****** ****** ****** ******
  23  ****** ****** ****** ****** ****** ****** ****** ****** ****** ******
      ****** ****** ****** ****** ****** ****** ****** ****** ****** ******
      ****** ****** ****** ****** ****** ****** ****** ****** ****** ******
  24  ****** ****** ****** ****** ****** ****** ****** ****** ****** ******
      ****** ****** ****** ****** ****** ****** ****** ****** ****** ******
      ****** ****** ****** ****** ****** ****** ****** ****** ****** ******
  25  ****** ****** ****** ****** ****** ****** ****** ****** ****** ******
      ****** ****** ****** ****** ****** ****** ****** ****** ****** ******
      ****** ****** ****** ****** ****** ****** ****** ****** ****** ******

 HEAD WILL BE SAVED ON UNIT   51 AT END OF TIME STEP    1, STRESS PERIOD   10
1
  VOLUMETRIC BUDGET FOR ENTIRE MODEL AT END OF TIME STEP    1, STRESS PERIOD  10
  ------------------------------------------------------------------------------

     CUMULATIVE VOLUMES      L**3       RATES FOR THIS TIME STEP      L**3/T
     ------------------                 ------------------------

           IN:                                      IN:
           ---                                      ---
             STORAGE =    32623253.5740               STORAGE =           0.0000
       CONSTANT HEAD =    24026086.3922         CONSTANT HEAD =       29614.9758
               WELLS =           0.0000                 WELLS =           0.0000
            RECHARGE =    23901600.0000              RECHARGE =       55200.0000
      STREAM LEAKAGE =    29558323.6733        STREAM LEAKAGE =       34730.5048

            TOTAL IN =   110109263.6395              TOTAL IN =      119545.4805

          OUT:                                     OUT:
          ----                                     ----
             STORAGE =     2428724.5672               STORAGE =       15808.3532
       CONSTANT HEAD =           0.0000         CONSTANT HEAD =           0.0000
               WELLS =    49804133.2391                 WELLS =       54549.9816
            RECHARGE =           0.0000              RECHARGE =           0.0000
      STREAM LEAKAGE =    57876407.3149        STREAM LEAKAGE =       49187.1424

           TOTAL OUT =   110109265.1212             TOTAL OUT =      119545.4773

            IN - OUT =          -1.4817              IN - OUT =       3.2458E-03

 PERCENT DISCREPANCY =          -0.00     PERCENT DISCREPANCY =           0.00






         TIME SUMMARY AT END OF TIME STEP    1 IN STRESS PERIOD   10
                    SECONDS     MINUTES      HOURS       DAYS        YEARS
                    -----------------------------------------------------------
   TIME STEP LENGTH 7.86240E+06 1.31040E+05  2184.0      91.000     0.24914    
 STRESS PERIOD TIME 7.86240E+06 1.31040E+05  2184.0      91.000     0.24914    
         TOTAL TIME 7.88832E+07 1.31472E+06  21912.      913.00      2.4997    
1
1
                            STRESS PERIOD NO.   11, LENGTH =   91.00000    
                            -----------------------------------------------

                              NUMBER OF TIME STEPS =     1

                               MULTIPLIER FOR DELT =     1.500

                            INITIAL TIME STEP SIZE =   91.00000    

 WELL NO.  LAYER   ROW   COL   STRESS RATE         
 --------------------------------------------------
      1      1     19     29     -0.1190E+05
      2      1     13     22     -0.1207E+05
      3      1     11     24     -0.1558E+05
      4      1     17     29     -0.1500E+05

      4 WELLS

                 RECHARGE =   0.00000    

 REUSING STREAM SEGMENT DATA FROM LAST STRESS PERIOD
 
 SOLVING FOR HEAD 


     7 CALLS TO PCG ROUTINE FOR TIME STEP   1 IN STRESS PERIOD   11
    26 TOTAL ITERATIONS

 OUTPUT CONTROL FOR STRESS PERIOD   11   TIME STEP    1
    SAVE BUDGET
    SAVE HEAD FOR ALL LAYERS
    PRINT HEAD FOR ALL LAYERS
 UBDSV2 SAVING "STREAMFLOW OUT  " ON UNIT  50 AT TIME STEP  1, STRESS PERIOD  11



 STREAM LISTING     PERIOD     11   STEP        1

 LAYER ROW COL. STREAM  RCH.  FLOW INTO     FLOW TO   FLOW OUT OF   OVRLND.     DIRECT     STREAM       STREAM     STREAM     STREAM   STREAMBED  STREAMBED
                SEG.NO.  NO.  STRM. RCH.    AQUIFER    STRM. RCH.    RUNOFF     PRECIP       ET          HEAD       DEPTH      WIDTH   CONDCTNC.   GRADIENT

   1   13    1     1     1    1.0000E+05 -1.5740E+03   1.0157E+05  0.000E+00  0.000E+00  0.000E+00  4.84067E+01  1.453E-01  2.000E+01  2.000E+04 -7.870E-02
   1   13    2     1     2    1.0157E+05 -2.5055E+03   1.0408E+05  0.000E+00  0.000E+00  0.000E+00  4.79312E+01  1.471E-01  2.000E+01  2.000E+04 -1.253E-01
   1   14    3     1     3    1.0408E+05 -3.6758E+02   1.0445E+05  0.000E+00  0.000E+00  0.000E+00  4.74551E+01  1.483E-01  2.000E+01  2.000E+04 -1.838E-02
   1   15    4     1     4    1.0445E+05 -3.3991E+02   1.0479E+05  0.000E+00  0.000E+00  0.000E+00  4.69782E+01  1.486E-01  2.000E+01  2.000E+04 -1.700E-02
   1   16    5     1     5    1.0479E+05 -1.4119E+03   1.0620E+05  0.000E+00  0.000E+00  0.000E+00  4.65016E+01  1.494E-01  2.000E+01  2.000E+04 -7.059E-02
   1   16    6     1     6    1.0620E+05 -8.9728E+02   1.0710E+05  0.000E+00  0.000E+00  0.000E+00  4.60253E+01  1.503E-01  2.000E+01  2.000E+04 -4.486E-02
   1   16    7     1     7    1.0710E+05 -8.8626E+02   1.0798E+05  0.000E+00  0.000E+00  0.000E+00  4.55488E+01  1.511E-01  2.000E+01  2.000E+04 -4.431E-02
   1   16    8     1     8    1.0798E+05 -8.8733E+02   1.0887E+05  0.000E+00  0.000E+00  0.000E+00  4.50723E+01  1.518E-01  2.000E+01  2.000E+04 -4.437E-02
   1   16    9     1     9    1.0887E+05 -8.8529E+02   1.0976E+05  0.000E+00  0.000E+00  0.000E+00  4.45958E+01  1.526E-01  2.000E+01  2.000E+04 -4.426E-02
   1   16   10     1    10    1.0976E+05 -8.8037E+02   1.1064E+05  0.000E+00  0.000E+00  0.000E+00  4.41192E+01  1.533E-01  2.000E+01  2.000E+04 -4.402E-02
   1   16   11     1    11    1.1064E+05 -8.9130E+02   1.1153E+05  0.000E+00  0.000E+00  0.000E+00  4.36427E+01  1.541E-01  2.000E+01  2.000E+04 -4.457E-02
   1   16   12     1    12    1.1153E+05 -1.5317E+03   1.1306E+05  0.000E+00  0.000E+00  0.000E+00  4.31664E+01  1.551E-01  2.000E+01  2.000E+04 -7.658E-02
   1   15   13     1    13    1.1306E+05 -1.4125E+03   1.1447E+05  0.000E+00  0.000E+00  0.000E+00  4.26904E+01  1.563E-01  2.000E+01  2.000E+04 -7.062E-02
   1   14   14     1    14    1.1447E+05 -1.6609E+03   1.1613E+05  0.000E+00  0.000E+00  0.000E+00  4.22144E+01  1.576E-01  2.000E+01  2.000E+04 -8.304E-02
   1   13   15     1    15    1.1613E+05 -1.9396E+03   1.1807E+05  0.000E+00  0.000E+00  0.000E+00  4.17386E+01  1.590E-01  2.000E+01  2.000E+04 -9.698E-02
   1   12   16     1    16    1.1807E+05 -2.5021E+03   1.2057E+05  0.000E+00  0.000E+00  0.000E+00  4.12631E+01  1.608E-01  2.000E+01  2.000E+04 -1.251E-01
   1   12   17     1    17    1.2057E+05 -1.5619E+03   1.2214E+05  0.000E+00  0.000E+00  0.000E+00  4.07875E+01  1.625E-01  2.000E+01  2.000E+04 -7.810E-02
   1   12   18     1    18    1.2214E+05 -1.3784E+03   1.2351E+05  0.000E+00  0.000E+00  0.000E+00  4.03114E+01  1.636E-01  2.000E+01  2.000E+04 -6.892E-02
   1   12   19     1    19    1.2351E+05 -1.1305E+03   1.2464E+05  0.000E+00  0.000E+00  0.000E+00  3.98351E+01  1.646E-01  2.000E+01  2.000E+04 -5.652E-02
   1   13   20     1    20    1.2464E+05  6.8349E+02   1.2396E+05  0.000E+00  0.000E+00  0.000E+00  3.93580E+01  1.648E-01  2.000E+01  2.000E+04  3.417E-02
   1   14   21     1    21    1.2396E+05  3.4908E+02   1.2361E+05  0.000E+00  0.000E+00  0.000E+00  3.88803E+01  1.644E-01  2.000E+01  2.000E+04  1.745E-02
   1   14   22     1    22    1.2361E+05  6.8337E+03   1.1678E+05  0.000E+00  0.000E+00  0.000E+00  3.84002E+01  1.615E-01  2.000E+01  2.000E+04  3.417E-01
   1    9   30     2     1    5.0000E+04 -1.7207E+02   5.0172E+04  0.000E+00  0.000E+00  0.000E+00  4.02410E+01  1.160E-01  2.000E+01  2.000E+04 -8.604E-03
   1    9   29     2     2    5.0172E+04 -4.7407E+02   5.0646E+04  0.000E+00  0.000E+00  0.000E+00  3.99914E+01  1.164E-01  2.000E+01  2.000E+04 -2.370E-02
   1    9   28     2     3    5.0646E+04 -7.1858E+02   5.1365E+04  0.000E+00  0.000E+00  0.000E+00  3.97423E+01  1.173E-01  2.000E+01  2.000E+04 -3.593E-02
   1    9   27     2     4    5.1365E+04 -1.5936E+03   5.2958E+04  0.000E+00  0.000E+00  0.000E+00  3.94938E+01  1.188E-01  2.000E+01  2.000E+04 -7.968E-02
   1   10   26     2     5    5.2958E+04 -6.1286E+01   5.3020E+04  0.000E+00  0.000E+00  0.000E+00  3.92450E+01  1.200E-01  2.000E+01  2.000E+04 -3.064E-03
   1   11   25     2     6    5.3020E+04  4.7039E+03   4.8316E+04  0.000E+00  0.000E+00  0.000E+00  3.89918E+01  1.168E-01  2.000E+01  2.000E+04  2.352E-01
   1   12   24     2     7    4.8316E+04  5.4501E+03   4.2866E+04  0.000E+00  0.000E+00  0.000E+00  3.87346E+01  1.096E-01  2.000E+01  2.000E+04  2.725E-01
   1   13   23     2     8    4.2866E+04  1.0857E+03   4.1780E+04  0.000E+00  0.000E+00  0.000E+00  3.84798E+01  1.048E-01  2.000E+01  2.000E+04  5.428E-02
   1   14   22     2     9    4.1780E+04  3.3603E+03   3.8420E+04  0.000E+00  0.000E+00  0.000E+00  3.82265E+01  1.015E-01  2.000E+01  2.000E+04  1.680E-01
   1   14   22     3     1    1.5520E+05 -6.8920E+03   1.6209E+05  0.000E+00  0.000E+00  0.000E+00  3.77139E+01  1.583E-01  2.000E+01  2.000E+04 -3.446E-01
   1   15   23     3     2    1.6209E+05 -4.2575E+02   1.6252E+05  0.000E+00  0.000E+00  0.000E+00  3.68272E+01  1.605E-01  2.000E+01  2.000E+04 -2.129E-02
   1   15   24     3     3    1.6252E+05 -1.8379E+02   1.6270E+05  0.000E+00  0.000E+00  0.000E+00  3.59385E+01  1.607E-01  2.000E+01  2.000E+04 -9.189E-03
   1   15   25     3     4    1.6270E+05 -1.6549E+02   1.6286E+05  0.000E+00  0.000E+00  0.000E+00  3.50497E+01  1.608E-01  2.000E+01  2.000E+04 -8.274E-03
   1   15   26     3     5    1.6286E+05 -1.2959E+02   1.6299E+05  0.000E+00  0.000E+00  0.000E+00  3.41609E+01  1.609E-01  2.000E+01  2.000E+04 -6.479E-03
   1   16   27     3     6    1.6299E+05  1.0748E+02   1.6289E+05  0.000E+00  0.000E+00  0.000E+00  3.32720E+01  1.609E-01  2.000E+01  2.000E+04  5.374E-03
   1   17   28     3     7    1.6289E+05  5.9542E+03   1.5693E+05  0.000E+00  0.000E+00  0.000E+00  3.23813E+01  1.591E-01  2.000E+01  2.000E+04  2.977E-01
   1   18   29     3     8    1.5693E+05  8.3145E+03   1.4862E+05  0.000E+00  0.000E+00  0.000E+00  3.14881E+01  1.548E-01  2.000E+01  2.000E+04  4.157E-01
   1   18   30     3     9    1.4862E+05  2.4207E+03   1.4620E+05  0.000E+00  0.000E+00  0.000E+00  3.05959E+01  1.515E-01  2.000E+01  2.000E+04  1.210E-01



1
              HEAD IN LAYER   1 AT END OF TIME STEP   1 IN STRESS PERIOD   11
  ---------------------------------------------------------------------------

          1      2      3      4      5      6      7      8      9     10
         11     12     13     14     15     16     17     18     19     20
         21     22     23     24     25     26     27     28     29     30
 .........................................................................
   1  ****** ****** ****** ****** ****** ****** ****** ****** ****** ******
      ****** ****** ****** ****** ****** ****** ****** ****** ****** ******
      ****** ****** ****** ****** ****** ****** ****** ****** ****** ******
   2  ****** ****** ****** ****** ****** ****** ****** ****** ****** ******
      ****** ****** ****** ****** ****** ****** ****** ****** ****** ******
      ****** ****** ****** ****** ****** ****** ****** ****** ****** ******
   3  ****** ****** ****** ****** ****** ****** ****** ****** ****** ******
      ****** ****** ****** ****** ****** ****** ****** ****** ****** ******
      ****** ****** ****** ****** ****** ****** ****** ****** ****** ******
   4  ****** ****** ****** ****** ****** ****** ****** ****** ****** ******
      ****** ****** ****** ****** ****** ****** ****** ****** ****** ******
      ****** ****** ****** ****** ****** ****** ****** ****** ****** ******
   5  ****** ****** ****** ****** ****** ****** ****** ****** ****** ******
      ****** ****** ****** ****** ****** ****** ****** ****** ****** ******
      ****** ****** ****** ****** ****** ****** ****** ****** ****** ******
   6  ****** ****** ****** ****** ****** ****** ****** ****** ****** ******
      ****** ****** ****** ****** ****** ****** ****** ****** ****** ******
      ****** ****** ****** ****** ****** ****** ****** ****** ****** ******
   7  ****** ****** ****** ****** ****** ****** ****** ****** ****** ******
      ****** ****** ****** ****** ****** ****** ****** ****** ****** ******
      ****** ****** ****** ****** ****** ****** ****** ****** ****** ******
   8  ****** ****** ****** ****** ****** ****** ****** ****** ****** ******
      ****** ****** ****** ****** ****** ****** ****** ****** ****** ******
      ****** ****** ****** ****** ****** ****** ****** ****** ****** ******
   9  ****** ****** ****** ****** ****** ****** ****** ****** ****** ******
      ****** ****** ****** ****** ****** ****** ****** ****** ****** ******
      ****** ****** ****** ****** ****** ****** ****** ****** ****** ******
  10  ****** ****** ****** ****** ****** ****** ****** ****** ****** ******
      ****** ****** ****** ****** ****** ****** ****** ****** ****** ******
      ****** ****** ****** ****** ****** ****** ****** ****** ****** ******
  11  ****** ****** ****** ****** ****** ****** ****** ****** ****** ******
      ****** ****** ****** ****** ****** ****** ****** ****** ****** ******
      ****** ****** ****** ****** ****** ****** ****** ****** ****** ******
  12  ****** ****** ****** ****** ****** ****** ****** ****** ****** ******
      ****** ****** ****** ****** ****** ****** ****** ****** ****** ******
      ****** ****** ****** ****** ****** ****** ****** ****** ****** ******
  13  ****** ****** ****** ****** ****** ****** ****** ****** ****** ******
      ****** ****** ****** ****** ****** ****** ****** ****** ****** ******
      ****** ****** ****** ****** ****** ****** ****** ****** ****** ******
  14  ****** ****** ****** ****** ****** ****** ****** ****** ****** ******
      ****** ****** ****** ****** ****** ****** ****** ****** ****** ******
      ****** ****** ****** ****** ****** ****** ****** ****** ****** ******
  15  ****** ****** ****** ****** ****** ****** ****** ****** ****** ******
      ****** ****** ****** ****** ****** ****** ****** ****** ****** ******
      ****** ****** ****** ****** ****** ****** ****** ****** ****** ******
  16  ****** ****** ****** ****** ****** ****** ****** ****** ****** ******
      ****** ****** ****** ****** ****** ****** ****** ****** ****** ******
      ****** ****** ****** ****** ****** ****** ****** ****** ****** ******
  17  ****** ****** ****** ****** ****** ****** ****** ****** ****** ******
      ****** ****** ****** ****** ****** ****** ****** ****** ****** ******
      ****** ****** ****** ****** ****** ****** ****** ****** ****** ******
  18  ****** ****** ****** ****** ****** ****** ****** ****** ****** ******
      ****** ****** ****** ****** ****** ****** ****** ****** ****** ******
      ****** ****** ****** ****** ****** ****** ****** ****** ****** ******
  19  ****** ****** ****** ****** ****** ****** ****** ****** ****** ******
      ****** ****** ****** ****** ****** ****** ****** ****** ****** ******
      ****** ****** ****** ****** ****** ****** ****** ****** ****** ******
  20  ****** ****** ****** ****** ****** ****** ****** ****** ****** ******
      ****** ****** ****** ****** ****** ****** ****** ****** ****** ******
      ****** ****** ****** ****** ****** ****** ****** ****** ****** ******
  21  ****** ****** ****** ****** ****** ****** ****** ****** ****** ******
      ****** ****** ****** ****** ****** ****** ****** ****** ****** ******
      ****** ****** ****** ****** ****** ****** ****** ****** ****** ******
  22  ****** ****** ****** ****** ****** ****** ****** ****** ****** ******
      ****** ****** ****** ****** ****** ****** ****** ****** ****** ******
      ****** ****** ****** ****** ****** ****** ****** ****** ****** ******
  23  ****** ****** ****** ****** ****** ****** ****** ****** ****** ******
      ****** ****** ****** ****** ****** ****** ****** ****** ****** ******
      ****** ****** ****** ****** ****** ****** ****** ****** ****** ******
  24  ****** ****** ****** ****** ****** ****** ****** ****** ****** ******
      ****** ****** ****** ****** ****** ****** ****** ****** ****** ******
      ****** ****** ****** ****** ****** ****** ****** ****** ****** ******
  25  ****** ****** ****** ****** ****** ****** ****** ****** ****** ******
      ****** ****** ****** ****** ****** ****** ****** ****** ****** ******
      ****** ****** ****** ****** ****** ****** ****** ****** ****** ******

 HEAD WILL BE SAVED ON UNIT   51 AT END OF TIME STEP    1, STRESS PERIOD   11
1
  VOLUMETRIC BUDGET FOR ENTIRE MODEL AT END OF TIME STEP    1, STRESS PERIOD  11
  ------------------------------------------------------------------------------

     CUMULATIVE VOLUMES      L**3       RATES FOR THIS TIME STEP      L**3/T
     ------------------                 ------------------------

           IN:                                      IN:
           ---                                      ---
             STORAGE =    34248165.6006               STORAGE =       17856.1761
       CONSTANT HEAD =    27019165.1452         CONSTANT HEAD =       32890.9753
               WELLS =           0.0000                 WELLS =           0.0000
            RECHARGE =    23901600.0000              RECHARGE =           0.0000
      STREAM LEAKAGE =    33131274.3831        STREAM LEAKAGE =       39263.1946

            TOTAL IN =   118300205.1288              TOTAL IN =       90010.3460

          OUT:                                     OUT:
          ----                                     ----
             STORAGE =     2428724.5672               STORAGE =           0.0000
       CONSTANT HEAD =           0.0000         CONSTANT HEAD =           0.0000
               WELLS =    54768181.5685                 WELLS =       54549.9816
            RECHARGE =           0.0000              RECHARGE =           0.0000
      STREAM LEAKAGE =    61103300.8993        STREAM LEAKAGE =       35460.3691

           TOTAL OUT =   118300207.0349             TOTAL OUT =       90010.3507

            IN - OUT =          -1.9061              IN - OUT =      -4.6640E-03

 PERCENT DISCREPANCY =          -0.00     PERCENT DISCREPANCY =          -0.00






         TIME SUMMARY AT END OF TIME STEP    1 IN STRESS PERIOD   11
                    SECONDS     MINUTES      HOURS       DAYS        YEARS
                    -----------------------------------------------------------
   TIME STEP LENGTH 7.86240E+06 1.31040E+05  2184.0      91.000     0.24914    
 STRESS PERIOD TIME 7.86240E+06 1.31040E+05  2184.0      91.000     0.24914    
         TOTAL TIME 8.67456E+07 1.44576E+06  24096.      1004.0      2.7488    
1
1
                            STRESS PERIOD NO.   12, LENGTH =   91.00000    
                            -----------------------------------------------

                              NUMBER OF TIME STEPS =     1

                               MULTIPLIER FOR DELT =     1.500

                            INITIAL TIME STEP SIZE =   91.00000    

 WELL NO.  LAYER   ROW   COL   STRESS RATE         
 --------------------------------------------------
      1      1     19     29     -0.1190E+05
      2      1     13     22     -0.1207E+05
      3      1     11     24     -0.1558E+05
      4      1     17     29     -0.1500E+05

      4 WELLS

                 RECHARGE =  1.000000E-03

 REUSING STREAM SEGMENT DATA FROM LAST STRESS PERIOD
 
 SOLVING FOR HEAD 


     7 CALLS TO PCG ROUTINE FOR TIME STEP   1 IN STRESS PERIOD   12
    24 TOTAL ITERATIONS

 OUTPUT CONTROL FOR STRESS PERIOD   12   TIME STEP    1
    SAVE BUDGET
    SAVE HEAD FOR ALL LAYERS
    PRINT HEAD FOR ALL LAYERS
 UBDSV2 SAVING "STREAMFLOW OUT  " ON UNIT  50 AT TIME STEP  1, STRESS PERIOD  12



 STREAM LISTING     PERIOD     12   STEP        1

 LAYER ROW COL. STREAM  RCH.  FLOW INTO     FLOW TO   FLOW OUT OF   OVRLND.     DIRECT     STREAM       STREAM     STREAM     STREAM   STREAMBED  STREAMBED
                SEG.NO.  NO.  STRM. RCH.    AQUIFER    STRM. RCH.    RUNOFF     PRECIP       ET          HEAD       DEPTH      WIDTH   CONDCTNC.   GRADIENT

   1   13    1     1     1    1.0000E+05 -1.7199E+03   1.0172E+05  0.000E+00  0.000E+00  0.000E+00  4.84068E+01  1.454E-01  2.000E+01  2.000E+04 -8.600E-02
   1   13    2     1     2    1.0172E+05 -2.6626E+03   1.0438E+05  0.000E+00  0.000E+00  0.000E+00  4.79314E+01  1.473E-01  2.000E+01  2.000E+04 -1.331E-01
   1   14    3     1     3    1.0438E+05 -4.4644E+02   1.0483E+05  0.000E+00  0.000E+00  0.000E+00  4.74554E+01  1.486E-01  2.000E+01  2.000E+04 -2.232E-02
   1   15    4     1     4    1.0483E+05 -4.2253E+02   1.0525E+05  0.000E+00  0.000E+00  0.000E+00  4.69785E+01  1.490E-01  2.000E+01  2.000E+04 -2.113E-02
   1   16    5     1     5    1.0525E+05 -1.6219E+03   1.0687E+05  0.000E+00  0.000E+00  0.000E+00  4.65021E+01  1.499E-01  2.000E+01  2.000E+04 -8.110E-02
   1   16    6     1     6    1.0687E+05 -1.0280E+03   1.0790E+05  0.000E+00  0.000E+00  0.000E+00  4.60260E+01  1.510E-01  2.000E+01  2.000E+04 -5.140E-02
   1   16    7     1     7    1.0790E+05 -1.0119E+03   1.0891E+05  0.000E+00  0.000E+00  0.000E+00  4.55496E+01  1.518E-01  2.000E+01  2.000E+04 -5.060E-02
   1   16    8     1     8    1.0891E+05 -1.0120E+03   1.0993E+05  0.000E+00  0.000E+00  0.000E+00  4.50731E+01  1.527E-01  2.000E+01  2.000E+04 -5.060E-02
   1   16    9     1     9    1.0993E+05 -1.0103E+03   1.1094E+05  0.000E+00  0.000E+00  0.000E+00  4.45967E+01  1.535E-01  2.000E+01  2.000E+04 -5.052E-02
   1   16   10     1    10    1.1094E+05 -1.0067E+03   1.1194E+05  0.000E+00  0.000E+00  0.000E+00  4.41203E+01  1.544E-01  2.000E+01  2.000E+04 -5.033E-02
   1   16   11     1    11    1.1194E+05 -1.0198E+03   1.1296E+05  0.000E+00  0.000E+00  0.000E+00  4.36438E+01  1.552E-01  2.000E+01  2.000E+04 -5.099E-02
   1   16   12     1    12    1.1296E+05 -1.7337E+03   1.1470E+05  0.000E+00  0.000E+00  0.000E+00  4.31677E+01  1.563E-01  2.000E+01  2.000E+04 -8.669E-02
   1   15   13     1    13    1.1470E+05 -1.6301E+03   1.1633E+05  0.000E+00  0.000E+00  0.000E+00  4.26918E+01  1.577E-01  2.000E+01  2.000E+04 -8.151E-02
   1   14   14     1    14    1.1633E+05 -1.8794E+03   1.1821E+05  0.000E+00  0.000E+00  0.000E+00  4.22160E+01  1.592E-01  2.000E+01  2.000E+04 -9.397E-02
   1   13   15     1    15    1.1821E+05 -2.1510E+03   1.2036E+05  0.000E+00  0.000E+00  0.000E+00  4.17403E+01  1.608E-01  2.000E+01  2.000E+04 -1.076E-01
   1   12   16     1    16    1.2036E+05 -2.6875E+03   1.2304E+05  0.000E+00  0.000E+00  0.000E+00  4.12650E+01  1.627E-01  2.000E+01  2.000E+04 -1.344E-01
   1   12   17     1    17    1.2304E+05 -1.7164E+03   1.2476E+05  0.000E+00  0.000E+00  0.000E+00  4.07895E+01  1.645E-01  2.000E+01  2.000E+04 -8.582E-02
   1   12   18     1    18    1.2476E+05 -1.5349E+03   1.2630E+05  0.000E+00  0.000E+00  0.000E+00  4.03135E+01  1.658E-01  2.000E+01  2.000E+04 -7.674E-02
   1   12   19     1    19    1.2630E+05 -1.3239E+03   1.2762E+05  0.000E+00  0.000E+00  0.000E+00  3.98374E+01  1.669E-01  2.000E+01  2.000E+04 -6.619E-02
   1   13   20     1    20    1.2762E+05  4.7261E+02   1.2715E+05  0.000E+00  0.000E+00  0.000E+00  3.93604E+01  1.673E-01  2.000E+01  2.000E+04  2.363E-02
   1   14   21     1    21    1.2715E+05  1.5465E+02   1.2699E+05  0.000E+00  0.000E+00  0.000E+00  3.88829E+01  1.670E-01  2.000E+01  2.000E+04  7.732E-03
   1   14   22     1    22    1.2699E+05  6.7781E+03   1.2021E+05  0.000E+00  0.000E+00  0.000E+00  3.84029E+01  1.643E-01  2.000E+01  2.000E+04  3.389E-01
   1    9   30     2     1    5.0000E+04 -3.4868E+02   5.0349E+04  0.000E+00  0.000E+00  0.000E+00  4.02411E+01  1.161E-01  2.000E+01  2.000E+04 -1.743E-02
   1    9   29     2     2    5.0349E+04 -6.4864E+02   5.0997E+04  0.000E+00  0.000E+00  0.000E+00  3.99918E+01  1.168E-01  2.000E+01  2.000E+04 -3.243E-02
   1    9   28     2     3    5.0997E+04 -8.8967E+02   5.1887E+04  0.000E+00  0.000E+00  0.000E+00  3.97429E+01  1.179E-01  2.000E+01  2.000E+04 -4.448E-02
   1    9   27     2     4    5.1887E+04 -1.8032E+03   5.3690E+04  0.000E+00  0.000E+00  0.000E+00  3.94947E+01  1.197E-01  2.000E+01  2.000E+04 -9.016E-02
   1   10   26     2     5    5.3690E+04 -2.9157E+02   5.3982E+04  0.000E+00  0.000E+00  0.000E+00  3.92461E+01  1.211E-01  2.000E+01  2.000E+04 -1.458E-02
   1   11   25     2     6    5.3982E+04  4.4775E+03   4.9504E+04  0.000E+00  0.000E+00  0.000E+00  3.89933E+01  1.183E-01  2.000E+01  2.000E+04  2.239E-01
   1   12   24     2     7    4.9504E+04  5.2435E+03   4.4261E+04  0.000E+00  0.000E+00  0.000E+00  3.87365E+01  1.115E-01  2.000E+01  2.000E+04  2.622E-01
   1   13   23     2     8    4.4261E+04  1.0080E+03   4.3253E+04  0.000E+00  0.000E+00  0.000E+00  3.84820E+01  1.070E-01  2.000E+01  2.000E+04  5.040E-02
   1   14   22     2     9    4.3253E+04  3.2955E+03   3.9957E+04  0.000E+00  0.000E+00  0.000E+00  3.82288E+01  1.038E-01  2.000E+01  2.000E+04  1.648E-01
   1   14   22     3     1    1.6017E+05 -6.9427E+03   1.6711E+05  0.000E+00  0.000E+00  0.000E+00  3.77169E+01  1.613E-01  2.000E+01  2.000E+04 -3.471E-01
   1   15   23     3     2    1.6711E+05 -4.9780E+02   1.6761E+05  0.000E+00  0.000E+00  0.000E+00  3.68302E+01  1.635E-01  2.000E+01  2.000E+04 -2.489E-02
   1   15   24     3     3    1.6761E+05 -2.4889E+02   1.6786E+05  0.000E+00  0.000E+00  0.000E+00  3.59415E+01  1.637E-01  2.000E+01  2.000E+04 -1.244E-02
   1   15   25     3     4    1.6786E+05 -2.3185E+02   1.6809E+05  0.000E+00  0.000E+00  0.000E+00  3.50527E+01  1.639E-01  2.000E+01  2.000E+04 -1.159E-02
   1   15   26     3     5    1.6809E+05 -2.0707E+02   1.6830E+05  0.000E+00  0.000E+00  0.000E+00  3.41640E+01  1.640E-01  2.000E+01  2.000E+04 -1.035E-02
   1   16   27     3     6    1.6830E+05  2.0686E+01   1.6828E+05  0.000E+00  0.000E+00  0.000E+00  3.32751E+01  1.640E-01  2.000E+01  2.000E+04  1.034E-03
   1   17   28     3     7    1.6828E+05  5.7335E+03   1.6254E+05  0.000E+00  0.000E+00  0.000E+00  3.23846E+01  1.623E-01  2.000E+01  2.000E+04  2.867E-01
   1   18   29     3     8    1.6254E+05  8.1138E+03   1.5443E+05  0.000E+00  0.000E+00  0.000E+00  3.14916E+01  1.582E-01  2.000E+01  2.000E+04  4.057E-01
   1   18   30     3     9    1.5443E+05  2.2526E+03   1.5218E+05  0.000E+00  0.000E+00  0.000E+00  3.05996E+01  1.551E-01  2.000E+01  2.000E+04  1.126E-01



1
              HEAD IN LAYER   1 AT END OF TIME STEP   1 IN STRESS PERIOD   12
  ---------------------------------------------------------------------------

          1      2      3      4      5      6      7      8      9     10
         11     12     13     14     15     16     17     18     19     20
         21     22     23     24     25     26     27     28     29     30
 .........................................................................
   1  ****** ****** ****** ****** ****** ****** ****** ****** ****** ******
      ****** ****** ****** ****** ****** ****** ****** ****** ****** ******
      ****** ****** ****** ****** ****** ****** ****** ****** ****** ******
   2  ****** ****** ****** ****** ****** ****** ****** ****** ****** ******
      ****** ****** ****** ****** ****** ****** ****** ****** ****** ******
      ****** ****** ****** ****** ****** ****** ****** ****** ****** ******
   3  ****** ****** ****** ****** ****** ****** ****** ****** ****** ******
      ****** ****** ****** ****** ****** ****** ****** ****** ****** ******
      ****** ****** ****** ****** ****** ****** ****** ****** ****** ******
   4  ****** ****** ****** ****** ****** ****** ****** ****** ****** ******
      ****** ****** ****** ****** ****** ****** ****** ****** ****** ******
      ****** ****** ****** ****** ****** ****** ****** ****** ****** ******
   5  ****** ****** ****** ****** ****** ****** ****** ****** ****** ******
      ****** ****** ****** ****** ****** ****** ****** ****** ****** ******
      ****** ****** ****** ****** ****** ****** ****** ****** ****** ******
   6  ****** ****** ****** ****** ****** ****** ****** ****** ****** ******
      ****** ****** ****** ****** ****** ****** ****** ****** ****** ******
      ****** ****** ****** ****** ****** ****** ****** ****** ****** ******
   7  ****** ****** ****** ****** ****** ****** ****** ****** ****** ******
      ****** ****** ****** ****** ****** ****** ****** ****** ****** ******
      ****** ****** ****** ****** ****** ****** ****** ****** ****** ******
   8  ****** ****** ****** ****** ****** ****** ****** ****** ****** ******
      ****** ****** ****** ****** ****** ****** ****** ****** ****** ******
      ****** ****** ****** ****** ****** ****** ****** ****** ****** ******
   9  ****** ****** ****** ****** ****** ****** ****** ****** ****** ******
      ****** ****** ****** ****** ****** ****** ****** ****** ****** ******
      ****** ****** ****** ****** ****** ****** ****** ****** ****** ******
  10  ****** ****** ****** ****** ****** ****** ****** ****** ****** ******
      ****** ****** ****** ****** ****** ****** ****** ****** ****** ******
      ****** ****** ****** ****** ****** ****** ****** ****** ****** ******
  11  ****** ****** ****** ****** ****** ****** ****** ****** ****** ******
      ****** ****** ****** ****** ****** ****** ****** ****** ****** ******
      ****** ****** ****** ****** ****** ****** ****** ****** ****** ******
  12  ****** ****** ****** ****** ****** ****** ****** ****** ****** ******
      ****** ****** ****** ****** ****** ****** ****** ****** ****** ******
      ****** ****** ****** ****** ****** ****** ****** ****** ****** ******
  13  ****** ****** ****** ****** ****** ****** ****** ****** ****** ******
      ****** ****** ****** ****** ****** ****** ****** ****** ****** ******
      ****** ****** ****** ****** ****** ****** ****** ****** ****** ******
  14  ****** ****** ****** ****** ****** ****** ****** ****** ****** ******
      ****** ****** ****** ****** ****** ****** ****** ****** ****** ******
      ****** ****** ****** ****** ****** ****** ****** ****** ****** ******
  15  ****** ****** ****** ****** ****** ****** ****** ****** ****** ******
      ****** ****** ****** ****** ****** ****** ****** ****** ****** ******
      ****** ****** ****** ****** ****** ****** ****** ****** ****** ******
  16  ****** ****** ****** ****** ****** ****** ****** ****** ****** ******
      ****** ****** ****** ****** ****** ****** ****** ****** ****** ******
      ****** ****** ****** ****** ****** ****** ****** ****** ****** ******
  17  ****** ****** ****** ****** ****** ****** ****** ****** ****** ******
      ****** ****** ****** ****** ****** ****** ****** ****** ****** ******
      ****** ****** ****** ****** ****** ****** ****** ****** ****** ******
  18  ****** ****** ****** ****** ****** ****** ****** ****** ****** ******
      ****** ****** ****** ****** ****** ****** ****** ****** ****** ******
      ****** ****** ****** ****** ****** ****** ****** ****** ****** ******
  19  ****** ****** ****** ****** ****** ****** ****** ****** ****** ******
      ****** ****** ****** ****** ****** ****** ****** ****** ****** ******
      ****** ****** ****** ****** ****** ****** ****** ****** ****** ******
  20  ****** ****** ****** ****** ****** ****** ****** ****** ****** ******
      ****** ****** ****** ****** ****** ****** ****** ****** ****** ******
      ****** ****** ****** ****** ****** ****** ****** ****** ****** ******
  21  ****** ****** ****** ****** ****** ****** ****** ****** ****** ******
      ****** ****** ****** ****** ****** ****** ****** ****** ****** ******
      ****** ****** ****** ****** ****** ****** ****** ****** ****** ******
  22  ****** ****** ****** ****** ****** ****** ****** ****** ****** ******
      ****** ****** ****** ****** ****** ****** ****** ****** ****** ******
      ****** ****** ****** ****** ****** ****** ****** ****** ****** ******
  23  ****** ****** ****** ****** ****** ****** ****** ****** ****** ******
      ****** ****** ****** ****** ****** ****** ****** ****** ****** ******
      ****** ****** ****** ****** ****** ****** ****** ****** ****** ******
  24  ****** ****** ****** ****** ****** ****** ****** ****** ****** ******
      ****** ****** ****** ****** ****** ****** ****** ****** ****** ******
      ****** ****** ****** ****** ****** ****** ****** ****** ****** ******
  25  ****** ****** ****** ****** ****** ****** ****** ****** ****** ******
      ****** ****** ****** ****** ****** ****** ****** ****** ****** ******
      ****** ****** ****** ****** ****** ****** ****** ****** ****** ******

 HEAD WILL BE SAVED ON UNIT   51 AT END OF TIME STEP    1, STRESS PERIOD   12
1
  VOLUMETRIC BUDGET FOR ENTIRE MODEL AT END OF TIME STEP    1, STRESS PERIOD  12
  ------------------------------------------------------------------------------

     CUMULATIVE VOLUMES      L**3       RATES FOR THIS TIME STEP      L**3/T
     ------------------                 ------------------------

           IN:                                      IN:
           ---                                      ---
             STORAGE =    34248693.6519               STORAGE =           5.8028
       CONSTANT HEAD =    29948276.7899         CONSTANT HEAD =       32188.0401
               WELLS =           0.0000                 WELLS =           0.0000
            RECHARGE =    26413200.0000              RECHARGE =       27600.0000
      STREAM LEAKAGE =    36548372.1381        STREAM LEAKAGE =       37550.5248

            TOTAL IN =   127158542.5799              TOTAL IN =       97344.3676

          OUT:                                     OUT:
          ----                                     ----
             STORAGE =     2707669.1515               STORAGE =        3065.3251
       CONSTANT HEAD =           0.0000         CONSTANT HEAD =           0.0000
               WELLS =    59732229.8979                 WELLS =       54549.9816
            RECHARGE =           0.0000              RECHARGE =           0.0000
      STREAM LEAKAGE =    64718645.3557        STREAM LEAKAGE =       39729.0600

           TOTAL OUT =   127158544.4051             TOTAL OUT =       97344.3667

            IN - OUT =          -1.8252              IN - OUT =       8.8923E-04

 PERCENT DISCREPANCY =          -0.00     PERCENT DISCREPANCY =           0.00






         TIME SUMMARY AT END OF TIME STEP    1 IN STRESS PERIOD   12
                    SECONDS     MINUTES      HOURS       DAYS        YEARS
                    -----------------------------------------------------------
   TIME STEP LENGTH 7.86240E+06 1.31040E+05  2184.0      91.000     0.24914    
 STRESS PERIOD TIME 7.86240E+06 1.31040E+05  2184.0      91.000     0.24914    
         TOTAL TIME 9.46080E+07 1.57680E+06  26280.      1095.0      2.9979    
1

 Run end date and time (yyyy/mm/dd hh:mm:ss): 2019/03/29  1:03:12
 Elapsed run time:  0.142 Seconds

