                                  MODFLOW-2005     
      U.S. GEOLOGICAL SURVEY MODULAR FINITE-DIFFERENCE GROUND-WATER FLOW MODEL
                            VERSION 1.11.00 8/8/2013

 LIST FILE: supply2.lst
                         UNIT   10

 OPENING ..\data\supply.dis
 FILE TYPE:DIS   UNIT   11   STATUS:OLD    
 FORMAT:FORMATTED              ACCESS:SEQUENTIAL          

 OPENING ..\data\supply.ba6
 FILE TYPE:BAS6   UNIT   12   STATUS:OLD    
 FORMAT:FORMATTED              ACCESS:SEQUENTIAL          

 OPENING ..\data\supply_het.bc6
 FILE TYPE:BCF6   UNIT   13   STATUS:OLD    
 FORMAT:FORMATTED              ACCESS:SEQUENTIAL          

 OPENING ..\data\supply.rch
 FILE TYPE:RCH   UNIT   15   STATUS:OLD    
 FORMAT:FORMATTED              ACCESS:SEQUENTIAL          

 OPENING ..\data\supply2.sfr
 FILE TYPE:SFR   UNIT   16   STATUS:OLD    
 FORMAT:FORMATTED              ACCESS:SEQUENTIAL          

 OPENING ..\data\supply.oc
 FILE TYPE:OC   UNIT   17   STATUS:OLD    
 FORMAT:FORMATTED              ACCESS:SEQUENTIAL          

 OPENING ..\data\supply.pcg
 FILE TYPE:PCG   UNIT   18   STATUS:OLD    
 FORMAT:FORMATTED              ACCESS:SEQUENTIAL          

 OPENING supply2.wel
 FILE TYPE:WEL   UNIT   19   STATUS:OLD    
 FORMAT:FORMATTED              ACCESS:SEQUENTIAL          

 OPENING supply2sf.cbc
 FILE TYPE:DATA(BINARY)   UNIT   50   STATUS:UNKNOWN
 FORMAT:BINARY                 ACCESS:SEQUENTIAL          

 OPENING supply2hd.bhd
 FILE TYPE:DATA(BINARY)   UNIT   51   STATUS:UNKNOWN
 FORMAT:BINARY                 ACCESS:SEQUENTIAL          

 BAS -- BASIC PACKAGE, VERSION 7, 5/2/2005 INPUT READ FROM UNIT   12
 
 MODFLOW was compiled using uniform precision
 Precision of REAL and DOUBLE PRECISION variables:          15

 DISCRETIZATION INPUT DATA READ FROM UNIT   11
    1 LAYERS        25 ROWS        30 COLUMNS
   12 STRESS PERIOD(S) IN SIMULATION
 MODEL TIME UNIT IS DAYS
 MODEL LENGTH UNIT IS UNDEFINED
  Confining bed flag for each layer:
   0

                     DELR =   200.000    

                     DELC =   200.000    

 TOP ELEVATION OF LAYER 1 =  100.0000    

   MODEL LAYER BOTTOM EL. =   0.00000     FOR LAYER   1


 STRESS PERIOD     LENGTH       TIME STEPS     MULTIPLIER FOR DELT    SS FLAG
 ----------------------------------------------------------------------------
        1         92.00000          1                    1.500         TR
        2         91.00000          1                    1.500         TR
        3         91.00000          1                    1.500         TR
        4         91.00000          1                    1.500         TR
        5         92.00000          1                    1.500         TR
        6         91.00000          1                    1.500         TR
        7         91.00000          1                    1.500         TR
        8         91.00000          1                    1.500         TR
        9         92.00000          1                    1.500         TR
       10         91.00000          1                    1.500         TR
       11         91.00000          1                    1.500         TR
       12         91.00000          1                    1.500         TR

 TRANSIENT SIMULATION



 
 #MODOFC transient water supply sample problem                                   
 #                                                                               
 THE FREE FORMAT OPTION HAS BEEN SELECTED



                     BOUNDARY ARRAY FOR LAYER   1
 READING ON UNIT   12 WITH FORMAT: (20I4)              

 AQUIFER HEAD WILL BE SET TO   0.0000     AT ALL NO-FLOW NODES (IBOUND=0).



                       INITIAL HEAD FOR LAYER   1
 READING ON UNIT   12 WITH FORMAT: (10F13.0)           

 OUTPUT CONTROL IS SPECIFIED ONLY AT TIME STEPS FOR WHICH OUTPUT IS DESIRED
 COMPACT CELL-BY-CELL BUDGET FILES WILL BE WRITTEN
 HEAD PRINT FORMAT CODE IS  18    DRAWDOWN PRINT FORMAT CODE IS   0
 HEADS WILL BE SAVED ON UNIT   51    DRAWDOWNS WILL BE SAVED ON UNIT    0

 BCF -- BLOCK-CENTERED FLOW PACKAGE, VERSION 7, 5/2/2005
         INPUT READ FROM UNIT 13
 TRANSIENT SIMULATION
 HEAD AT CELLS THAT CONVERT TO DRY=   0.0000    
 WETTING CAPABILITY IS NOT ACTIVE
      LAYER  LAYER-TYPE CODE     INTERBLOCK T
      --------------------------------------------
         1            0          0 -- HARMONIC    

 COLUMN TO ROW ANISOTROPY =  1.000000    

     PRIMARY STORAGE COEF =  5.000000E-02 FOR LAYER   1



               TRANSMIS. ALONG ROWS FOR LAYER   1
 READING ON UNIT   13 WITH FORMAT: (FREE)              

 WEL -- WELL PACKAGE, VERSION 7, 5/2/2005 INPUT READ FROM UNIT   19
 # Well package input file written by MMProc
 No named parameters
 MAXIMUM OF      4 ACTIVE WELLS AT ONE TIME


     0 Well parameters

 RCH -- RECHARGE PACKAGE, VERSION 7, 5/2/2005 INPUT READ FROM UNIT   15
 No named parameters
 OPTION 1 -- RECHARGE TO TOP LAYER


     0 Recharge parameters

 SFR7 -- STREAMFLOW ROUTING PACKAGE, VERSION 1.0.7, 2013-01-15
         INPUT READ FROM UNIT  16
 #  Supply2 test problem for GWM-VI
 #  The eighth entry in the first data line is ISTCB2 -
 #    Setting this to a negative number indicates that
 #    streamflows out of the reach will be saved to a
 #    binary file.  The absolute value of ISTCB2 is the
 #    unit to which unformatted flows will be written.
 #
 No named parameters
 Segment information will not be 
 read by reach
 No named parameters
 No specifed inflow files


 NUMBER OF STREAM REACHES IS   40

 NUMBER OF STREAM SEGMENTS IS    3

 NUMBER OF STREAM PARAMETERS IS    0

 NUMBER OF STREAM SEGMENTS DEFINED USING PARAMETERS IS              0

 MAXIMUM ERROR FOR STREAM LEAKAGE RATES IS  1.00E-04

 CONSTANT FOR MANNINGS EQUATION IS  1.2839E+05





   STREAM NETWORK DESCRIPTION: 

   LAYER    ROW    COL   SEGMENT   REACH     LENGTH
                          NUMBER   NUMBER    IN CELL        
   --------------------------------------------------
      1     13      1       1        1    2.0000E+02
      1     13      2       1        2    2.0000E+02
      1     14      3       1        3    2.0000E+02
      1     15      4       1        4    2.0000E+02
      1     16      5       1        5    2.0000E+02
      1     16      6       1        6    2.0000E+02
      1     16      7       1        7    2.0000E+02
      1     16      8       1        8    2.0000E+02
      1     16      9       1        9    2.0000E+02
      1     16     10       1       10    2.0000E+02
      1     16     11       1       11    2.0000E+02
      1     16     12       1       12    2.0000E+02
      1     15     13       1       13    2.0000E+02
      1     14     14       1       14    2.0000E+02
      1     13     15       1       15    2.0000E+02
      1     12     16       1       16    2.0000E+02
      1     12     17       1       17    2.0000E+02
      1     12     18       1       18    2.0000E+02
      1     12     19       1       19    2.0000E+02
      1     13     20       1       20    2.0000E+02
      1     14     21       1       21    2.0000E+02
      1     14     22       1       22    2.0000E+02
      1      9     30       2        1    2.0000E+02
      1      9     29       2        2    2.0000E+02
      1      9     28       2        3    2.0000E+02
      1      9     27       2        4    2.0000E+02
      1     10     26       2        5    2.0000E+02
      1     11     25       2        6    2.0000E+02
      1     12     24       2        7    2.0000E+02
      1     13     23       2        8    2.0000E+02
      1     14     22       2        9    2.0000E+02
      1     14     22       3        1    2.0000E+02
      1     15     23       3        2    2.0000E+02
      1     15     24       3        3    2.0000E+02
      1     15     25       3        4    2.0000E+02
      1     15     26       3        5    2.0000E+02
      1     16     27       3        6    2.0000E+02
      1     17     28       3        7    2.0000E+02
      1     18     29       3        8    2.0000E+02
      1     18     30       3        9    2.0000E+02




 PCG -- CONJUGATE-GRADIENT SOLUTION PACKAGE, VERSION 7, 5/2/2005
 MAXIMUM OF    500 CALLS OF SOLUTION ROUTINE
 MAXIMUM OF      5 INTERNAL ITERATIONS PER CALL TO SOLUTION ROUTINE
 MATRIX PRECONDITIONING TYPE :    1



                                    SOLUTION BY THE CONJUGATE-GRADIENT METHOD
                                   -------------------------------------------
                    MAXIMUM NUMBER OF CALLS TO PCG ROUTINE =      500
                        MAXIMUM ITERATIONS PER CALL TO PCG =        5
                               MATRIX PRECONDITIONING TYPE =        1
        RELAXATION FACTOR (ONLY USED WITH PRECOND. TYPE 1) =    0.10000E+01
 PARAMETER OF POLYNOMIAL PRECOND. = 2 (2) OR IS CALCULATED :        0
                         HEAD CHANGE CRITERION FOR CLOSURE =    0.10000E-05
                     RESIDUAL CHANGE CRITERION FOR CLOSURE =    0.10000E+01
            PCG HEAD AND RESIDUAL CHANGE PRINTOUT INTERVAL =        1
     PRINTING FROM SOLVER IS LIMITED(1) OR SUPPRESSED (>1) =        1
                            STEADY-STATE DAMPING PARAMETER =    0.10000E+01
                               TRANSIENT DAMPING PARAMETER =    0.10000E+01
1
                            STRESS PERIOD NO.    1, LENGTH =   92.00000    
                            -----------------------------------------------

                              NUMBER OF TIME STEPS =     1

                               MULTIPLIER FOR DELT =     1.500

                            INITIAL TIME STEP SIZE =   92.00000    

 WELL NO.  LAYER   ROW   COL   STRESS RATE         
 --------------------------------------------------
      1      1     19     29     -0.1179E+05
      2      1     10     29     -0.1333E+05
      3      1     20     21     -0.1335E+05
      4      1      8     12      -8823.    

      4 WELLS

                 RECHARGE =  5.000000E-04



 CLASSIFICATION & COUNT OF STREAM SEGMENTS BASED ON SOURCE OF INFLOW:

                HEADWATER     DIVERSION     RECEIVES TRIBUTARY FLOW
                ---------     ---------     -----------------------
                     2              0               1



                    INPUT DATA FOR EACH STREAM SEGMENT
 ---------------------------------------------------------------------------------------------

 SEGMENT    SEG.     INFLOW   OVERLAND   STREAM    STREAM   ICALC  OUTFLOW  DIVERSION PRIORITY
    NO.    LENGTH     RATE     RUNOFF      ET       PPT.    METH.  TO SEG.  FROM SEG.    NO.

      1  4.400E+03 1.000E+05 0.000E+00 0.000E+00 0.000E+00    1        3        0        0
      2  1.800E+03 5.000E+04 0.000E+00 0.000E+00 0.000E+00    1        3        0        0
      3  1.800E+03 0.000E+00 0.000E+00 0.000E+00 0.000E+00    1        0        0        0


         STREAMBED PROPERTIES AND STREAM DIMENSIONS

 SEGMENT     BED HYD. COND.      BED THICKNESS     ELEV.-TOP OF BED     WIDTH OF STREAM     DEPTH OF STREAM    STREAM ROUGHNESS
    No.     UPPER     LOWER     UPPER     LOWER     UPPER     LOWER     UPPER     LOWER     UPPER     LOWER   CHANNEL      BANK

     1  5.000E+00 5.000E+00 1.000E+00 1.000E+00 4.850E+01 3.800E+01 2.000E+01 2.000E+01                     5.000E-02
     2  5.000E+00 5.000E+00 1.000E+00 1.000E+00 4.025E+01 3.800E+01 2.000E+01 2.000E+01                     5.000E-02
     3  5.000E+00 5.000E+00 1.000E+00 1.000E+00 3.800E+01 3.000E+01 2.000E+01 2.000E+01                     5.000E-02



 
 SOLVING FOR HEAD 


     9 CALLS TO PCG ROUTINE FOR TIME STEP   1 IN STRESS PERIOD    1
    36 TOTAL ITERATIONS

 OUTPUT CONTROL FOR STRESS PERIOD    1   TIME STEP    1
    SAVE BUDGET
    SAVE HEAD FOR ALL LAYERS
    PRINT HEAD FOR ALL LAYERS
 UBDSV2 SAVING "STREAMFLOW OUT  " ON UNIT  50 AT TIME STEP  1, STRESS PERIOD   1



 STREAM LISTING     PERIOD      1   STEP        1

 LAYER ROW COL. STREAM  RCH.  FLOW INTO     FLOW TO   FLOW OUT OF   OVRLND.     DIRECT     STREAM       STREAM     STREAM     STREAM   STREAMBED  STREAMBED
                SEG.NO.  NO.  STRM. RCH.    AQUIFER    STRM. RCH.    RUNOFF     PRECIP       ET          HEAD       DEPTH      WIDTH   CONDCTNC.   GRADIENT

   1   13    1     1     1    1.0000E+05 -6.0895E+03   1.0609E+05  0.000E+00  0.000E+00  0.000E+00  4.84086E+01  1.473E-01  2.000E+01  2.000E+04 -3.045E-01
   1   13    2     1     2    1.0609E+05 -7.5577E+03   1.1365E+05  0.000E+00  0.000E+00  0.000E+00  4.79371E+01  1.531E-01  2.000E+01  2.000E+04 -3.779E-01
   1   14    3     1     3    1.1365E+05 -2.1966E+03   1.1584E+05  0.000E+00  0.000E+00  0.000E+00  4.74639E+01  1.571E-01  2.000E+01  2.000E+04 -1.098E-01
   1   15    4     1     4    1.1584E+05 -2.2681E+03   1.1811E+05  0.000E+00  0.000E+00  0.000E+00  4.69885E+01  1.589E-01  2.000E+01  2.000E+04 -1.134E-01
   1   16    5     1     5    1.1811E+05 -7.1715E+03   1.2528E+05  0.000E+00  0.000E+00  0.000E+00  4.65150E+01  1.627E-01  2.000E+01  2.000E+04 -3.586E-01
   1   16    6     1     6    1.2528E+05 -4.2912E+03   1.2957E+05  0.000E+00  0.000E+00  0.000E+00  4.60423E+01  1.673E-01  2.000E+01  2.000E+04 -2.146E-01
   1   16    7     1     7    1.2957E+05 -4.1215E+03   1.3370E+05  0.000E+00  0.000E+00  0.000E+00  4.55683E+01  1.706E-01  2.000E+01  2.000E+04 -2.061E-01
   1   16    8     1     8    1.3370E+05 -4.0734E+03   1.3777E+05  0.000E+00  0.000E+00  0.000E+00  4.50942E+01  1.738E-01  2.000E+01  2.000E+04 -2.037E-01
   1   16    9     1     9    1.3777E+05 -4.0519E+03   1.4182E+05  0.000E+00  0.000E+00  0.000E+00  4.46200E+01  1.769E-01  2.000E+01  2.000E+04 -2.026E-01
   1   16   10     1    10    1.4182E+05 -4.0323E+03   1.4585E+05  0.000E+00  0.000E+00  0.000E+00  4.41458E+01  1.799E-01  2.000E+01  2.000E+04 -2.016E-01
   1   16   11     1    11    1.4585E+05 -4.0374E+03   1.4989E+05  0.000E+00  0.000E+00  0.000E+00  4.36716E+01  1.829E-01  2.000E+01  2.000E+04 -2.019E-01
   1   16   12     1    12    1.4989E+05 -6.7386E+03   1.5663E+05  0.000E+00  0.000E+00  0.000E+00  4.31983E+01  1.869E-01  2.000E+01  2.000E+04 -3.369E-01
   1   15   13     1    13    1.5663E+05 -6.9541E+03   1.6358E+05  0.000E+00  0.000E+00  0.000E+00  4.27259E+01  1.919E-01  2.000E+01  2.000E+04 -3.477E-01
   1   14   14     1    14    1.6358E+05 -7.3470E+03   1.7093E+05  0.000E+00  0.000E+00  0.000E+00  4.22538E+01  1.969E-01  2.000E+01  2.000E+04 -3.674E-01
   1   13   15     1    15    1.7093E+05 -7.6331E+03   1.7856E+05  0.000E+00  0.000E+00  0.000E+00  4.17817E+01  2.022E-01  2.000E+01  2.000E+04 -3.817E-01
   1   12   16     1    16    1.7856E+05 -8.3005E+03   1.8686E+05  0.000E+00  0.000E+00  0.000E+00  4.13099E+01  2.077E-01  2.000E+01  2.000E+04 -4.150E-01
   1   12   17     1    17    1.8686E+05 -6.0138E+03   1.9288E+05  0.000E+00  0.000E+00  0.000E+00  4.08375E+01  2.125E-01  2.000E+01  2.000E+04 -3.007E-01
   1   12   18     1    18    1.9288E+05 -5.9134E+03   1.9879E+05  0.000E+00  0.000E+00  0.000E+00  4.03642E+01  2.165E-01  2.000E+01  2.000E+04 -2.957E-01
   1   12   19     1    19    1.9879E+05 -7.5459E+03   2.0634E+05  0.000E+00  0.000E+00  0.000E+00  3.98914E+01  2.209E-01  2.000E+01  2.000E+04 -3.773E-01
   1   13   20     1    20    2.0634E+05 -6.5042E+03   2.1284E+05  0.000E+00  0.000E+00  0.000E+00  3.94187E+01  2.255E-01  2.000E+01  2.000E+04 -3.252E-01
   1   14   21     1    21    2.1284E+05 -5.6766E+03   2.1852E+05  0.000E+00  0.000E+00  0.000E+00  3.89453E+01  2.294E-01  2.000E+01  2.000E+04 -2.838E-01
   1   14   22     1    22    2.1852E+05  3.9147E+03   2.1460E+05  0.000E+00  0.000E+00  0.000E+00  3.84686E+01  2.300E-01  2.000E+01  2.000E+04  1.957E-01
   1    9   30     2     1    5.0000E+04 -2.4849E+03   5.2485E+04  0.000E+00  0.000E+00  0.000E+00  4.02426E+01  1.176E-01  2.000E+01  2.000E+04 -1.242E-01
   1    9   29     2     2    5.2485E+04 -4.6066E+02   5.2946E+04  0.000E+00  0.000E+00  0.000E+00  3.99946E+01  1.196E-01  2.000E+01  2.000E+04 -2.303E-02
   1    9   28     2     3    5.2946E+04 -3.6361E+03   5.6582E+04  0.000E+00  0.000E+00  0.000E+00  3.97474E+01  1.224E-01  2.000E+01  2.000E+04 -1.818E-01
   1    9   27     2     4    5.6582E+04 -7.6042E+03   6.4186E+04  0.000E+00  0.000E+00  0.000E+00  3.95048E+01  1.298E-01  2.000E+01  2.000E+04 -3.802E-01
   1   10   26     2     5    6.4186E+04 -6.4027E+03   7.0589E+04  0.000E+00  0.000E+00  0.000E+00  3.92636E+01  1.386E-01  2.000E+01  2.000E+04 -3.201E-01
   1   11   25     2     6    7.0589E+04 -6.3437E+03   7.6932E+04  0.000E+00  0.000E+00  0.000E+00  3.90213E+01  1.463E-01  2.000E+01  2.000E+04 -3.172E-01
   1   12   24     2     7    7.6932E+04 -6.1473E+03   8.3080E+04  0.000E+00  0.000E+00  0.000E+00  3.87786E+01  1.536E-01  2.000E+01  2.000E+04 -3.074E-01
   1   13   23     2     8    8.3080E+04 -1.6472E+03   8.4727E+04  0.000E+00  0.000E+00  0.000E+00  3.85331E+01  1.581E-01  2.000E+01  2.000E+04 -8.236E-02
   1   14   22     2     9    8.4727E+04  2.1996E+02   8.4507E+04  0.000E+00  0.000E+00  0.000E+00  3.82839E+01  1.589E-01  2.000E+01  2.000E+04  1.100E-02
   1   14   22     3     1    2.9911E+05 -9.6689E+03   3.0878E+05  0.000E+00  0.000E+00  0.000E+00  3.77894E+01  2.339E-01  2.000E+01  2.000E+04 -4.834E-01
   1   15   23     3     2    3.0878E+05 -1.8183E+03   3.1060E+05  0.000E+00  0.000E+00  0.000E+00  3.69032E+01  2.365E-01  2.000E+01  2.000E+04 -9.091E-02
   1   15   24     3     3    3.1060E+05 -1.4861E+03   3.1208E+05  0.000E+00  0.000E+00  0.000E+00  3.60150E+01  2.373E-01  2.000E+01  2.000E+04 -7.431E-02
   1   15   25     3     4    3.1208E+05 -1.5456E+03   3.1363E+05  0.000E+00  0.000E+00  0.000E+00  3.51269E+01  2.380E-01  2.000E+01  2.000E+04 -7.728E-02
   1   15   26     3     5    3.1363E+05 -1.8204E+03   3.1545E+05  0.000E+00  0.000E+00  0.000E+00  3.42387E+01  2.387E-01  2.000E+01  2.000E+04 -9.102E-02
   1   16   27     3     6    3.1545E+05 -2.0460E+03   3.1750E+05  0.000E+00  0.000E+00  0.000E+00  3.33507E+01  2.396E-01  2.000E+01  2.000E+04 -1.023E-01
   1   17   28     3     7    3.1750E+05 -5.2079E+03   3.2270E+05  0.000E+00  0.000E+00  0.000E+00  3.24635E+01  2.413E-01  2.000E+01  2.000E+04 -2.604E-01
   1   18   29     3     8    3.2270E+05 -2.2778E+03   3.2498E+05  0.000E+00  0.000E+00  0.000E+00  3.15763E+01  2.429E-01  2.000E+01  2.000E+04 -1.139E-01
   1   18   30     3     9    3.2498E+05 -4.4623E+03   3.2944E+05  0.000E+00  0.000E+00  0.000E+00  3.06889E+01  2.445E-01  2.000E+01  2.000E+04 -2.231E-01



1
              HEAD IN LAYER   1 AT END OF TIME STEP   1 IN STRESS PERIOD    1
  ---------------------------------------------------------------------------

          1      2      3      4      5      6      7      8      9     10
         11     12     13     14     15     16     17     18     19     20
         21     22     23     24     25     26     27     28     29     30
 .........................................................................
   1  ****** ****** ****** ****** ****** ****** ****** ****** ****** ******
      ****** ****** ****** ****** ****** ****** ****** ****** ****** ******
      ****** ****** ****** ****** ****** ****** ****** ****** ****** ******
   2  ****** ****** ****** ****** ****** ****** ****** ****** ****** ******
      ****** ****** ****** ****** ****** ****** ****** ****** ****** ******
      ****** ****** ****** ****** ****** ****** ****** ****** ****** ******
   3  ****** ****** ****** ****** ****** ****** ****** ****** ****** ******
      ****** ****** ****** ****** ****** ****** ****** ****** ****** ******
      ****** ****** ****** ****** ****** ****** ****** ****** ****** ******
   4  ****** ****** ****** ****** ****** ****** ****** ****** ****** ******
      ****** ****** ****** ****** ****** ****** ****** ****** ****** ******
      ****** ****** ****** ****** ****** ****** ****** ****** ****** ******
   5  ****** ****** ****** ****** ****** ****** ****** ****** ****** ******
      ****** ****** ****** ****** ****** ****** ****** ****** ****** ******
      ****** ****** ****** ****** ****** ****** ****** ****** ****** ******
   6  ****** ****** ****** ****** ****** ****** ****** ****** ****** ******
      ****** ****** ****** ****** ****** ****** ****** ****** ****** ******
      ****** ****** ****** ****** ****** ****** ****** ****** ****** ******
   7  ****** ****** ****** ****** ****** ****** ****** ****** ****** ******
      ****** ****** ****** ****** ****** ****** ****** ****** ****** ******
      ****** ****** ****** ****** ****** ****** ****** ****** ****** ******
   8  ****** ****** ****** ****** ****** ****** ****** ****** ****** ******
      ****** ****** ****** ****** ****** ****** ****** ****** ****** ******
      ****** ****** ****** ****** ****** ****** ****** ****** ****** ******
   9  ****** ****** ****** ****** ****** ****** ****** ****** ****** ******
      ****** ****** ****** ****** ****** ****** ****** ****** ****** ******
      ****** ****** ****** ****** ****** ****** ****** ****** ****** ******
  10  ****** ****** ****** ****** ****** ****** ****** ****** ****** ******
      ****** ****** ****** ****** ****** ****** ****** ****** ****** ******
      ****** ****** ****** ****** ****** ****** ****** ****** ****** ******
  11  ****** ****** ****** ****** ****** ****** ****** ****** ****** ******
      ****** ****** ****** ****** ****** ****** ****** ****** ****** ******
      ****** ****** ****** ****** ****** ****** ****** ****** ****** ******
  12  ****** ****** ****** ****** ****** ****** ****** ****** ****** ******
      ****** ****** ****** ****** ****** ****** ****** ****** ****** ******
      ****** ****** ****** ****** ****** ****** ****** ****** ****** ******
  13  ****** ****** ****** ****** ****** ****** ****** ****** ****** ******
      ****** ****** ****** ****** ****** ****** ****** ****** ****** ******
      ****** ****** ****** ****** ****** ****** ****** ****** ****** ******
  14  ****** ****** ****** ****** ****** ****** ****** ****** ****** ******
      ****** ****** ****** ****** ****** ****** ****** ****** ****** ******
      ****** ****** ****** ****** ****** ****** ****** ****** ****** ******
  15  ****** ****** ****** ****** ****** ****** ****** ****** ****** ******
      ****** ****** ****** ****** ****** ****** ****** ****** ****** ******
      ****** ****** ****** ****** ****** ****** ****** ****** ****** ******
  16  ****** ****** ****** ****** ****** ****** ****** ****** ****** ******
      ****** ****** ****** ****** ****** ****** ****** ****** ****** ******
      ****** ****** ****** ****** ****** ****** ****** ****** ****** ******
  17  ****** ****** ****** ****** ****** ****** ****** ****** ****** ******
      ****** ****** ****** ****** ****** ****** ****** ****** ****** ******
      ****** ****** ****** ****** ****** ****** ****** ****** ****** ******
  18  ****** ****** ****** ****** ****** ****** ****** ****** ****** ******
      ****** ****** ****** ****** ****** ****** ****** ****** ****** ******
      ****** ****** ****** ****** ****** ****** ****** ****** ****** ******
  19  ****** ****** ****** ****** ****** ****** ****** ****** ****** ******
      ****** ****** ****** ****** ****** ****** ****** ****** ****** ******
      ****** ****** ****** ****** ****** ****** ****** ****** ****** ******
  20  ****** ****** ****** ****** ****** ****** ****** ****** ****** ******
      ****** ****** ****** ****** ****** ****** ****** ****** ****** ******
      ****** ****** ****** ****** ****** ****** ****** ****** ****** ******
  21  ****** ****** ****** ****** ****** ****** ****** ****** ****** ******
      ****** ****** ****** ****** ****** ****** ****** ****** ****** ******
      ****** ****** ****** ****** ****** ****** ****** ****** ****** ******
  22  ****** ****** ****** ****** ****** ****** ****** ****** ****** ******
      ****** ****** ****** ****** ****** ****** ****** ****** ****** ******
      ****** ****** ****** ****** ****** ****** ****** ****** ****** ******
  23  ****** ****** ****** ****** ****** ****** ****** ****** ****** ******
      ****** ****** ****** ****** ****** ****** ****** ****** ****** ******
      ****** ****** ****** ****** ****** ****** ****** ****** ****** ******
  24  ****** ****** ****** ****** ****** ****** ****** ****** ****** ******
      ****** ****** ****** ****** ****** ****** ****** ****** ****** ******
      ****** ****** ****** ****** ****** ****** ****** ****** ****** ******
  25  ****** ****** ****** ****** ****** ****** ****** ****** ****** ******
      ****** ****** ****** ****** ****** ****** ****** ****** ****** ******
      ****** ****** ****** ****** ****** ****** ****** ****** ****** ******

 HEAD WILL BE SAVED ON UNIT   51 AT END OF TIME STEP    1, STRESS PERIOD    1
1
  VOLUMETRIC BUDGET FOR ENTIRE MODEL AT END OF TIME STEP    1, STRESS PERIOD   1
  ------------------------------------------------------------------------------

     CUMULATIVE VOLUMES      L**3       RATES FOR THIS TIME STEP      L**3/T
     ------------------                 ------------------------

           IN:                                      IN:
           ---                                      ---
             STORAGE =    18376998.6433               STORAGE =      199749.9853
       CONSTANT HEAD =     1213421.4175         CONSTANT HEAD =       13189.3632
               WELLS =           0.0000                 WELLS =           0.0000
            RECHARGE =     1269600.0000              RECHARGE =       13800.0000
      STREAM LEAKAGE =      380386.4746        STREAM LEAKAGE =        4134.6356

            TOTAL IN =    21240406.5354              TOTAL IN =      230873.9841

          OUT:                                     OUT:
          ----                                     ----
             STORAGE =           0.0000               STORAGE =           0.0000
       CONSTANT HEAD =           0.0000         CONSTANT HEAD =           0.0000
               WELLS =     4351207.0904                 WELLS =       47295.7292
            RECHARGE =           0.0000              RECHARGE =           0.0000
      STREAM LEAKAGE =    16889199.7338        STREAM LEAKAGE =      183578.2580

           TOTAL OUT =    21240406.8243             TOTAL OUT =      230873.9872

            IN - OUT =          -0.2889              IN - OUT =      -3.1399E-03

 PERCENT DISCREPANCY =          -0.00     PERCENT DISCREPANCY =          -0.00






         TIME SUMMARY AT END OF TIME STEP    1 IN STRESS PERIOD    1
                    SECONDS     MINUTES      HOURS       DAYS        YEARS
                    -----------------------------------------------------------
   TIME STEP LENGTH 7.94880E+06 1.32480E+05  2208.0      92.000     0.25188    
 STRESS PERIOD TIME 7.94880E+06 1.32480E+05  2208.0      92.000     0.25188    
         TOTAL TIME 7.94880E+06 1.32480E+05  2208.0      92.000     0.25188    
1
1
                            STRESS PERIOD NO.    2, LENGTH =   91.00000    
                            -----------------------------------------------

                              NUMBER OF TIME STEPS =     1

                               MULTIPLIER FOR DELT =     1.500

                            INITIAL TIME STEP SIZE =   91.00000    

 WELL NO.  LAYER   ROW   COL   STRESS RATE         
 --------------------------------------------------
      1      1     19     29     -0.1179E+05
      2      1     10     29     -0.1333E+05
      3      1     20     21     -0.1335E+05
      4      1      8     12      -8823.    

      4 WELLS

                 RECHARGE =  2.000000E-03

 REUSING STREAM SEGMENT DATA FROM LAST STRESS PERIOD
 
 SOLVING FOR HEAD 


     7 CALLS TO PCG ROUTINE FOR TIME STEP   1 IN STRESS PERIOD    2
    27 TOTAL ITERATIONS

 OUTPUT CONTROL FOR STRESS PERIOD    2   TIME STEP    1
    SAVE BUDGET
    SAVE HEAD FOR ALL LAYERS
    PRINT HEAD FOR ALL LAYERS
 UBDSV2 SAVING "STREAMFLOW OUT  " ON UNIT  50 AT TIME STEP  1, STRESS PERIOD   2



 STREAM LISTING     PERIOD      2   STEP        1

 LAYER ROW COL. STREAM  RCH.  FLOW INTO     FLOW TO   FLOW OUT OF   OVRLND.     DIRECT     STREAM       STREAM     STREAM     STREAM   STREAMBED  STREAMBED
                SEG.NO.  NO.  STRM. RCH.    AQUIFER    STRM. RCH.    RUNOFF     PRECIP       ET          HEAD       DEPTH      WIDTH   CONDCTNC.   GRADIENT

   1   13    1     1     1    1.0000E+05 -3.9251E+03   1.0393E+05  0.000E+00  0.000E+00  0.000E+00  4.84077E+01  1.463E-01  2.000E+01  2.000E+04 -1.963E-01
   1   13    2     1     2    1.0393E+05 -5.1823E+03   1.0911E+05  0.000E+00  0.000E+00  0.000E+00  4.79343E+01  1.502E-01  2.000E+01  2.000E+04 -2.591E-01
   1   14    3     1     3    1.0911E+05 -1.1093E+03   1.1022E+05  0.000E+00  0.000E+00  0.000E+00  4.74597E+01  1.529E-01  2.000E+01  2.000E+04 -5.546E-02
   1   15    4     1     4    1.1022E+05 -1.1377E+03   1.1135E+05  0.000E+00  0.000E+00  0.000E+00  4.69834E+01  1.538E-01  2.000E+01  2.000E+04 -5.688E-02
   1   16    5     1     5    1.1135E+05 -4.2194E+03   1.1557E+05  0.000E+00  0.000E+00  0.000E+00  4.65083E+01  1.560E-01  2.000E+01  2.000E+04 -2.110E-01
   1   16    6     1     6    1.1557E+05 -2.4776E+03   1.1805E+05  0.000E+00  0.000E+00  0.000E+00  4.60338E+01  1.588E-01  2.000E+01  2.000E+04 -1.239E-01
   1   16    7     1     7    1.1805E+05 -2.3737E+03   1.2043E+05  0.000E+00  0.000E+00  0.000E+00  4.55585E+01  1.608E-01  2.000E+01  2.000E+04 -1.187E-01
   1   16    8     1     8    1.2043E+05 -2.3298E+03   1.2275E+05  0.000E+00  0.000E+00  0.000E+00  4.50831E+01  1.627E-01  2.000E+01  2.000E+04 -1.165E-01
   1   16    9     1     9    1.2275E+05 -2.2878E+03   1.2504E+05  0.000E+00  0.000E+00  0.000E+00  4.46077E+01  1.645E-01  2.000E+01  2.000E+04 -1.144E-01
   1   16   10     1    10    1.2504E+05 -2.2318E+03   1.2727E+05  0.000E+00  0.000E+00  0.000E+00  4.41322E+01  1.663E-01  2.000E+01  2.000E+04 -1.116E-01
   1   16   11     1    11    1.2727E+05 -2.1836E+03   1.2946E+05  0.000E+00  0.000E+00  0.000E+00  4.36567E+01  1.680E-01  2.000E+01  2.000E+04 -1.092E-01
   1   16   12     1    12    1.2946E+05 -3.6480E+03   1.3311E+05  0.000E+00  0.000E+00  0.000E+00  4.31817E+01  1.703E-01  2.000E+01  2.000E+04 -1.824E-01
   1   15   13     1    13    1.3311E+05 -3.4865E+03   1.3659E+05  0.000E+00  0.000E+00  0.000E+00  4.27072E+01  1.731E-01  2.000E+01  2.000E+04 -1.743E-01
   1   14   14     1    14    1.3659E+05 -3.7319E+03   1.4032E+05  0.000E+00  0.000E+00  0.000E+00  4.22327E+01  1.758E-01  2.000E+01  2.000E+04 -1.866E-01
   1   13   15     1    15    1.4032E+05 -4.0201E+03   1.4434E+05  0.000E+00  0.000E+00  0.000E+00  4.17583E+01  1.788E-01  2.000E+01  2.000E+04 -2.010E-01
   1   12   16     1    16    1.4434E+05 -4.9125E+03   1.4926E+05  0.000E+00  0.000E+00  0.000E+00  4.12844E+01  1.821E-01  2.000E+01  2.000E+04 -2.456E-01
   1   12   17     1    17    1.4926E+05 -3.3748E+03   1.5263E+05  0.000E+00  0.000E+00  0.000E+00  4.08102E+01  1.852E-01  2.000E+01  2.000E+04 -1.687E-01
   1   12   18     1    18    1.5263E+05 -3.2929E+03   1.5592E+05  0.000E+00  0.000E+00  0.000E+00  4.03354E+01  1.876E-01  2.000E+01  2.000E+04 -1.646E-01
   1   12   19     1    19    1.5592E+05 -4.3409E+03   1.6027E+05  0.000E+00  0.000E+00  0.000E+00  3.98609E+01  1.904E-01  2.000E+01  2.000E+04 -2.170E-01
   1   13   20     1    20    1.6027E+05 -3.2136E+03   1.6348E+05  0.000E+00  0.000E+00  0.000E+00  3.93863E+01  1.931E-01  2.000E+01  2.000E+04 -1.607E-01
   1   14   21     1    21    1.6348E+05 -2.5566E+03   1.6604E+05  0.000E+00  0.000E+00  0.000E+00  3.89111E+01  1.952E-01  2.000E+01  2.000E+04 -1.278E-01
   1   14   22     1    22    1.6604E+05  4.7697E+03   1.6127E+05  0.000E+00  0.000E+00  0.000E+00  3.84330E+01  1.944E-01  2.000E+01  2.000E+04  2.385E-01
   1    9   30     2     1    5.0000E+04  4.2838E+02   4.9572E+04  0.000E+00  0.000E+00  0.000E+00  4.02406E+01  1.156E-01  2.000E+01  2.000E+04  2.142E-02
   1    9   29     2     2    4.9572E+04  2.4475E+03   4.7124E+04  0.000E+00  0.000E+00  0.000E+00  3.99886E+01  1.136E-01  2.000E+01  2.000E+04  1.224E-01
   1    9   28     2     3    4.7124E+04 -8.0982E+02   4.7934E+04  0.000E+00  0.000E+00  0.000E+00  3.97374E+01  1.124E-01  2.000E+01  2.000E+04 -4.049E-02
   1    9   27     2     4    4.7934E+04 -4.0770E+03   5.2011E+04  0.000E+00  0.000E+00  0.000E+00  3.94908E+01  1.158E-01  2.000E+01  2.000E+04 -2.038E-01
   1   10   26     2     5    5.2011E+04 -2.6806E+03   5.4692E+04  0.000E+00  0.000E+00  0.000E+00  3.92455E+01  1.205E-01  2.000E+01  2.000E+04 -1.340E-01
   1   11   25     2     6    5.4692E+04 -2.8177E+03   5.7509E+04  0.000E+00  0.000E+00  0.000E+00  3.89992E+01  1.242E-01  2.000E+01  2.000E+04 -1.409E-01
   1   12   24     2     7    5.7509E+04 -3.0327E+03   6.0542E+04  0.000E+00  0.000E+00  0.000E+00  3.87530E+01  1.280E-01  2.000E+01  2.000E+04 -1.516E-01
   1   13   23     2     8    6.0542E+04 -6.0387E+02   6.1146E+04  0.000E+00  0.000E+00  0.000E+00  3.85053E+01  1.303E-01  2.000E+01  2.000E+04 -3.019E-02
   1   14   22     2     9    6.1146E+04  1.2083E+03   5.9938E+04  0.000E+00  0.000E+00  0.000E+00  3.82550E+01  1.300E-01  2.000E+01  2.000E+04  6.041E-02
   1   14   22     3     1    2.2120E+05 -8.8680E+03   2.3007E+05  0.000E+00  0.000E+00  0.000E+00  3.77511E+01  1.956E-01  2.000E+01  2.000E+04 -4.434E-01
   1   15   23     3     2    2.3007E+05 -7.7736E+02   2.3085E+05  0.000E+00  0.000E+00  0.000E+00  3.68648E+01  1.981E-01  2.000E+01  2.000E+04 -3.887E-02
   1   15   24     3     3    2.3085E+05 -5.7938E+02   2.3143E+05  0.000E+00  0.000E+00  0.000E+00  3.59762E+01  1.984E-01  2.000E+01  2.000E+04 -2.897E-02
   1   15   25     3     4    2.3143E+05 -6.0257E+02   2.3203E+05  0.000E+00  0.000E+00  0.000E+00  3.50876E+01  1.987E-01  2.000E+01  2.000E+04 -3.013E-02
   1   15   26     3     5    2.3203E+05 -6.6838E+02   2.3270E+05  0.000E+00  0.000E+00  0.000E+00  3.41991E+01  1.991E-01  2.000E+01  2.000E+04 -3.342E-02
   1   16   27     3     6    2.3270E+05 -7.0949E+02   2.3341E+05  0.000E+00  0.000E+00  0.000E+00  3.33105E+01  1.994E-01  2.000E+01  2.000E+04 -3.547E-02
   1   17   28     3     7    2.3341E+05 -1.4688E+03   2.3488E+05  0.000E+00  0.000E+00  0.000E+00  3.24222E+01  2.000E-01  2.000E+01  2.000E+04 -7.344E-02
   1   18   29     3     8    2.3488E+05  1.4541E+03   2.3342E+05  0.000E+00  0.000E+00  0.000E+00  3.15333E+01  2.000E-01  2.000E+01  2.000E+04  7.271E-02
   1   18   30     3     9    2.3342E+05 -1.4381E+03   2.3486E+05  0.000E+00  0.000E+00  0.000E+00  3.06444E+01  2.000E-01  2.000E+01  2.000E+04 -7.190E-02



1
              HEAD IN LAYER   1 AT END OF TIME STEP   1 IN STRESS PERIOD    2
  ---------------------------------------------------------------------------

          1      2      3      4      5      6      7      8      9     10
         11     12     13     14     15     16     17     18     19     20
         21     22     23     24     25     26     27     28     29     30
 .........................................................................
   1  ****** ****** ****** ****** ****** ****** ****** ****** ****** ******
      ****** ****** ****** ****** ****** ****** ****** ****** ****** ******
      ****** ****** ****** ****** ****** ****** ****** ****** ****** ******
   2  ****** ****** ****** ****** ****** ****** ****** ****** ****** ******
      ****** ****** ****** ****** ****** ****** ****** ****** ****** ******
      ****** ****** ****** ****** ****** ****** ****** ****** ****** ******
   3  ****** ****** ****** ****** ****** ****** ****** ****** ****** ******
      ****** ****** ****** ****** ****** ****** ****** ****** ****** ******
      ****** ****** ****** ****** ****** ****** ****** ****** ****** ******
   4  ****** ****** ****** ****** ****** ****** ****** ****** ****** ******
      ****** ****** ****** ****** ****** ****** ****** ****** ****** ******
      ****** ****** ****** ****** ****** ****** ****** ****** ****** ******
   5  ****** ****** ****** ****** ****** ****** ****** ****** ****** ******
      ****** ****** ****** ****** ****** ****** ****** ****** ****** ******
      ****** ****** ****** ****** ****** ****** ****** ****** ****** ******
   6  ****** ****** ****** ****** ****** ****** ****** ****** ****** ******
      ****** ****** ****** ****** ****** ****** ****** ****** ****** ******
      ****** ****** ****** ****** ****** ****** ****** ****** ****** ******
   7  ****** ****** ****** ****** ****** ****** ****** ****** ****** ******
      ****** ****** ****** ****** ****** ****** ****** ****** ****** ******
      ****** ****** ****** ****** ****** ****** ****** ****** ****** ******
   8  ****** ****** ****** ****** ****** ****** ****** ****** ****** ******
      ****** ****** ****** ****** ****** ****** ****** ****** ****** ******
      ****** ****** ****** ****** ****** ****** ****** ****** ****** ******
   9  ****** ****** ****** ****** ****** ****** ****** ****** ****** ******
      ****** ****** ****** ****** ****** ****** ****** ****** ****** ******
      ****** ****** ****** ****** ****** ****** ****** ****** ****** ******
  10  ****** ****** ****** ****** ****** ****** ****** ****** ****** ******
      ****** ****** ****** ****** ****** ****** ****** ****** ****** ******
      ****** ****** ****** ****** ****** ****** ****** ****** ****** ******
  11  ****** ****** ****** ****** ****** ****** ****** ****** ****** ******
      ****** ****** ****** ****** ****** ****** ****** ****** ****** ******
      ****** ****** ****** ****** ****** ****** ****** ****** ****** ******
  12  ****** ****** ****** ****** ****** ****** ****** ****** ****** ******
      ****** ****** ****** ****** ****** ****** ****** ****** ****** ******
      ****** ****** ****** ****** ****** ****** ****** ****** ****** ******
  13  ****** ****** ****** ****** ****** ****** ****** ****** ****** ******
      ****** ****** ****** ****** ****** ****** ****** ****** ****** ******
      ****** ****** ****** ****** ****** ****** ****** ****** ****** ******
  14  ****** ****** ****** ****** ****** ****** ****** ****** ****** ******
      ****** ****** ****** ****** ****** ****** ****** ****** ****** ******
      ****** ****** ****** ****** ****** ****** ****** ****** ****** ******
  15  ****** ****** ****** ****** ****** ****** ****** ****** ****** ******
      ****** ****** ****** ****** ****** ****** ****** ****** ****** ******
      ****** ****** ****** ****** ****** ****** ****** ****** ****** ******
  16  ****** ****** ****** ****** ****** ****** ****** ****** ****** ******
      ****** ****** ****** ****** ****** ****** ****** ****** ****** ******
      ****** ****** ****** ****** ****** ****** ****** ****** ****** ******
  17  ****** ****** ****** ****** ****** ****** ****** ****** ****** ******
      ****** ****** ****** ****** ****** ****** ****** ****** ****** ******
      ****** ****** ****** ****** ****** ****** ****** ****** ****** ******
  18  ****** ****** ****** ****** ****** ****** ****** ****** ****** ******
      ****** ****** ****** ****** ****** ****** ****** ****** ****** ******
      ****** ****** ****** ****** ****** ****** ****** ****** ****** ******
  19  ****** ****** ****** ****** ****** ****** ****** ****** ****** ******
      ****** ****** ****** ****** ****** ****** ****** ****** ****** ******
      ****** ****** ****** ****** ****** ****** ****** ****** ****** ******
  20  ****** ****** ****** ****** ****** ****** ****** ****** ****** ******
      ****** ****** ****** ****** ****** ****** ****** ****** ****** ******
      ****** ****** ****** ****** ****** ****** ****** ****** ****** ******
  21  ****** ****** ****** ****** ****** ****** ****** ****** ****** ******
      ****** ****** ****** ****** ****** ****** ****** ****** ****** ******
      ****** ****** ****** ****** ****** ****** ****** ****** ****** ******
  22  ****** ****** ****** ****** ****** ****** ****** ****** ****** ******
      ****** ****** ****** ****** ****** ****** ****** ****** ****** ******
      ****** ****** ****** ****** ****** ****** ****** ****** ****** ******
  23  ****** ****** ****** ****** ****** ****** ****** ****** ****** ******
      ****** ****** ****** ****** ****** ****** ****** ****** ****** ******
      ****** ****** ****** ****** ****** ****** ****** ****** ****** ******
  24  ****** ****** ****** ****** ****** ****** ****** ****** ****** ******
      ****** ****** ****** ****** ****** ****** ****** ****** ****** ******
      ****** ****** ****** ****** ****** ****** ****** ****** ****** ******
  25  ****** ****** ****** ****** ****** ****** ****** ****** ****** ******
      ****** ****** ****** ****** ****** ****** ****** ****** ****** ******
      ****** ****** ****** ****** ****** ****** ****** ****** ****** ******

 HEAD WILL BE SAVED ON UNIT   51 AT END OF TIME STEP    1, STRESS PERIOD    2
1
  VOLUMETRIC BUDGET FOR ENTIRE MODEL AT END OF TIME STEP    1, STRESS PERIOD   2
  ------------------------------------------------------------------------------

     CUMULATIVE VOLUMES      L**3       RATES FOR THIS TIME STEP      L**3/T
     ------------------                 ------------------------

           IN:                                      IN:
           ---                                      ---
             STORAGE =    23710004.1929               STORAGE =       58604.4566
       CONSTANT HEAD =     2883526.7006         CONSTANT HEAD =       18352.8053
               WELLS =           0.0000                 WELLS =           0.0000
            RECHARGE =     6292800.0000              RECHARGE =       55200.0000
      STREAM LEAKAGE =     1318404.0998        STREAM LEAKAGE =       10307.8860

            TOTAL IN =    34204734.9934              TOTAL IN =      142465.1479

          OUT:                                     OUT:
          ----                                     ----
             STORAGE =           0.0000               STORAGE =           0.0000
       CONSTANT HEAD =           0.0000         CONSTANT HEAD =           0.0000
               WELLS =     8655118.4516                 WELLS =       47295.7292
            RECHARGE =           0.0000              RECHARGE =           0.0000
      STREAM LEAKAGE =    25549617.7971        STREAM LEAKAGE =       95169.4293

           TOTAL OUT =    34204736.2488             TOTAL OUT =      142465.1585

            IN - OUT =          -1.2554              IN - OUT =      -1.0621E-02

 PERCENT DISCREPANCY =          -0.00     PERCENT DISCREPANCY =          -0.00






         TIME SUMMARY AT END OF TIME STEP    1 IN STRESS PERIOD    2
                    SECONDS     MINUTES      HOURS       DAYS        YEARS
                    -----------------------------------------------------------
   TIME STEP LENGTH 7.86240E+06 1.31040E+05  2184.0      91.000     0.24914    
 STRESS PERIOD TIME 7.86240E+06 1.31040E+05  2184.0      91.000     0.24914    
         TOTAL TIME 1.58112E+07 2.63520E+05  4392.0      183.00     0.50103    
1
1
                            STRESS PERIOD NO.    3, LENGTH =   91.00000    
                            -----------------------------------------------

                              NUMBER OF TIME STEPS =     1

                               MULTIPLIER FOR DELT =     1.500

                            INITIAL TIME STEP SIZE =   91.00000    

 WELL NO.  LAYER   ROW   COL   STRESS RATE         
 --------------------------------------------------
      1      1     19     29     -0.1179E+05
      2      1     10     29     -0.1333E+05
      3      1     20     21     -0.1335E+05
      4      1      8     12      -8823.    

      4 WELLS

                 RECHARGE =   0.00000    

 REUSING STREAM SEGMENT DATA FROM LAST STRESS PERIOD
 
 SOLVING FOR HEAD 


     7 CALLS TO PCG ROUTINE FOR TIME STEP   1 IN STRESS PERIOD    3
    27 TOTAL ITERATIONS

 OUTPUT CONTROL FOR STRESS PERIOD    3   TIME STEP    1
    SAVE BUDGET
    SAVE HEAD FOR ALL LAYERS
    PRINT HEAD FOR ALL LAYERS
 UBDSV2 SAVING "STREAMFLOW OUT  " ON UNIT  50 AT TIME STEP  1, STRESS PERIOD   3



 STREAM LISTING     PERIOD      3   STEP        1

 LAYER ROW COL. STREAM  RCH.  FLOW INTO     FLOW TO   FLOW OUT OF   OVRLND.     DIRECT     STREAM       STREAM     STREAM     STREAM   STREAMBED  STREAMBED
                SEG.NO.  NO.  STRM. RCH.    AQUIFER    STRM. RCH.    RUNOFF     PRECIP       ET          HEAD       DEPTH      WIDTH   CONDCTNC.   GRADIENT

   1   13    1     1     1    1.0000E+05 -2.6293E+03   1.0263E+05  0.000E+00  0.000E+00  0.000E+00  4.84072E+01  1.458E-01  2.000E+01  2.000E+04 -1.315E-01
   1   13    2     1     2    1.0263E+05 -3.7287E+03   1.0636E+05  0.000E+00  0.000E+00  0.000E+00  4.79326E+01  1.485E-01  2.000E+01  2.000E+04 -1.864E-01
   1   14    3     1     3    1.0636E+05 -6.4316E+02   1.0700E+05  0.000E+00  0.000E+00  0.000E+00  4.74572E+01  1.504E-01  2.000E+01  2.000E+04 -3.216E-02
   1   15    4     1     4    1.0700E+05 -6.2788E+02   1.0763E+05  0.000E+00  0.000E+00  0.000E+00  4.69805E+01  1.509E-01  2.000E+01  2.000E+04 -3.139E-02
   1   16    5     1     5    1.0763E+05 -2.4054E+03   1.1003E+05  0.000E+00  0.000E+00  0.000E+00  4.65045E+01  1.522E-01  2.000E+01  2.000E+04 -1.203E-01
   1   16    6     1     6    1.1003E+05 -1.4589E+03   1.1149E+05  0.000E+00  0.000E+00  0.000E+00  4.60288E+01  1.538E-01  2.000E+01  2.000E+04 -7.295E-02
   1   16    7     1     7    1.1149E+05 -1.4094E+03   1.1290E+05  0.000E+00  0.000E+00  0.000E+00  4.55527E+01  1.550E-01  2.000E+01  2.000E+04 -7.047E-02
   1   16    8     1     8    1.1290E+05 -1.3784E+03   1.1428E+05  0.000E+00  0.000E+00  0.000E+00  4.50766E+01  1.561E-01  2.000E+01  2.000E+04 -6.892E-02
   1   16    9     1     9    1.1428E+05 -1.3341E+03   1.1562E+05  0.000E+00  0.000E+00  0.000E+00  4.46004E+01  1.573E-01  2.000E+01  2.000E+04 -6.670E-02
   1   16   10     1    10    1.1562E+05 -1.2698E+03   1.1688E+05  0.000E+00  0.000E+00  0.000E+00  4.41242E+01  1.583E-01  2.000E+01  2.000E+04 -6.349E-02
   1   16   11     1    11    1.1688E+05 -1.2025E+03   1.1809E+05  0.000E+00  0.000E+00  0.000E+00  4.36480E+01  1.593E-01  2.000E+01  2.000E+04 -6.013E-02
   1   16   12     1    12    1.1809E+05 -1.9057E+03   1.1999E+05  0.000E+00  0.000E+00  0.000E+00  4.31720E+01  1.606E-01  2.000E+01  2.000E+04 -9.528E-02
   1   15   13     1    13    1.1999E+05 -1.6984E+03   1.2169E+05  0.000E+00  0.000E+00  0.000E+00  4.26961E+01  1.621E-01  2.000E+01  2.000E+04 -8.492E-02
   1   14   14     1    14    1.2169E+05 -1.8892E+03   1.2358E+05  0.000E+00  0.000E+00  0.000E+00  4.22203E+01  1.635E-01  2.000E+01  2.000E+04 -9.446E-02
   1   13   15     1    15    1.2358E+05 -2.1771E+03   1.2576E+05  0.000E+00  0.000E+00  0.000E+00  4.17447E+01  1.651E-01  2.000E+01  2.000E+04 -1.089E-01
   1   12   16     1    16    1.2576E+05 -3.0275E+03   1.2879E+05  0.000E+00  0.000E+00  0.000E+00  4.12694E+01  1.672E-01  2.000E+01  2.000E+04 -1.514E-01
   1   12   17     1    17    1.2879E+05 -2.0188E+03   1.3080E+05  0.000E+00  0.000E+00  0.000E+00  4.07942E+01  1.692E-01  2.000E+01  2.000E+04 -1.009E-01
   1   12   18     1    18    1.3080E+05 -1.9647E+03   1.3277E+05  0.000E+00  0.000E+00  0.000E+00  4.03184E+01  1.707E-01  2.000E+01  2.000E+04 -9.823E-02
   1   12   19     1    19    1.3277E+05 -2.7024E+03   1.3547E+05  0.000E+00  0.000E+00  0.000E+00  3.98430E+01  1.725E-01  2.000E+01  2.000E+04 -1.351E-01
   1   13   20     1    20    1.3547E+05 -1.6607E+03   1.3713E+05  0.000E+00  0.000E+00  0.000E+00  3.93674E+01  1.742E-01  2.000E+01  2.000E+04 -8.303E-02
   1   14   21     1    21    1.3713E+05 -8.8403E+02   1.3802E+05  0.000E+00  0.000E+00  0.000E+00  3.88911E+01  1.752E-01  2.000E+01  2.000E+04 -4.420E-02
   1   14   22     1    22    1.3802E+05  5.1698E+03   1.3285E+05  0.000E+00  0.000E+00  0.000E+00  3.84122E+01  1.735E-01  2.000E+01  2.000E+04  2.585E-01
   1    9   30     2     1    5.0000E+04  1.6504E+03   4.8350E+04  0.000E+00  0.000E+00  0.000E+00  4.02397E+01  1.147E-01  2.000E+01  2.000E+04  8.252E-02
   1    9   29     2     2    4.8350E+04  3.6659E+03   4.4684E+04  0.000E+00  0.000E+00  0.000E+00  3.99860E+01  1.110E-01  2.000E+01  2.000E+04  1.833E-01
   1    9   28     2     3    4.4684E+04  4.1692E+02   4.4267E+04  0.000E+00  0.000E+00  0.000E+00  3.97330E+01  1.080E-01  2.000E+01  2.000E+04  2.085E-02
   1    9   27     2     4    4.4267E+04 -2.3266E+03   4.6593E+04  0.000E+00  0.000E+00  0.000E+00  3.94844E+01  1.094E-01  2.000E+01  2.000E+04 -1.163E-01
   1   10   26     2     5    4.6593E+04 -1.0326E+03   4.7626E+04  0.000E+00  0.000E+00  0.000E+00  3.92368E+01  1.118E-01  2.000E+01  2.000E+04 -5.163E-02
   1   11   25     2     6    4.7626E+04 -1.2828E+03   4.8909E+04  0.000E+00  0.000E+00  0.000E+00  3.89884E+01  1.134E-01  2.000E+01  2.000E+04 -6.414E-02
   1   12   24     2     7    4.8909E+04 -1.6667E+03   5.0575E+04  0.000E+00  0.000E+00  0.000E+00  3.87405E+01  1.155E-01  2.000E+01  2.000E+04 -8.333E-02
   1   13   23     2     8    5.0575E+04 -2.6637E+02   5.0842E+04  0.000E+00  0.000E+00  0.000E+00  3.84918E+01  1.168E-01  2.000E+01  2.000E+04 -1.332E-02
   1   14   22     2     9    5.0842E+04  1.7431E+03   4.9099E+04  0.000E+00  0.000E+00  0.000E+00  3.82408E+01  1.158E-01  2.000E+01  2.000E+04  8.715E-02
   1   14   22     3     1    1.8194E+05 -8.4766E+03   1.9042E+05  0.000E+00  0.000E+00  0.000E+00  3.77298E+01  1.743E-01  2.000E+01  2.000E+04 -4.238E-01
   1   15   23     3     2    1.9042E+05 -3.3355E+02   1.9075E+05  0.000E+00  0.000E+00  0.000E+00  3.68434E+01  1.767E-01  2.000E+01  2.000E+04 -1.668E-02
   1   15   24     3     3    1.9075E+05 -2.3070E+02   1.9099E+05  0.000E+00  0.000E+00  0.000E+00  3.59547E+01  1.769E-01  2.000E+01  2.000E+04 -1.153E-02
   1   15   25     3     4    1.9099E+05 -2.4064E+02   1.9123E+05  0.000E+00  0.000E+00  0.000E+00  3.50659E+01  1.770E-01  2.000E+01  2.000E+04 -1.203E-02
   1   15   26     3     5    1.9123E+05 -2.4337E+02   1.9147E+05  0.000E+00  0.000E+00  0.000E+00  3.41772E+01  1.772E-01  2.000E+01  2.000E+04 -1.217E-02
   1   16   27     3     6    1.9147E+05 -2.0865E+02   1.9168E+05  0.000E+00  0.000E+00  0.000E+00  3.32884E+01  1.773E-01  2.000E+01  2.000E+04 -1.043E-02
   1   17   28     3     7    1.9168E+05  1.0677E+02   1.9157E+05  0.000E+00  0.000E+00  0.000E+00  3.23995E+01  1.773E-01  2.000E+01  2.000E+04  5.338E-03
   1   18   29     3     8    1.9157E+05  3.2827E+03   1.8829E+05  0.000E+00  0.000E+00  0.000E+00  3.15097E+01  1.764E-01  2.000E+01  2.000E+04  1.641E-01
   1   18   30     3     9    1.8829E+05 -9.9252E+01   1.8839E+05  0.000E+00  0.000E+00  0.000E+00  3.06199E+01  1.755E-01  2.000E+01  2.000E+04 -4.963E-03



1
              HEAD IN LAYER   1 AT END OF TIME STEP   1 IN STRESS PERIOD    3
  ---------------------------------------------------------------------------

          1      2      3      4      5      6      7      8      9     10
         11     12     13     14     15     16     17     18     19     20
         21     22     23     24     25     26     27     28     29     30
 .........................................................................
   1  ****** ****** ****** ****** ****** ****** ****** ****** ****** ******
      ****** ****** ****** ****** ****** ****** ****** ****** ****** ******
      ****** ****** ****** ****** ****** ****** ****** ****** ****** ******
   2  ****** ****** ****** ****** ****** ****** ****** ****** ****** ******
      ****** ****** ****** ****** ****** ****** ****** ****** ****** ******
      ****** ****** ****** ****** ****** ****** ****** ****** ****** ******
   3  ****** ****** ****** ****** ****** ****** ****** ****** ****** ******
      ****** ****** ****** ****** ****** ****** ****** ****** ****** ******
      ****** ****** ****** ****** ****** ****** ****** ****** ****** ******
   4  ****** ****** ****** ****** ****** ****** ****** ****** ****** ******
      ****** ****** ****** ****** ****** ****** ****** ****** ****** ******
      ****** ****** ****** ****** ****** ****** ****** ****** ****** ******
   5  ****** ****** ****** ****** ****** ****** ****** ****** ****** ******
      ****** ****** ****** ****** ****** ****** ****** ****** ****** ******
      ****** ****** ****** ****** ****** ****** ****** ****** ****** ******
   6  ****** ****** ****** ****** ****** ****** ****** ****** ****** ******
      ****** ****** ****** ****** ****** ****** ****** ****** ****** ******
      ****** ****** ****** ****** ****** ****** ****** ****** ****** ******
   7  ****** ****** ****** ****** ****** ****** ****** ****** ****** ******
      ****** ****** ****** ****** ****** ****** ****** ****** ****** ******
      ****** ****** ****** ****** ****** ****** ****** ****** ****** ******
   8  ****** ****** ****** ****** ****** ****** ****** ****** ****** ******
      ****** ****** ****** ****** ****** ****** ****** ****** ****** ******
      ****** ****** ****** ****** ****** ****** ****** ****** ****** ******
   9  ****** ****** ****** ****** ****** ****** ****** ****** ****** ******
      ****** ****** ****** ****** ****** ****** ****** ****** ****** ******
      ****** ****** ****** ****** ****** ****** ****** ****** ****** ******
  10  ****** ****** ****** ****** ****** ****** ****** ****** ****** ******
      ****** ****** ****** ****** ****** ****** ****** ****** ****** ******
      ****** ****** ****** ****** ****** ****** ****** ****** ****** ******
  11  ****** ****** ****** ****** ****** ****** ****** ****** ****** ******
      ****** ****** ****** ****** ****** ****** ****** ****** ****** ******
      ****** ****** ****** ****** ****** ****** ****** ****** ****** ******
  12  ****** ****** ****** ****** ****** ****** ****** ****** ****** ******
      ****** ****** ****** ****** ****** ****** ****** ****** ****** ******
      ****** ****** ****** ****** ****** ****** ****** ****** ****** ******
  13  ****** ****** ****** ****** ****** ****** ****** ****** ****** ******
      ****** ****** ****** ****** ****** ****** ****** ****** ****** ******
      ****** ****** ****** ****** ****** ****** ****** ****** ****** ******
  14  ****** ****** ****** ****** ****** ****** ****** ****** ****** ******
      ****** ****** ****** ****** ****** ****** ****** ****** ****** ******
      ****** ****** ****** ****** ****** ****** ****** ****** ****** ******
  15  ****** ****** ****** ****** ****** ****** ****** ****** ****** ******
      ****** ****** ****** ****** ****** ****** ****** ****** ****** ******
      ****** ****** ****** ****** ****** ****** ****** ****** ****** ******
  16  ****** ****** ****** ****** ****** ****** ****** ****** ****** ******
      ****** ****** ****** ****** ****** ****** ****** ****** ****** ******
      ****** ****** ****** ****** ****** ****** ****** ****** ****** ******
  17  ****** ****** ****** ****** ****** ****** ****** ****** ****** ******
      ****** ****** ****** ****** ****** ****** ****** ****** ****** ******
      ****** ****** ****** ****** ****** ****** ****** ****** ****** ******
  18  ****** ****** ****** ****** ****** ****** ****** ****** ****** ******
      ****** ****** ****** ****** ****** ****** ****** ****** ****** ******
      ****** ****** ****** ****** ****** ****** ****** ****** ****** ******
  19  ****** ****** ****** ****** ****** ****** ****** ****** ****** ******
      ****** ****** ****** ****** ****** ****** ****** ****** ****** ******
      ****** ****** ****** ****** ****** ****** ****** ****** ****** ******
  20  ****** ****** ****** ****** ****** ****** ****** ****** ****** ******
      ****** ****** ****** ****** ****** ****** ****** ****** ****** ******
      ****** ****** ****** ****** ****** ****** ****** ****** ****** ******
  21  ****** ****** ****** ****** ****** ****** ****** ****** ****** ******
      ****** ****** ****** ****** ****** ****** ****** ****** ****** ******
      ****** ****** ****** ****** ****** ****** ****** ****** ****** ******
  22  ****** ****** ****** ****** ****** ****** ****** ****** ****** ******
      ****** ****** ****** ****** ****** ****** ****** ****** ****** ******
      ****** ****** ****** ****** ****** ****** ****** ****** ****** ******
  23  ****** ****** ****** ****** ****** ****** ****** ****** ****** ******
      ****** ****** ****** ****** ****** ****** ****** ****** ****** ******
      ****** ****** ****** ****** ****** ****** ****** ****** ****** ******
  24  ****** ****** ****** ****** ****** ****** ****** ****** ****** ******
      ****** ****** ****** ****** ****** ****** ****** ****** ****** ******
      ****** ****** ****** ****** ****** ****** ****** ****** ****** ******
  25  ****** ****** ****** ****** ****** ****** ****** ****** ****** ******
      ****** ****** ****** ****** ****** ****** ****** ****** ****** ******
      ****** ****** ****** ****** ****** ****** ****** ****** ****** ******

 HEAD WILL BE SAVED ON UNIT   51 AT END OF TIME STEP    1, STRESS PERIOD    3
1
  VOLUMETRIC BUDGET FOR ENTIRE MODEL AT END OF TIME STEP    1, STRESS PERIOD   3
  ------------------------------------------------------------------------------

     CUMULATIVE VOLUMES      L**3       RATES FOR THIS TIME STEP      L**3/T
     ------------------                 ------------------------

           IN:                                      IN:
           ---                                      ---
             STORAGE =    29015030.4387               STORAGE =       58296.9917
       CONSTANT HEAD =     5375725.1628         CONSTANT HEAD =       27386.7963
               WELLS =           0.0000                 WELLS =           0.0000
            RECHARGE =     6292800.0000              RECHARGE =           0.0000
      STREAM LEAKAGE =     2777633.4213        STREAM LEAKAGE =       16035.4870

            TOTAL IN =    43461189.0228              TOTAL IN =      101719.2750

          OUT:                                     OUT:
          ----                                     ----
             STORAGE =           0.0000               STORAGE =           0.0000
       CONSTANT HEAD =           0.0000         CONSTANT HEAD =           0.0000
               WELLS =    12959029.8128                 WELLS =       47295.7292
            RECHARGE =           0.0000              RECHARGE =           0.0000
      STREAM LEAKAGE =    30502161.1605        STREAM LEAKAGE =       54423.5534

           TOTAL OUT =    43461190.9733             TOTAL OUT =      101719.2827

            IN - OUT =          -1.9505              IN - OUT =      -7.6382E-03

 PERCENT DISCREPANCY =          -0.00     PERCENT DISCREPANCY =          -0.00






         TIME SUMMARY AT END OF TIME STEP    1 IN STRESS PERIOD    3
                    SECONDS     MINUTES      HOURS       DAYS        YEARS
                    -----------------------------------------------------------
   TIME STEP LENGTH 7.86240E+06 1.31040E+05  2184.0      91.000     0.24914    
 STRESS PERIOD TIME 7.86240E+06 1.31040E+05  2184.0      91.000     0.24914    
         TOTAL TIME 2.36736E+07 3.94560E+05  6576.0      274.00     0.75017    
1
1
                            STRESS PERIOD NO.    4, LENGTH =   91.00000    
                            -----------------------------------------------

                              NUMBER OF TIME STEPS =     1

                               MULTIPLIER FOR DELT =     1.500

                            INITIAL TIME STEP SIZE =   91.00000    

 WELL NO.  LAYER   ROW   COL   STRESS RATE         
 --------------------------------------------------
      1      1     19     29     -0.1179E+05
      2      1     10     29     -0.1333E+05
      3      1     20     21     -0.1335E+05
      4      1      8     12      -8823.    

      4 WELLS

                 RECHARGE =  1.000000E-03

 REUSING STREAM SEGMENT DATA FROM LAST STRESS PERIOD
 
 SOLVING FOR HEAD 


     6 CALLS TO PCG ROUTINE FOR TIME STEP   1 IN STRESS PERIOD    4
    23 TOTAL ITERATIONS

 OUTPUT CONTROL FOR STRESS PERIOD    4   TIME STEP    1
    SAVE BUDGET
    SAVE HEAD FOR ALL LAYERS
    PRINT HEAD FOR ALL LAYERS
 UBDSV2 SAVING "STREAMFLOW OUT  " ON UNIT  50 AT TIME STEP  1, STRESS PERIOD   4



 STREAM LISTING     PERIOD      4   STEP        1

 LAYER ROW COL. STREAM  RCH.  FLOW INTO     FLOW TO   FLOW OUT OF   OVRLND.     DIRECT     STREAM       STREAM     STREAM     STREAM   STREAMBED  STREAMBED
                SEG.NO.  NO.  STRM. RCH.    AQUIFER    STRM. RCH.    RUNOFF     PRECIP       ET          HEAD       DEPTH      WIDTH   CONDCTNC.   GRADIENT

   1   13    1     1     1    1.0000E+05 -2.3570E+03   1.0236E+05  0.000E+00  0.000E+00  0.000E+00  4.84070E+01  1.457E-01  2.000E+01  2.000E+04 -1.178E-01
   1   13    2     1     2    1.0236E+05 -3.4140E+03   1.0577E+05  0.000E+00  0.000E+00  0.000E+00  4.79322E+01  1.482E-01  2.000E+01  2.000E+04 -1.707E-01
   1   14    3     1     3    1.0577E+05 -6.0972E+02   1.0638E+05  0.000E+00  0.000E+00  0.000E+00  4.74567E+01  1.499E-01  2.000E+01  2.000E+04 -3.049E-02
   1   15    4     1     4    1.0638E+05 -5.8520E+02   1.0697E+05  0.000E+00  0.000E+00  0.000E+00  4.69799E+01  1.504E-01  2.000E+01  2.000E+04 -2.926E-02
   1   16    5     1     5    1.0697E+05 -2.0893E+03   1.0906E+05  0.000E+00  0.000E+00  0.000E+00  4.65038E+01  1.515E-01  2.000E+01  2.000E+04 -1.045E-01
   1   16    6     1     6    1.0906E+05 -1.2991E+03   1.1035E+05  0.000E+00  0.000E+00  0.000E+00  4.60279E+01  1.529E-01  2.000E+01  2.000E+04 -6.496E-02
   1   16    7     1     7    1.1035E+05 -1.2588E+03   1.1161E+05  0.000E+00  0.000E+00  0.000E+00  4.55517E+01  1.540E-01  2.000E+01  2.000E+04 -6.294E-02
   1   16    8     1     8    1.1161E+05 -1.2294E+03   1.1284E+05  0.000E+00  0.000E+00  0.000E+00  4.50755E+01  1.550E-01  2.000E+01  2.000E+04 -6.147E-02
   1   16    9     1     9    1.1284E+05 -1.1846E+03   1.1403E+05  0.000E+00  0.000E+00  0.000E+00  4.45992E+01  1.560E-01  2.000E+01  2.000E+04 -5.923E-02
   1   16   10     1    10    1.1403E+05 -1.1197E+03   1.1515E+05  0.000E+00  0.000E+00  0.000E+00  4.41229E+01  1.570E-01  2.000E+01  2.000E+04 -5.598E-02
   1   16   11     1    11    1.1515E+05 -1.0464E+03   1.1619E+05  0.000E+00  0.000E+00  0.000E+00  4.36465E+01  1.579E-01  2.000E+01  2.000E+04 -5.232E-02
   1   16   12     1    12    1.1619E+05 -1.5709E+03   1.1776E+05  0.000E+00  0.000E+00  0.000E+00  4.31703E+01  1.589E-01  2.000E+01  2.000E+04 -7.854E-02
   1   15   13     1    13    1.1776E+05 -1.3817E+03   1.1915E+05  0.000E+00  0.000E+00  0.000E+00  4.26942E+01  1.601E-01  2.000E+01  2.000E+04 -6.909E-02
   1   14   14     1    14    1.1915E+05 -1.5485E+03   1.2069E+05  0.000E+00  0.000E+00  0.000E+00  4.22181E+01  1.613E-01  2.000E+01  2.000E+04 -7.742E-02
   1   13   15     1    15    1.2069E+05 -1.8151E+03   1.2251E+05  0.000E+00  0.000E+00  0.000E+00  4.17422E+01  1.627E-01  2.000E+01  2.000E+04 -9.076E-02
   1   12   16     1    16    1.2251E+05 -2.5798E+03   1.2509E+05  0.000E+00  0.000E+00  0.000E+00  4.12667E+01  1.644E-01  2.000E+01  2.000E+04 -1.290E-01
   1   12   17     1    17    1.2509E+05 -1.7468E+03   1.2684E+05  0.000E+00  0.000E+00  0.000E+00  4.07911E+01  1.661E-01  2.000E+01  2.000E+04 -8.734E-02
   1   12   18     1    18    1.2684E+05 -1.7133E+03   1.2855E+05  0.000E+00  0.000E+00  0.000E+00  4.03152E+01  1.675E-01  2.000E+01  2.000E+04 -8.566E-02
   1   12   19     1    19    1.2855E+05 -2.4040E+03   1.3095E+05  0.000E+00  0.000E+00  0.000E+00  3.98396E+01  1.691E-01  2.000E+01  2.000E+04 -1.202E-01
   1   13   20     1    20    1.3095E+05 -1.4376E+03   1.3239E+05  0.000E+00  0.000E+00  0.000E+00  3.93638E+01  1.706E-01  2.000E+01  2.000E+04 -7.188E-02
   1   14   21     1    21    1.3239E+05 -5.5561E+02   1.3295E+05  0.000E+00  0.000E+00  0.000E+00  3.88873E+01  1.714E-01  2.000E+01  2.000E+04 -2.778E-02
   1   14   22     1    22    1.3295E+05  5.2233E+03   1.2772E+05  0.000E+00  0.000E+00  0.000E+00  3.84082E+01  1.696E-01  2.000E+01  2.000E+04  2.612E-01
   1    9   30     2     1    5.0000E+04  1.7413E+03   4.8259E+04  0.000E+00  0.000E+00  0.000E+00  4.02397E+01  1.147E-01  2.000E+01  2.000E+04  8.707E-02
   1    9   29     2     2    4.8259E+04  3.7636E+03   4.4495E+04  0.000E+00  0.000E+00  0.000E+00  3.99858E+01  1.108E-01  2.000E+01  2.000E+04  1.882E-01
   1    9   28     2     3    4.4495E+04  5.3454E+02   4.3961E+04  0.000E+00  0.000E+00  0.000E+00  3.97326E+01  1.076E-01  2.000E+01  2.000E+04  2.673E-02
   1    9   27     2     4    4.3961E+04 -2.0583E+03   4.6019E+04  0.000E+00  0.000E+00  0.000E+00  3.94838E+01  1.088E-01  2.000E+01  2.000E+04 -1.029E-01
   1   10   26     2     5    4.6019E+04 -8.7097E+02   4.6890E+04  0.000E+00  0.000E+00  0.000E+00  3.92359E+01  1.109E-01  2.000E+01  2.000E+04 -4.355E-02
   1   11   25     2     6    4.6890E+04 -1.1603E+03   4.8050E+04  0.000E+00  0.000E+00  0.000E+00  3.89873E+01  1.123E-01  2.000E+01  2.000E+04 -5.802E-02
   1   12   24     2     7    4.8050E+04 -1.5619E+03   4.9612E+04  0.000E+00  0.000E+00  0.000E+00  3.87392E+01  1.142E-01  2.000E+01  2.000E+04 -7.809E-02
   1   13   23     2     8    4.9612E+04 -2.9064E+02   4.9903E+04  0.000E+00  0.000E+00  0.000E+00  3.84905E+01  1.155E-01  2.000E+01  2.000E+04 -1.453E-02
   1   14   22     2     9    4.9903E+04  1.8479E+03   4.8055E+04  0.000E+00  0.000E+00  0.000E+00  3.82394E+01  1.144E-01  2.000E+01  2.000E+04  9.239E-02
   1   14   22     3     1    1.7578E+05 -8.4142E+03   1.8419E+05  0.000E+00  0.000E+00  0.000E+00  3.77263E+01  1.708E-01  2.000E+01  2.000E+04 -4.207E-01
   1   15   23     3     2    1.8419E+05 -2.8359E+02   1.8448E+05  0.000E+00  0.000E+00  0.000E+00  3.68399E+01  1.732E-01  2.000E+01  2.000E+04 -1.418E-02
   1   15   24     3     3    1.8448E+05 -2.1500E+02   1.8469E+05  0.000E+00  0.000E+00  0.000E+00  3.59512E+01  1.734E-01  2.000E+01  2.000E+04 -1.075E-02
   1   15   25     3     4    1.8469E+05 -2.2638E+02   1.8492E+05  0.000E+00  0.000E+00  0.000E+00  3.50624E+01  1.735E-01  2.000E+01  2.000E+04 -1.132E-02
   1   15   26     3     5    1.8492E+05 -2.4188E+02   1.8516E+05  0.000E+00  0.000E+00  0.000E+00  3.41736E+01  1.736E-01  2.000E+01  2.000E+04 -1.209E-02
   1   16   27     3     6    1.8516E+05 -1.9078E+02   1.8535E+05  0.000E+00  0.000E+00  0.000E+00  3.32849E+01  1.738E-01  2.000E+01  2.000E+04 -9.539E-03
   1   17   28     3     7    1.8535E+05  2.4409E+02   1.8511E+05  0.000E+00  0.000E+00  0.000E+00  3.23960E+01  1.737E-01  2.000E+01  2.000E+04  1.220E-02
   1   18   29     3     8    1.8511E+05  3.6493E+03   1.8146E+05  0.000E+00  0.000E+00  0.000E+00  3.15060E+01  1.727E-01  2.000E+01  2.000E+04  1.825E-01
   1   18   30     3     9    1.8146E+05  1.0250E+02   1.8135E+05  0.000E+00  0.000E+00  0.000E+00  3.06160E+01  1.716E-01  2.000E+01  2.000E+04  5.125E-03



1
              HEAD IN LAYER   1 AT END OF TIME STEP   1 IN STRESS PERIOD    4
  ---------------------------------------------------------------------------

          1      2      3      4      5      6      7      8      9     10
         11     12     13     14     15     16     17     18     19     20
         21     22     23     24     25     26     27     28     29     30
 .........................................................................
   1  ****** ****** ****** ****** ****** ****** ****** ****** ****** ******
      ****** ****** ****** ****** ****** ****** ****** ****** ****** ******
      ****** ****** ****** ****** ****** ****** ****** ****** ****** ******
   2  ****** ****** ****** ****** ****** ****** ****** ****** ****** ******
      ****** ****** ****** ****** ****** ****** ****** ****** ****** ******
      ****** ****** ****** ****** ****** ****** ****** ****** ****** ******
   3  ****** ****** ****** ****** ****** ****** ****** ****** ****** ******
      ****** ****** ****** ****** ****** ****** ****** ****** ****** ******
      ****** ****** ****** ****** ****** ****** ****** ****** ****** ******
   4  ****** ****** ****** ****** ****** ****** ****** ****** ****** ******
      ****** ****** ****** ****** ****** ****** ****** ****** ****** ******
      ****** ****** ****** ****** ****** ****** ****** ****** ****** ******
   5  ****** ****** ****** ****** ****** ****** ****** ****** ****** ******
      ****** ****** ****** ****** ****** ****** ****** ****** ****** ******
      ****** ****** ****** ****** ****** ****** ****** ****** ****** ******
   6  ****** ****** ****** ****** ****** ****** ****** ****** ****** ******
      ****** ****** ****** ****** ****** ****** ****** ****** ****** ******
      ****** ****** ****** ****** ****** ****** ****** ****** ****** ******
   7  ****** ****** ****** ****** ****** ****** ****** ****** ****** ******
      ****** ****** ****** ****** ****** ****** ****** ****** ****** ******
      ****** ****** ****** ****** ****** ****** ****** ****** ****** ******
   8  ****** ****** ****** ****** ****** ****** ****** ****** ****** ******
      ****** ****** ****** ****** ****** ****** ****** ****** ****** ******
      ****** ****** ****** ****** ****** ****** ****** ****** ****** ******
   9  ****** ****** ****** ****** ****** ****** ****** ****** ****** ******
      ****** ****** ****** ****** ****** ****** ****** ****** ****** ******
      ****** ****** ****** ****** ****** ****** ****** ****** ****** ******
  10  ****** ****** ****** ****** ****** ****** ****** ****** ****** ******
      ****** ****** ****** ****** ****** ****** ****** ****** ****** ******
      ****** ****** ****** ****** ****** ****** ****** ****** ****** ******
  11  ****** ****** ****** ****** ****** ****** ****** ****** ****** ******
      ****** ****** ****** ****** ****** ****** ****** ****** ****** ******
      ****** ****** ****** ****** ****** ****** ****** ****** ****** ******
  12  ****** ****** ****** ****** ****** ****** ****** ****** ****** ******
      ****** ****** ****** ****** ****** ****** ****** ****** ****** ******
      ****** ****** ****** ****** ****** ****** ****** ****** ****** ******
  13  ****** ****** ****** ****** ****** ****** ****** ****** ****** ******
      ****** ****** ****** ****** ****** ****** ****** ****** ****** ******
      ****** ****** ****** ****** ****** ****** ****** ****** ****** ******
  14  ****** ****** ****** ****** ****** ****** ****** ****** ****** ******
      ****** ****** ****** ****** ****** ****** ****** ****** ****** ******
      ****** ****** ****** ****** ****** ****** ****** ****** ****** ******
  15  ****** ****** ****** ****** ****** ****** ****** ****** ****** ******
      ****** ****** ****** ****** ****** ****** ****** ****** ****** ******
      ****** ****** ****** ****** ****** ****** ****** ****** ****** ******
  16  ****** ****** ****** ****** ****** ****** ****** ****** ****** ******
      ****** ****** ****** ****** ****** ****** ****** ****** ****** ******
      ****** ****** ****** ****** ****** ****** ****** ****** ****** ******
  17  ****** ****** ****** ****** ****** ****** ****** ****** ****** ******
      ****** ****** ****** ****** ****** ****** ****** ****** ****** ******
      ****** ****** ****** ****** ****** ****** ****** ****** ****** ******
  18  ****** ****** ****** ****** ****** ****** ****** ****** ****** ******
      ****** ****** ****** ****** ****** ****** ****** ****** ****** ******
      ****** ****** ****** ****** ****** ****** ****** ****** ****** ******
  19  ****** ****** ****** ****** ****** ****** ****** ****** ****** ******
      ****** ****** ****** ****** ****** ****** ****** ****** ****** ******
      ****** ****** ****** ****** ****** ****** ****** ****** ****** ******
  20  ****** ****** ****** ****** ****** ****** ****** ****** ****** ******
      ****** ****** ****** ****** ****** ****** ****** ****** ****** ******
      ****** ****** ****** ****** ****** ****** ****** ****** ****** ******
  21  ****** ****** ****** ****** ****** ****** ****** ****** ****** ******
      ****** ****** ****** ****** ****** ****** ****** ****** ****** ******
      ****** ****** ****** ****** ****** ****** ****** ****** ****** ******
  22  ****** ****** ****** ****** ****** ****** ****** ****** ****** ******
      ****** ****** ****** ****** ****** ****** ****** ****** ****** ******
      ****** ****** ****** ****** ****** ****** ****** ****** ****** ******
  23  ****** ****** ****** ****** ****** ****** ****** ****** ****** ******
      ****** ****** ****** ****** ****** ****** ****** ****** ****** ******
      ****** ****** ****** ****** ****** ****** ****** ****** ****** ******
  24  ****** ****** ****** ****** ****** ****** ****** ****** ****** ******
      ****** ****** ****** ****** ****** ****** ****** ****** ****** ******
      ****** ****** ****** ****** ****** ****** ****** ****** ****** ******
  25  ****** ****** ****** ****** ****** ****** ****** ****** ****** ******
      ****** ****** ****** ****** ****** ****** ****** ****** ****** ******
      ****** ****** ****** ****** ****** ****** ****** ****** ****** ******

 HEAD WILL BE SAVED ON UNIT   51 AT END OF TIME STEP    1, STRESS PERIOD    4
1
  VOLUMETRIC BUDGET FOR ENTIRE MODEL AT END OF TIME STEP    1, STRESS PERIOD   4
  ------------------------------------------------------------------------------

     CUMULATIVE VOLUMES      L**3       RATES FOR THIS TIME STEP      L**3/T
     ------------------                 ------------------------

           IN:                                      IN:
           ---                                      ---
             STORAGE =    30902249.2891               STORAGE =       20738.6687
       CONSTANT HEAD =     8134744.9210         CONSTANT HEAD =       30318.8984
               WELLS =           0.0000                 WELLS =           0.0000
            RECHARGE =     8804400.0000              RECHARGE =       27600.0000
      STREAM LEAKAGE =     4334328.0383        STREAM LEAKAGE =       17106.5343

            TOTAL IN =    52175722.2484              TOTAL IN =       95764.1014

          OUT:                                     OUT:
          ----                                     ----
             STORAGE =         721.3396               STORAGE =           7.9268
       CONSTANT HEAD =           0.0000         CONSTANT HEAD =           0.0000
               WELLS =    17262941.1740                 WELLS =       47295.7292
            RECHARGE =           0.0000              RECHARGE =           0.0000
      STREAM LEAKAGE =    34912061.7649        STREAM LEAKAGE =       48460.4462

           TOTAL OUT =    52175724.2785             TOTAL OUT =       95764.1023

            IN - OUT =          -2.0301              IN - OUT =      -8.7513E-04

 PERCENT DISCREPANCY =          -0.00     PERCENT DISCREPANCY =          -0.00






         TIME SUMMARY AT END OF TIME STEP    1 IN STRESS PERIOD    4
                    SECONDS     MINUTES      HOURS       DAYS        YEARS
                    -----------------------------------------------------------
   TIME STEP LENGTH 7.86240E+06 1.31040E+05  2184.0      91.000     0.24914    
 STRESS PERIOD TIME 7.86240E+06 1.31040E+05  2184.0      91.000     0.24914    
         TOTAL TIME 3.15360E+07 5.25600E+05  8760.0      365.00     0.99932    
1
1
                            STRESS PERIOD NO.    5, LENGTH =   92.00000    
                            -----------------------------------------------

                              NUMBER OF TIME STEPS =     1

                               MULTIPLIER FOR DELT =     1.500

                            INITIAL TIME STEP SIZE =   92.00000    

 WELL NO.  LAYER   ROW   COL   STRESS RATE         
 --------------------------------------------------
      1      1     19     29     -0.1179E+05
      2      1     10     29     -0.1333E+05
      3      1     20     21     -0.1335E+05
      4      1      8     12      -8823.    

      4 WELLS

                 RECHARGE =  5.000000E-04

 REUSING STREAM SEGMENT DATA FROM LAST STRESS PERIOD
 
 SOLVING FOR HEAD 


     7 CALLS TO PCG ROUTINE FOR TIME STEP   1 IN STRESS PERIOD    5
    26 TOTAL ITERATIONS

 OUTPUT CONTROL FOR STRESS PERIOD    5   TIME STEP    1
    SAVE BUDGET
    SAVE HEAD FOR ALL LAYERS
    PRINT HEAD FOR ALL LAYERS
 UBDSV2 SAVING "STREAMFLOW OUT  " ON UNIT  50 AT TIME STEP  1, STRESS PERIOD   5



 STREAM LISTING     PERIOD      5   STEP        1

 LAYER ROW COL. STREAM  RCH.  FLOW INTO     FLOW TO   FLOW OUT OF   OVRLND.     DIRECT     STREAM       STREAM     STREAM     STREAM   STREAMBED  STREAMBED
                SEG.NO.  NO.  STRM. RCH.    AQUIFER    STRM. RCH.    RUNOFF     PRECIP       ET          HEAD       DEPTH      WIDTH   CONDCTNC.   GRADIENT

   1   13    1     1     1    1.0000E+05 -1.9134E+03   1.0191E+05  0.000E+00  0.000E+00  0.000E+00  4.84068E+01  1.455E-01  2.000E+01  2.000E+04 -9.567E-02
   1   13    2     1     2    1.0191E+05 -2.9126E+03   1.0483E+05  0.000E+00  0.000E+00  0.000E+00  4.79316E+01  1.476E-01  2.000E+01  2.000E+04 -1.456E-01
   1   14    3     1     3    1.0483E+05 -4.8318E+02   1.0531E+05  0.000E+00  0.000E+00  0.000E+00  4.74558E+01  1.490E-01  2.000E+01  2.000E+04 -2.416E-02
   1   15    4     1     4    1.0531E+05 -4.5267E+02   1.0576E+05  0.000E+00  0.000E+00  0.000E+00  4.69789E+01  1.494E-01  2.000E+01  2.000E+04 -2.263E-02
   1   16    5     1     5    1.0576E+05 -1.6482E+03   1.0741E+05  0.000E+00  0.000E+00  0.000E+00  4.65026E+01  1.503E-01  2.000E+01  2.000E+04 -8.241E-02
   1   16    6     1     6    1.0741E+05 -1.0388E+03   1.0845E+05  0.000E+00  0.000E+00  0.000E+00  4.60264E+01  1.514E-01  2.000E+01  2.000E+04 -5.194E-02
   1   16    7     1     7    1.0845E+05 -1.0077E+03   1.0946E+05  0.000E+00  0.000E+00  0.000E+00  4.55500E+01  1.523E-01  2.000E+01  2.000E+04 -5.039E-02
   1   16    8     1     8    1.0946E+05 -9.8049E+02   1.1044E+05  0.000E+00  0.000E+00  0.000E+00  4.50736E+01  1.531E-01  2.000E+01  2.000E+04 -4.902E-02
   1   16    9     1     9    1.1044E+05 -9.3709E+02   1.1137E+05  0.000E+00  0.000E+00  0.000E+00  4.45971E+01  1.539E-01  2.000E+01  2.000E+04 -4.685E-02
   1   16   10     1    10    1.1137E+05 -8.7372E+02   1.1225E+05  0.000E+00  0.000E+00  0.000E+00  4.41206E+01  1.547E-01  2.000E+01  2.000E+04 -4.369E-02
   1   16   11     1    11    1.1225E+05 -7.9705E+02   1.1304E+05  0.000E+00  0.000E+00  0.000E+00  4.36440E+01  1.554E-01  2.000E+01  2.000E+04 -3.985E-02
   1   16   12     1    12    1.1304E+05 -1.1165E+03   1.1416E+05  0.000E+00  0.000E+00  0.000E+00  4.31675E+01  1.562E-01  2.000E+01  2.000E+04 -5.582E-02
   1   15   13     1    13    1.1416E+05 -9.0479E+02   1.1507E+05  0.000E+00  0.000E+00  0.000E+00  4.26911E+01  1.570E-01  2.000E+01  2.000E+04 -4.524E-02
   1   14   14     1    14    1.1507E+05 -1.0427E+03   1.1611E+05  0.000E+00  0.000E+00  0.000E+00  4.22146E+01  1.578E-01  2.000E+01  2.000E+04 -5.214E-02
   1   13   15     1    15    1.1611E+05 -1.2937E+03   1.1740E+05  0.000E+00  0.000E+00  0.000E+00  4.17383E+01  1.587E-01  2.000E+01  2.000E+04 -6.469E-02
   1   12   16     1    16    1.1740E+05 -2.0169E+03   1.1942E+05  0.000E+00  0.000E+00  0.000E+00  4.12624E+01  1.601E-01  2.000E+01  2.000E+04 -1.008E-01
   1   12   17     1    17    1.1942E+05 -1.3691E+03   1.2079E+05  0.000E+00  0.000E+00  0.000E+00  4.07865E+01  1.615E-01  2.000E+01  2.000E+04 -6.845E-02
   1   12   18     1    18    1.2079E+05 -1.3551E+03   1.2214E+05  0.000E+00  0.000E+00  0.000E+00  4.03103E+01  1.626E-01  2.000E+01  2.000E+04 -6.775E-02
   1   12   19     1    19    1.2214E+05 -1.9764E+03   1.2412E+05  0.000E+00  0.000E+00  0.000E+00  3.98343E+01  1.639E-01  2.000E+01  2.000E+04 -9.882E-02
   1   13   20     1    20    1.2412E+05 -1.0527E+03   1.2517E+05  0.000E+00  0.000E+00  0.000E+00  3.93583E+01  1.651E-01  2.000E+01  2.000E+04 -5.264E-02
   1   14   21     1    21    1.2517E+05 -1.2376E+02   1.2530E+05  0.000E+00  0.000E+00  0.000E+00  3.88815E+01  1.656E-01  2.000E+01  2.000E+04 -6.188E-03
   1   14   22     1    22    1.2530E+05  5.3135E+03   1.1998E+05  0.000E+00  0.000E+00  0.000E+00  3.84021E+01  1.635E-01  2.000E+01  2.000E+04  2.657E-01
   1    9   30     2     1    5.0000E+04  1.9729E+03   4.8027E+04  0.000E+00  0.000E+00  0.000E+00  4.02395E+01  1.145E-01  2.000E+01  2.000E+04  9.865E-02
   1    9   29     2     2    4.8027E+04  3.9988E+03   4.4028E+04  0.000E+00  0.000E+00  0.000E+00  3.99853E+01  1.103E-01  2.000E+01  2.000E+04  1.999E-01
   1    9   28     2     3    4.4028E+04  7.8174E+02   4.3247E+04  0.000E+00  0.000E+00  0.000E+00  3.97318E+01  1.068E-01  2.000E+01  2.000E+04  3.909E-02
   1    9   27     2     4    4.3247E+04 -1.6679E+03   4.4914E+04  0.000E+00  0.000E+00  0.000E+00  3.94824E+01  1.074E-01  2.000E+01  2.000E+04 -8.339E-02
   1   10   26     2     5    4.4914E+04 -5.2848E+02   4.5443E+04  0.000E+00  0.000E+00  0.000E+00  3.92340E+01  1.090E-01  2.000E+01  2.000E+04 -2.642E-02
   1   11   25     2     6    4.5443E+04 -8.4503E+02   4.6288E+04  0.000E+00  0.000E+00  0.000E+00  3.89850E+01  1.100E-01  2.000E+01  2.000E+04 -4.225E-02
   1   12   24     2     7    4.6288E+04 -1.2732E+03   4.7561E+04  0.000E+00  0.000E+00  0.000E+00  3.87365E+01  1.115E-01  2.000E+01  2.000E+04 -6.366E-02
   1   13   23     2     8    4.7561E+04 -2.2133E+02   4.7782E+04  0.000E+00  0.000E+00  0.000E+00  3.84876E+01  1.126E-01  2.000E+01  2.000E+04 -1.107E-02
   1   14   22     2     9    4.7782E+04  1.9975E+03   4.5785E+04  0.000E+00  0.000E+00  0.000E+00  3.82363E+01  1.113E-01  2.000E+01  2.000E+04  9.988E-02
   1   14   22     3     1    1.6577E+05 -8.3183E+03   1.7409E+05  0.000E+00  0.000E+00  0.000E+00  3.77205E+01  1.650E-01  2.000E+01  2.000E+04 -4.159E-01
   1   15   23     3     2    1.7409E+05 -1.7039E+02   1.7426E+05  0.000E+00  0.000E+00  0.000E+00  3.68341E+01  1.675E-01  2.000E+01  2.000E+04 -8.519E-03
   1   15   24     3     3    1.7426E+05 -1.3407E+02   1.7439E+05  0.000E+00  0.000E+00  0.000E+00  3.59453E+01  1.675E-01  2.000E+01  2.000E+04 -6.703E-03
   1   15   25     3     4    1.7439E+05 -1.4692E+02   1.7454E+05  0.000E+00  0.000E+00  0.000E+00  3.50565E+01  1.676E-01  2.000E+01  2.000E+04 -7.346E-03
   1   15   26     3     5    1.7454E+05 -1.6394E+02   1.7470E+05  0.000E+00  0.000E+00  0.000E+00  3.41677E+01  1.677E-01  2.000E+01  2.000E+04 -8.197E-03
   1   16   27     3     6    1.7470E+05 -8.9893E+01   1.7479E+05  0.000E+00  0.000E+00  0.000E+00  3.32789E+01  1.678E-01  2.000E+01  2.000E+04 -4.495E-03
   1   17   28     3     7    1.7479E+05  5.5088E+02   1.7424E+05  0.000E+00  0.000E+00  0.000E+00  3.23899E+01  1.676E-01  2.000E+01  2.000E+04  2.754E-02
   1   18   29     3     8    1.7424E+05  4.1045E+03   1.7014E+05  0.000E+00  0.000E+00  0.000E+00  3.14996E+01  1.663E-01  2.000E+01  2.000E+04  2.052E-01
   1   18   30     3     9    1.7014E+05  4.1015E+02   1.6973E+05  0.000E+00  0.000E+00  0.000E+00  3.06094E+01  1.650E-01  2.000E+01  2.000E+04  2.051E-02



1
              HEAD IN LAYER   1 AT END OF TIME STEP   1 IN STRESS PERIOD    5
  ---------------------------------------------------------------------------

          1      2      3      4      5      6      7      8      9     10
         11     12     13     14     15     16     17     18     19     20
         21     22     23     24     25     26     27     28     29     30
 .........................................................................
   1  ****** ****** ****** ****** ****** ****** ****** ****** ****** ******
      ****** ****** ****** ****** ****** ****** ****** ****** ****** ******
      ****** ****** ****** ****** ****** ****** ****** ****** ****** ******
   2  ****** ****** ****** ****** ****** ****** ****** ****** ****** ******
      ****** ****** ****** ****** ****** ****** ****** ****** ****** ******
      ****** ****** ****** ****** ****** ****** ****** ****** ****** ******
   3  ****** ****** ****** ****** ****** ****** ****** ****** ****** ******
      ****** ****** ****** ****** ****** ****** ****** ****** ****** ******
      ****** ****** ****** ****** ****** ****** ****** ****** ****** ******
   4  ****** ****** ****** ****** ****** ****** ****** ****** ****** ******
      ****** ****** ****** ****** ****** ****** ****** ****** ****** ******
      ****** ****** ****** ****** ****** ****** ****** ****** ****** ******
   5  ****** ****** ****** ****** ****** ****** ****** ****** ****** ******
      ****** ****** ****** ****** ****** ****** ****** ****** ****** ******
      ****** ****** ****** ****** ****** ****** ****** ****** ****** ******
   6  ****** ****** ****** ****** ****** ****** ****** ****** ****** ******
      ****** ****** ****** ****** ****** ****** ****** ****** ****** ******
      ****** ****** ****** ****** ****** ****** ****** ****** ****** ******
   7  ****** ****** ****** ****** ****** ****** ****** ****** ****** ******
      ****** ****** ****** ****** ****** ****** ****** ****** ****** ******
      ****** ****** ****** ****** ****** ****** ****** ****** ****** ******
   8  ****** ****** ****** ****** ****** ****** ****** ****** ****** ******
      ****** ****** ****** ****** ****** ****** ****** ****** ****** ******
      ****** ****** ****** ****** ****** ****** ****** ****** ****** ******
   9  ****** ****** ****** ****** ****** ****** ****** ****** ****** ******
      ****** ****** ****** ****** ****** ****** ****** ****** ****** ******
      ****** ****** ****** ****** ****** ****** ****** ****** ****** ******
  10  ****** ****** ****** ****** ****** ****** ****** ****** ****** ******
      ****** ****** ****** ****** ****** ****** ****** ****** ****** ******
      ****** ****** ****** ****** ****** ****** ****** ****** ****** ******
  11  ****** ****** ****** ****** ****** ****** ****** ****** ****** ******
      ****** ****** ****** ****** ****** ****** ****** ****** ****** ******
      ****** ****** ****** ****** ****** ****** ****** ****** ****** ******
  12  ****** ****** ****** ****** ****** ****** ****** ****** ****** ******
      ****** ****** ****** ****** ****** ****** ****** ****** ****** ******
      ****** ****** ****** ****** ****** ****** ****** ****** ****** ******
  13  ****** ****** ****** ****** ****** ****** ****** ****** ****** ******
      ****** ****** ****** ****** ****** ****** ****** ****** ****** ******
      ****** ****** ****** ****** ****** ****** ****** ****** ****** ******
  14  ****** ****** ****** ****** ****** ****** ****** ****** ****** ******
      ****** ****** ****** ****** ****** ****** ****** ****** ****** ******
      ****** ****** ****** ****** ****** ****** ****** ****** ****** ******
  15  ****** ****** ****** ****** ****** ****** ****** ****** ****** ******
      ****** ****** ****** ****** ****** ****** ****** ****** ****** ******
      ****** ****** ****** ****** ****** ****** ****** ****** ****** ******
  16  ****** ****** ****** ****** ****** ****** ****** ****** ****** ******
      ****** ****** ****** ****** ****** ****** ****** ****** ****** ******
      ****** ****** ****** ****** ****** ****** ****** ****** ****** ******
  17  ****** ****** ****** ****** ****** ****** ****** ****** ****** ******
      ****** ****** ****** ****** ****** ****** ****** ****** ****** ******
      ****** ****** ****** ****** ****** ****** ****** ****** ****** ******
  18  ****** ****** ****** ****** ****** ****** ****** ****** ****** ******
      ****** ****** ****** ****** ****** ****** ****** ****** ****** ******
      ****** ****** ****** ****** ****** ****** ****** ****** ****** ******
  19  ****** ****** ****** ****** ****** ****** ****** ****** ****** ******
      ****** ****** ****** ****** ****** ****** ****** ****** ****** ******
      ****** ****** ****** ****** ****** ****** ****** ****** ****** ******
  20  ****** ****** ****** ****** ****** ****** ****** ****** ****** ******
      ****** ****** ****** ****** ****** ****** ****** ****** ****** ******
      ****** ****** ****** ****** ****** ****** ****** ****** ****** ******
  21  ****** ****** ****** ****** ****** ****** ****** ****** ****** ******
      ****** ****** ****** ****** ****** ****** ****** ****** ****** ******
      ****** ****** ****** ****** ****** ****** ****** ****** ****** ******
  22  ****** ****** ****** ****** ****** ****** ****** ****** ****** ******
      ****** ****** ****** ****** ****** ****** ****** ****** ****** ******
      ****** ****** ****** ****** ****** ****** ****** ****** ****** ******
  23  ****** ****** ****** ****** ****** ****** ****** ****** ****** ******
      ****** ****** ****** ****** ****** ****** ****** ****** ****** ******
      ****** ****** ****** ****** ****** ****** ****** ****** ****** ******
  24  ****** ****** ****** ****** ****** ****** ****** ****** ****** ******
      ****** ****** ****** ****** ****** ****** ****** ****** ****** ******
      ****** ****** ****** ****** ****** ****** ****** ****** ****** ******
  25  ****** ****** ****** ****** ****** ****** ****** ****** ****** ******
      ****** ****** ****** ****** ****** ****** ****** ****** ****** ******
      ****** ****** ****** ****** ****** ****** ****** ****** ****** ******

 HEAD WILL BE SAVED ON UNIT   51 AT END OF TIME STEP    1, STRESS PERIOD    5
1
  VOLUMETRIC BUDGET FOR ENTIRE MODEL AT END OF TIME STEP    1, STRESS PERIOD   5
  ------------------------------------------------------------------------------

     CUMULATIVE VOLUMES      L**3       RATES FOR THIS TIME STEP      L**3/T
     ------------------                 ------------------------

           IN:                                      IN:
           ---                                      ---
             STORAGE =    32720434.5128               STORAGE =       19762.8829
       CONSTANT HEAD =    11212941.8264         CONSTANT HEAD =       33458.6620
               WELLS =           0.0000                 WELLS =           0.0000
            RECHARGE =    10074000.0000              RECHARGE =       13800.0000
      STREAM LEAKAGE =     6094288.9243        STREAM LEAKAGE =       19130.0096

            TOTAL IN =    60101665.2635              TOTAL IN =       86151.5545

          OUT:                                     OUT:
          ----                                     ----
             STORAGE =         721.3396               STORAGE =           0.0000
       CONSTANT HEAD =           0.0000         CONSTANT HEAD =           0.0000
               WELLS =    21614148.2645                 WELLS =       47295.7292
            RECHARGE =           0.0000              RECHARGE =           0.0000
      STREAM LEAKAGE =    38486797.9895        STREAM LEAKAGE =       38855.8285

           TOTAL OUT =    60101667.5935             TOTAL OUT =       86151.5578

            IN - OUT =          -2.3300              IN - OUT =      -3.2600E-03

 PERCENT DISCREPANCY =          -0.00     PERCENT DISCREPANCY =          -0.00






         TIME SUMMARY AT END OF TIME STEP    1 IN STRESS PERIOD    5
                    SECONDS     MINUTES      HOURS       DAYS        YEARS
                    -----------------------------------------------------------
   TIME STEP LENGTH 7.94880E+06 1.32480E+05  2208.0      92.000     0.25188    
 STRESS PERIOD TIME 7.94880E+06 1.32480E+05  2208.0      92.000     0.25188    
         TOTAL TIME 3.94848E+07 6.58080E+05  10968.      457.00      1.2512    
1
1
                            STRESS PERIOD NO.    6, LENGTH =   91.00000    
                            -----------------------------------------------

                              NUMBER OF TIME STEPS =     1

                               MULTIPLIER FOR DELT =     1.500

                            INITIAL TIME STEP SIZE =   91.00000    

 WELL NO.  LAYER   ROW   COL   STRESS RATE         
 --------------------------------------------------
      1      1     19     29     -0.1179E+05
      2      1     10     29     -0.1333E+05
      3      1     20     21     -0.1335E+05
      4      1      8     12      -8823.    

      4 WELLS

                 RECHARGE =  2.000000E-03

 REUSING STREAM SEGMENT DATA FROM LAST STRESS PERIOD
 
 SOLVING FOR HEAD 


     7 CALLS TO PCG ROUTINE FOR TIME STEP   1 IN STRESS PERIOD    6
    26 TOTAL ITERATIONS

 OUTPUT CONTROL FOR STRESS PERIOD    6   TIME STEP    1
    SAVE BUDGET
    SAVE HEAD FOR ALL LAYERS
    PRINT HEAD FOR ALL LAYERS
 UBDSV2 SAVING "STREAMFLOW OUT  " ON UNIT  50 AT TIME STEP  1, STRESS PERIOD   6



 STREAM LISTING     PERIOD      6   STEP        1

 LAYER ROW COL. STREAM  RCH.  FLOW INTO     FLOW TO   FLOW OUT OF   OVRLND.     DIRECT     STREAM       STREAM     STREAM     STREAM   STREAMBED  STREAMBED
                SEG.NO.  NO.  STRM. RCH.    AQUIFER    STRM. RCH.    RUNOFF     PRECIP       ET          HEAD       DEPTH      WIDTH   CONDCTNC.   GRADIENT

   1   13    1     1     1    1.0000E+05 -2.2075E+03   1.0221E+05  0.000E+00  0.000E+00  0.000E+00  4.84070E+01  1.456E-01  2.000E+01  2.000E+04 -1.104E-01
   1   13    2     1     2    1.0221E+05 -3.2336E+03   1.0544E+05  0.000E+00  0.000E+00  0.000E+00  4.79320E+01  1.479E-01  2.000E+01  2.000E+04 -1.617E-01
   1   14    3     1     3    1.0544E+05 -6.3469E+02   1.0608E+05  0.000E+00  0.000E+00  0.000E+00  4.74564E+01  1.496E-01  2.000E+01  2.000E+04 -3.173E-02
   1   15    4     1     4    1.0608E+05 -6.1606E+02   1.0669E+05  0.000E+00  0.000E+00  0.000E+00  4.69797E+01  1.501E-01  2.000E+01  2.000E+04 -3.080E-02
   1   16    5     1     5    1.0669E+05 -2.1375E+03   1.0883E+05  0.000E+00  0.000E+00  0.000E+00  4.65036E+01  1.513E-01  2.000E+01  2.000E+04 -1.069E-01
   1   16    6     1     6    1.0883E+05 -1.3244E+03   1.1015E+05  0.000E+00  0.000E+00  0.000E+00  4.60277E+01  1.527E-01  2.000E+01  2.000E+04 -6.622E-02
   1   16    7     1     7    1.1015E+05 -1.2774E+03   1.1143E+05  0.000E+00  0.000E+00  0.000E+00  4.55516E+01  1.538E-01  2.000E+01  2.000E+04 -6.387E-02
   1   16    8     1     8    1.1143E+05 -1.2449E+03   1.1268E+05  0.000E+00  0.000E+00  0.000E+00  4.50753E+01  1.549E-01  2.000E+01  2.000E+04 -6.224E-02
   1   16    9     1     9    1.1268E+05 -1.2003E+03   1.1388E+05  0.000E+00  0.000E+00  0.000E+00  4.45991E+01  1.559E-01  2.000E+01  2.000E+04 -6.002E-02
   1   16   10     1    10    1.1388E+05 -1.1377E+03   1.1501E+05  0.000E+00  0.000E+00  0.000E+00  4.41228E+01  1.568E-01  2.000E+01  2.000E+04 -5.689E-02
   1   16   11     1    11    1.1501E+05 -1.0630E+03   1.1608E+05  0.000E+00  0.000E+00  0.000E+00  4.36464E+01  1.578E-01  2.000E+01  2.000E+04 -5.315E-02
   1   16   12     1    12    1.1608E+05 -1.5401E+03   1.1762E+05  0.000E+00  0.000E+00  0.000E+00  4.31702E+01  1.588E-01  2.000E+01  2.000E+04 -7.701E-02
   1   15   13     1    13    1.1762E+05 -1.3375E+03   1.1895E+05  0.000E+00  0.000E+00  0.000E+00  4.26941E+01  1.600E-01  2.000E+01  2.000E+04 -6.688E-02
   1   14   14     1    14    1.1895E+05 -1.4695E+03   1.2042E+05  0.000E+00  0.000E+00  0.000E+00  4.22179E+01  1.611E-01  2.000E+01  2.000E+04 -7.348E-02
   1   13   15     1    15    1.2042E+05 -1.7016E+03   1.2213E+05  0.000E+00  0.000E+00  0.000E+00  4.17419E+01  1.624E-01  2.000E+01  2.000E+04 -8.508E-02
   1   12   16     1    16    1.2213E+05 -2.3803E+03   1.2451E+05  0.000E+00  0.000E+00  0.000E+00  4.12663E+01  1.640E-01  2.000E+01  2.000E+04 -1.190E-01
   1   12   17     1    17    1.2451E+05 -1.6690E+03   1.2618E+05  0.000E+00  0.000E+00  0.000E+00  4.07906E+01  1.656E-01  2.000E+01  2.000E+04 -8.345E-02
   1   12   18     1    18    1.2618E+05 -1.6602E+03   1.2784E+05  0.000E+00  0.000E+00  0.000E+00  4.03147E+01  1.670E-01  2.000E+01  2.000E+04 -8.301E-02
   1   12   19     1    19    1.2784E+05 -2.3593E+03   1.3019E+05  0.000E+00  0.000E+00  0.000E+00  3.98390E+01  1.685E-01  2.000E+01  2.000E+04 -1.180E-01
   1   13   20     1    20    1.3019E+05 -1.4588E+03   1.3165E+05  0.000E+00  0.000E+00  0.000E+00  3.93632E+01  1.700E-01  2.000E+01  2.000E+04 -7.294E-02
   1   14   21     1    21    1.3165E+05 -5.0780E+02   1.3216E+05  0.000E+00  0.000E+00  0.000E+00  3.88867E+01  1.708E-01  2.000E+01  2.000E+04 -2.539E-02
   1   14   22     1    22    1.3216E+05  5.2087E+03   1.2695E+05  0.000E+00  0.000E+00  0.000E+00  3.84076E+01  1.690E-01  2.000E+01  2.000E+04  2.604E-01
   1    9   30     2     1    5.0000E+04  1.6092E+03   4.8391E+04  0.000E+00  0.000E+00  0.000E+00  4.02397E+01  1.147E-01  2.000E+01  2.000E+04  8.046E-02
   1    9   29     2     2    4.8391E+04  3.6396E+03   4.4751E+04  0.000E+00  0.000E+00  0.000E+00  3.99860E+01  1.110E-01  2.000E+01  2.000E+04  1.820E-01
   1    9   28     2     3    4.4751E+04  4.2948E+02   4.4322E+04  0.000E+00  0.000E+00  0.000E+00  3.97331E+01  1.081E-01  2.000E+01  2.000E+04  2.147E-02
   1    9   27     2     4    4.4322E+04 -2.1123E+03   4.6434E+04  0.000E+00  0.000E+00  0.000E+00  3.94843E+01  1.093E-01  2.000E+01  2.000E+04 -1.056E-01
   1   10   26     2     5    4.6434E+04 -9.9645E+02   4.7430E+04  0.000E+00  0.000E+00  0.000E+00  3.92365E+01  1.115E-01  2.000E+01  2.000E+04 -4.982E-02
   1   11   25     2     6    4.7430E+04 -1.2980E+03   4.8728E+04  0.000E+00  0.000E+00  0.000E+00  3.89882E+01  1.132E-01  2.000E+01  2.000E+04 -6.490E-02
   1   12   24     2     7    4.8728E+04 -1.6810E+03   5.0409E+04  0.000E+00  0.000E+00  0.000E+00  3.87403E+01  1.153E-01  2.000E+01  2.000E+04 -8.405E-02
   1   13   23     2     8    5.0409E+04 -3.5873E+02   5.0768E+04  0.000E+00  0.000E+00  0.000E+00  3.84917E+01  1.167E-01  2.000E+01  2.000E+04 -1.794E-02
   1   14   22     2     9    5.0768E+04  1.8693E+03   4.8899E+04  0.000E+00  0.000E+00  0.000E+00  3.82406E+01  1.156E-01  2.000E+01  2.000E+04  9.347E-02
   1   14   22     3     1    1.7585E+05 -8.4158E+03   1.8427E+05  0.000E+00  0.000E+00  0.000E+00  3.77264E+01  1.708E-01  2.000E+01  2.000E+04 -4.208E-01
   1   15   23     3     2    1.8427E+05 -3.0023E+02   1.8457E+05  0.000E+00  0.000E+00  0.000E+00  3.68400E+01  1.733E-01  2.000E+01  2.000E+04 -1.501E-02
   1   15   24     3     3    1.8457E+05 -2.5147E+02   1.8482E+05  0.000E+00  0.000E+00  0.000E+00  3.59512E+01  1.734E-01  2.000E+01  2.000E+04 -1.257E-02
   1   15   25     3     4    1.8482E+05 -2.6921E+02   1.8509E+05  0.000E+00  0.000E+00  0.000E+00  3.50625E+01  1.736E-01  2.000E+01  2.000E+04 -1.346E-02
   1   15   26     3     5    1.8509E+05 -3.1249E+02   1.8540E+05  0.000E+00  0.000E+00  0.000E+00  3.41738E+01  1.738E-01  2.000E+01  2.000E+04 -1.562E-02
   1   16   27     3     6    1.8540E+05 -2.5350E+02   1.8565E+05  0.000E+00  0.000E+00  0.000E+00  3.32850E+01  1.739E-01  2.000E+01  2.000E+04 -1.267E-02
   1   17   28     3     7    1.8565E+05  1.0632E+02   1.8555E+05  0.000E+00  0.000E+00  0.000E+00  3.23962E+01  1.740E-01  2.000E+01  2.000E+04  5.316E-03
   1   18   29     3     8    1.8555E+05  3.7034E+03   1.8184E+05  0.000E+00  0.000E+00  0.000E+00  3.15062E+01  1.729E-01  2.000E+01  2.000E+04  1.852E-01
   1   18   30     3     9    1.8184E+05  7.7565E+01   1.8177E+05  0.000E+00  0.000E+00  0.000E+00  3.06163E+01  1.718E-01  2.000E+01  2.000E+04  3.878E-03



1
              HEAD IN LAYER   1 AT END OF TIME STEP   1 IN STRESS PERIOD    6
  ---------------------------------------------------------------------------

          1      2      3      4      5      6      7      8      9     10
         11     12     13     14     15     16     17     18     19     20
         21     22     23     24     25     26     27     28     29     30
 .........................................................................
   1  ****** ****** ****** ****** ****** ****** ****** ****** ****** ******
      ****** ****** ****** ****** ****** ****** ****** ****** ****** ******
      ****** ****** ****** ****** ****** ****** ****** ****** ****** ******
   2  ****** ****** ****** ****** ****** ****** ****** ****** ****** ******
      ****** ****** ****** ****** ****** ****** ****** ****** ****** ******
      ****** ****** ****** ****** ****** ****** ****** ****** ****** ******
   3  ****** ****** ****** ****** ****** ****** ****** ****** ****** ******
      ****** ****** ****** ****** ****** ****** ****** ****** ****** ******
      ****** ****** ****** ****** ****** ****** ****** ****** ****** ******
   4  ****** ****** ****** ****** ****** ****** ****** ****** ****** ******
      ****** ****** ****** ****** ****** ****** ****** ****** ****** ******
      ****** ****** ****** ****** ****** ****** ****** ****** ****** ******
   5  ****** ****** ****** ****** ****** ****** ****** ****** ****** ******
      ****** ****** ****** ****** ****** ****** ****** ****** ****** ******
      ****** ****** ****** ****** ****** ****** ****** ****** ****** ******
   6  ****** ****** ****** ****** ****** ****** ****** ****** ****** ******
      ****** ****** ****** ****** ****** ****** ****** ****** ****** ******
      ****** ****** ****** ****** ****** ****** ****** ****** ****** ******
   7  ****** ****** ****** ****** ****** ****** ****** ****** ****** ******
      ****** ****** ****** ****** ****** ****** ****** ****** ****** ******
      ****** ****** ****** ****** ****** ****** ****** ****** ****** ******
   8  ****** ****** ****** ****** ****** ****** ****** ****** ****** ******
      ****** ****** ****** ****** ****** ****** ****** ****** ****** ******
      ****** ****** ****** ****** ****** ****** ****** ****** ****** ******
   9  ****** ****** ****** ****** ****** ****** ****** ****** ****** ******
      ****** ****** ****** ****** ****** ****** ****** ****** ****** ******
      ****** ****** ****** ****** ****** ****** ****** ****** ****** ******
  10  ****** ****** ****** ****** ****** ****** ****** ****** ****** ******
      ****** ****** ****** ****** ****** ****** ****** ****** ****** ******
      ****** ****** ****** ****** ****** ****** ****** ****** ****** ******
  11  ****** ****** ****** ****** ****** ****** ****** ****** ****** ******
      ****** ****** ****** ****** ****** ****** ****** ****** ****** ******
      ****** ****** ****** ****** ****** ****** ****** ****** ****** ******
  12  ****** ****** ****** ****** ****** ****** ****** ****** ****** ******
      ****** ****** ****** ****** ****** ****** ****** ****** ****** ******
      ****** ****** ****** ****** ****** ****** ****** ****** ****** ******
  13  ****** ****** ****** ****** ****** ****** ****** ****** ****** ******
      ****** ****** ****** ****** ****** ****** ****** ****** ****** ******
      ****** ****** ****** ****** ****** ****** ****** ****** ****** ******
  14  ****** ****** ****** ****** ****** ****** ****** ****** ****** ******
      ****** ****** ****** ****** ****** ****** ****** ****** ****** ******
      ****** ****** ****** ****** ****** ****** ****** ****** ****** ******
  15  ****** ****** ****** ****** ****** ****** ****** ****** ****** ******
      ****** ****** ****** ****** ****** ****** ****** ****** ****** ******
      ****** ****** ****** ****** ****** ****** ****** ****** ****** ******
  16  ****** ****** ****** ****** ****** ****** ****** ****** ****** ******
      ****** ****** ****** ****** ****** ****** ****** ****** ****** ******
      ****** ****** ****** ****** ****** ****** ****** ****** ****** ******
  17  ****** ****** ****** ****** ****** ****** ****** ****** ****** ******
      ****** ****** ****** ****** ****** ****** ****** ****** ****** ******
      ****** ****** ****** ****** ****** ****** ****** ****** ****** ******
  18  ****** ****** ****** ****** ****** ****** ****** ****** ****** ******
      ****** ****** ****** ****** ****** ****** ****** ****** ****** ******
      ****** ****** ****** ****** ****** ****** ****** ****** ****** ******
  19  ****** ****** ****** ****** ****** ****** ****** ****** ****** ******
      ****** ****** ****** ****** ****** ****** ****** ****** ****** ******
      ****** ****** ****** ****** ****** ****** ****** ****** ****** ******
  20  ****** ****** ****** ****** ****** ****** ****** ****** ****** ******
      ****** ****** ****** ****** ****** ****** ****** ****** ****** ******
      ****** ****** ****** ****** ****** ****** ****** ****** ****** ******
  21  ****** ****** ****** ****** ****** ****** ****** ****** ****** ******
      ****** ****** ****** ****** ****** ****** ****** ****** ****** ******
      ****** ****** ****** ****** ****** ****** ****** ****** ****** ******
  22  ****** ****** ****** ****** ****** ****** ****** ****** ****** ******
      ****** ****** ****** ****** ****** ****** ****** ****** ****** ******
      ****** ****** ****** ****** ****** ****** ****** ****** ****** ******
  23  ****** ****** ****** ****** ****** ****** ****** ****** ****** ******
      ****** ****** ****** ****** ****** ****** ****** ****** ****** ******
      ****** ****** ****** ****** ****** ****** ****** ****** ****** ******
  24  ****** ****** ****** ****** ****** ****** ****** ****** ****** ******
      ****** ****** ****** ****** ****** ****** ****** ****** ****** ******
      ****** ****** ****** ****** ****** ****** ****** ****** ****** ******
  25  ****** ****** ****** ****** ****** ****** ****** ****** ****** ******
      ****** ****** ****** ****** ****** ****** ****** ****** ****** ******
      ****** ****** ****** ****** ****** ****** ****** ****** ****** ******

 HEAD WILL BE SAVED ON UNIT   51 AT END OF TIME STEP    1, STRESS PERIOD    6
1
  VOLUMETRIC BUDGET FOR ENTIRE MODEL AT END OF TIME STEP    1, STRESS PERIOD   6
  ------------------------------------------------------------------------------

     CUMULATIVE VOLUMES      L**3       RATES FOR THIS TIME STEP      L**3/T
     ------------------                 ------------------------

           IN:                                      IN:
           ---                                      ---
             STORAGE =    32721511.5319               STORAGE =          11.8354
       CONSTANT HEAD =    14096673.7856         CONSTANT HEAD =       31689.3622
               WELLS =           0.0000                 WELLS =           0.0000
            RECHARGE =    15097200.0000              RECHARGE =       55200.0000
      STREAM LEAKAGE =     7608854.8591        STREAM LEAKAGE =       16643.5817

            TOTAL IN =    69524240.1765              TOTAL IN =      103544.7793

          OUT:                                     OUT:
          ----                                     ----
             STORAGE =      714043.0054               STORAGE =        7838.6996
       CONSTANT HEAD =           0.0000         CONSTANT HEAD =           0.0000
               WELLS =    25918059.6257                 WELLS =       47295.7292
            RECHARGE =           0.0000              RECHARGE =           0.0000
      STREAM LEAKAGE =    42892139.6162        STREAM LEAKAGE =       48410.3475

           TOTAL OUT =    69524242.2472             TOTAL OUT =      103544.7764

            IN - OUT =          -2.0707              IN - OUT =       2.8500E-03

 PERCENT DISCREPANCY =          -0.00     PERCENT DISCREPANCY =           0.00






         TIME SUMMARY AT END OF TIME STEP    1 IN STRESS PERIOD    6
                    SECONDS     MINUTES      HOURS       DAYS        YEARS
                    -----------------------------------------------------------
   TIME STEP LENGTH 7.86240E+06 1.31040E+05  2184.0      91.000     0.24914    
 STRESS PERIOD TIME 7.86240E+06 1.31040E+05  2184.0      91.000     0.24914    
         TOTAL TIME 4.73472E+07 7.89120E+05  13152.      548.00      1.5003    
1
1
                            STRESS PERIOD NO.    7, LENGTH =   91.00000    
                            -----------------------------------------------

                              NUMBER OF TIME STEPS =     1

                               MULTIPLIER FOR DELT =     1.500

                            INITIAL TIME STEP SIZE =   91.00000    

 WELL NO.  LAYER   ROW   COL   STRESS RATE         
 --------------------------------------------------
      1      1     19     29     -0.1179E+05
      2      1     10     29     -0.1333E+05
      3      1     20     21     -0.1335E+05
      4      1      8     12      -8823.    

      4 WELLS

                 RECHARGE =   0.00000    

 REUSING STREAM SEGMENT DATA FROM LAST STRESS PERIOD
 
 SOLVING FOR HEAD 


     7 CALLS TO PCG ROUTINE FOR TIME STEP   1 IN STRESS PERIOD    7
    26 TOTAL ITERATIONS

 OUTPUT CONTROL FOR STRESS PERIOD    7   TIME STEP    1
    SAVE BUDGET
    SAVE HEAD FOR ALL LAYERS
    PRINT HEAD FOR ALL LAYERS
 UBDSV2 SAVING "STREAMFLOW OUT  " ON UNIT  50 AT TIME STEP  1, STRESS PERIOD   7



 STREAM LISTING     PERIOD      7   STEP        1

 LAYER ROW COL. STREAM  RCH.  FLOW INTO     FLOW TO   FLOW OUT OF   OVRLND.     DIRECT     STREAM       STREAM     STREAM     STREAM   STREAMBED  STREAMBED
                SEG.NO.  NO.  STRM. RCH.    AQUIFER    STRM. RCH.    RUNOFF     PRECIP       ET          HEAD       DEPTH      WIDTH   CONDCTNC.   GRADIENT

   1   13    1     1     1    1.0000E+05 -1.5269E+03   1.0153E+05  0.000E+00  0.000E+00  0.000E+00  4.84067E+01  1.453E-01  2.000E+01  2.000E+04 -7.635E-02
   1   13    2     1     2    1.0153E+05 -2.4716E+03   1.0400E+05  0.000E+00  0.000E+00  0.000E+00  4.79311E+01  1.470E-01  2.000E+01  2.000E+04 -1.236E-01
   1   14    3     1     3    1.0400E+05 -3.8019E+02   1.0438E+05  0.000E+00  0.000E+00  0.000E+00  4.74551E+01  1.483E-01  2.000E+01  2.000E+04 -1.901E-02
   1   15    4     1     4    1.0438E+05 -3.5112E+02   1.0473E+05  0.000E+00  0.000E+00  0.000E+00  4.69781E+01  1.486E-01  2.000E+01  2.000E+04 -1.756E-02
   1   16    5     1     5    1.0473E+05 -1.3794E+03   1.0611E+05  0.000E+00  0.000E+00  0.000E+00  4.65016E+01  1.493E-01  2.000E+01  2.000E+04 -6.897E-02
   1   16    6     1     6    1.0611E+05 -8.6612E+02   1.0698E+05  0.000E+00  0.000E+00  0.000E+00  4.60253E+01  1.503E-01  2.000E+01  2.000E+04 -4.331E-02
   1   16    7     1     7    1.0698E+05 -8.3711E+02   1.0781E+05  0.000E+00  0.000E+00  0.000E+00  4.55487E+01  1.510E-01  2.000E+01  2.000E+04 -4.186E-02
   1   16    8     1     8    1.0781E+05 -8.1018E+02   1.0862E+05  0.000E+00  0.000E+00  0.000E+00  4.50721E+01  1.517E-01  2.000E+01  2.000E+04 -4.051E-02
   1   16    9     1     9    1.0862E+05 -7.6842E+02   1.0939E+05  0.000E+00  0.000E+00  0.000E+00  4.45955E+01  1.523E-01  2.000E+01  2.000E+04 -3.842E-02
   1   16   10     1    10    1.0939E+05 -7.0798E+02   1.1010E+05  0.000E+00  0.000E+00  0.000E+00  4.41189E+01  1.530E-01  2.000E+01  2.000E+04 -3.540E-02
   1   16   11     1    11    1.1010E+05 -6.3143E+02   1.1073E+05  0.000E+00  0.000E+00  0.000E+00  4.36421E+01  1.535E-01  2.000E+01  2.000E+04 -3.157E-02
   1   16   12     1    12    1.1073E+05 -8.1182E+02   1.1154E+05  0.000E+00  0.000E+00  0.000E+00  4.31655E+01  1.541E-01  2.000E+01  2.000E+04 -4.059E-02
   1   15   13     1    13    1.1154E+05 -5.5646E+02   1.1210E+05  0.000E+00  0.000E+00  0.000E+00  4.26888E+01  1.547E-01  2.000E+01  2.000E+04 -2.782E-02
   1   14   14     1    14    1.1210E+05 -6.5990E+02   1.1276E+05  0.000E+00  0.000E+00  0.000E+00  4.22120E+01  1.552E-01  2.000E+01  2.000E+04 -3.300E-02
   1   13   15     1    15    1.1276E+05 -8.9011E+02   1.1365E+05  0.000E+00  0.000E+00  0.000E+00  4.17354E+01  1.558E-01  2.000E+01  2.000E+04 -4.451E-02
   1   12   16     1    16    1.1365E+05 -1.5756E+03   1.1522E+05  0.000E+00  0.000E+00  0.000E+00  4.12591E+01  1.568E-01  2.000E+01  2.000E+04 -7.878E-02
   1   12   17     1    17    1.1522E+05 -1.0849E+03   1.1631E+05  0.000E+00  0.000E+00  0.000E+00  4.07829E+01  1.579E-01  2.000E+01  2.000E+04 -5.425E-02
   1   12   18     1    18    1.1631E+05 -1.0910E+03   1.1740E+05  0.000E+00  0.000E+00  0.000E+00  4.03065E+01  1.588E-01  2.000E+01  2.000E+04 -5.455E-02
   1   12   19     1    19    1.1740E+05 -1.6658E+03   1.1907E+05  0.000E+00  0.000E+00  0.000E+00  3.98304E+01  1.599E-01  2.000E+01  2.000E+04 -8.329E-02
   1   13   20     1    20    1.1907E+05 -7.8074E+02   1.1985E+05  0.000E+00  0.000E+00  0.000E+00  3.93541E+01  1.609E-01  2.000E+01  2.000E+04 -3.904E-02
   1   14   21     1    21    1.1985E+05  1.6771E+02   1.1968E+05  0.000E+00  0.000E+00  0.000E+00  3.88771E+01  1.612E-01  2.000E+01  2.000E+04  8.386E-03
   1   14   22     1    22    1.1968E+05  5.3723E+03   1.1431E+05  0.000E+00  0.000E+00  0.000E+00  3.83976E+01  1.589E-01  2.000E+01  2.000E+04  2.686E-01
   1    9   30     2     1    5.0000E+04  2.1231E+03   4.7877E+04  0.000E+00  0.000E+00  0.000E+00  4.02394E+01  1.144E-01  2.000E+01  2.000E+04  1.062E-01
   1    9   29     2     2    4.7877E+04  4.1517E+03   4.3725E+04  0.000E+00  0.000E+00  0.000E+00  3.99849E+01  1.099E-01  2.000E+01  2.000E+04  2.076E-01
   1    9   28     2     3    4.3725E+04  9.4305E+02   4.2782E+04  0.000E+00  0.000E+00  0.000E+00  3.97312E+01  1.062E-01  2.000E+01  2.000E+04  4.715E-02
   1    9   27     2     4    4.2782E+04 -1.4138E+03   4.4196E+04  0.000E+00  0.000E+00  0.000E+00  3.94816E+01  1.066E-01  2.000E+01  2.000E+04 -7.069E-02
   1   10   26     2     5    4.4196E+04 -2.9599E+02   4.4492E+04  0.000E+00  0.000E+00  0.000E+00  3.92328E+01  1.078E-01  2.000E+01  2.000E+04 -1.480E-02
   1   11   25     2     6    4.4492E+04 -6.2609E+02   4.5118E+04  0.000E+00  0.000E+00  0.000E+00  3.89835E+01  1.085E-01  2.000E+01  2.000E+04 -3.130E-02
   1   12   24     2     7    4.5118E+04 -1.0681E+03   4.6186E+04  0.000E+00  0.000E+00  0.000E+00  3.87347E+01  1.097E-01  2.000E+01  2.000E+04 -5.341E-02
   1   13   23     2     8    4.6186E+04 -1.6663E+02   4.6353E+04  0.000E+00  0.000E+00  0.000E+00  3.84856E+01  1.106E-01  2.000E+01  2.000E+04 -8.331E-03
   1   14   22     2     9    4.6353E+04  2.1050E+03   4.4248E+04  0.000E+00  0.000E+00  0.000E+00  3.82342E+01  1.092E-01  2.000E+01  2.000E+04  1.052E-01
   1   14   22     3     1    1.5855E+05 -8.2533E+03   1.6681E+05  0.000E+00  0.000E+00  0.000E+00  3.77163E+01  1.607E-01  2.000E+01  2.000E+04 -4.127E-01
   1   15   23     3     2    1.6681E+05 -9.0192E+01   1.6690E+05  0.000E+00  0.000E+00  0.000E+00  3.68299E+01  1.632E-01  2.000E+01  2.000E+04 -4.510E-03
   1   15   24     3     3    1.6690E+05 -7.5626E+01   1.6697E+05  0.000E+00  0.000E+00  0.000E+00  3.59410E+01  1.632E-01  2.000E+01  2.000E+04 -3.781E-03
   1   15   25     3     4    1.6697E+05 -9.0487E+01   1.6706E+05  0.000E+00  0.000E+00  0.000E+00  3.50522E+01  1.633E-01  2.000E+01  2.000E+04 -4.524E-03
   1   15   26     3     5    1.6706E+05 -1.0994E+02   1.6717E+05  0.000E+00  0.000E+00  0.000E+00  3.41633E+01  1.633E-01  2.000E+01  2.000E+04 -5.497E-03
   1   16   27     3     6    1.6717E+05 -1.8681E+01   1.6719E+05  0.000E+00  0.000E+00  0.000E+00  3.32745E+01  1.634E-01  2.000E+01  2.000E+04 -9.340E-04
   1   17   28     3     7    1.6719E+05  7.5657E+02   1.6644E+05  0.000E+00  0.000E+00  0.000E+00  3.23854E+01  1.632E-01  2.000E+01  2.000E+04  3.783E-02
   1   18   29     3     8    1.6644E+05  4.4082E+03   1.6203E+05  0.000E+00  0.000E+00  0.000E+00  3.14950E+01  1.616E-01  2.000E+01  2.000E+04  2.204E-01
   1   18   30     3     9    1.6203E+05  6.1728E+02   1.6141E+05  0.000E+00  0.000E+00  0.000E+00  3.06046E+01  1.602E-01  2.000E+01  2.000E+04  3.086E-02



1
              HEAD IN LAYER   1 AT END OF TIME STEP   1 IN STRESS PERIOD    7
  ---------------------------------------------------------------------------

          1      2      3      4      5      6      7      8      9     10
         11     12     13     14     15     16     17     18     19     20
         21     22     23     24     25     26     27     28     29     30
 .........................................................................
   1  ****** ****** ****** ****** ****** ****** ****** ****** ****** ******
      ****** ****** ****** ****** ****** ****** ****** ****** ****** ******
      ****** ****** ****** ****** ****** ****** ****** ****** ****** ******
   2  ****** ****** ****** ****** ****** ****** ****** ****** ****** ******
      ****** ****** ****** ****** ****** ****** ****** ****** ****** ******
      ****** ****** ****** ****** ****** ****** ****** ****** ****** ******
   3  ****** ****** ****** ****** ****** ****** ****** ****** ****** ******
      ****** ****** ****** ****** ****** ****** ****** ****** ****** ******
      ****** ****** ****** ****** ****** ****** ****** ****** ****** ******
   4  ****** ****** ****** ****** ****** ****** ****** ****** ****** ******
      ****** ****** ****** ****** ****** ****** ****** ****** ****** ******
      ****** ****** ****** ****** ****** ****** ****** ****** ****** ******
   5  ****** ****** ****** ****** ****** ****** ****** ****** ****** ******
      ****** ****** ****** ****** ****** ****** ****** ****** ****** ******
      ****** ****** ****** ****** ****** ****** ****** ****** ****** ******
   6  ****** ****** ****** ****** ****** ****** ****** ****** ****** ******
      ****** ****** ****** ****** ****** ****** ****** ****** ****** ******
      ****** ****** ****** ****** ****** ****** ****** ****** ****** ******
   7  ****** ****** ****** ****** ****** ****** ****** ****** ****** ******
      ****** ****** ****** ****** ****** ****** ****** ****** ****** ******
      ****** ****** ****** ****** ****** ****** ****** ****** ****** ******
   8  ****** ****** ****** ****** ****** ****** ****** ****** ****** ******
      ****** ****** ****** ****** ****** ****** ****** ****** ****** ******
      ****** ****** ****** ****** ****** ****** ****** ****** ****** ******
   9  ****** ****** ****** ****** ****** ****** ****** ****** ****** ******
      ****** ****** ****** ****** ****** ****** ****** ****** ****** ******
      ****** ****** ****** ****** ****** ****** ****** ****** ****** ******
  10  ****** ****** ****** ****** ****** ****** ****** ****** ****** ******
      ****** ****** ****** ****** ****** ****** ****** ****** ****** ******
      ****** ****** ****** ****** ****** ****** ****** ****** ****** ******
  11  ****** ****** ****** ****** ****** ****** ****** ****** ****** ******
      ****** ****** ****** ****** ****** ****** ****** ****** ****** ******
      ****** ****** ****** ****** ****** ****** ****** ****** ****** ******
  12  ****** ****** ****** ****** ****** ****** ****** ****** ****** ******
      ****** ****** ****** ****** ****** ****** ****** ****** ****** ******
      ****** ****** ****** ****** ****** ****** ****** ****** ****** ******
  13  ****** ****** ****** ****** ****** ****** ****** ****** ****** ******
      ****** ****** ****** ****** ****** ****** ****** ****** ****** ******
      ****** ****** ****** ****** ****** ****** ****** ****** ****** ******
  14  ****** ****** ****** ****** ****** ****** ****** ****** ****** ******
      ****** ****** ****** ****** ****** ****** ****** ****** ****** ******
      ****** ****** ****** ****** ****** ****** ****** ****** ****** ******
  15  ****** ****** ****** ****** ****** ****** ****** ****** ****** ******
      ****** ****** ****** ****** ****** ****** ****** ****** ****** ******
      ****** ****** ****** ****** ****** ****** ****** ****** ****** ******
  16  ****** ****** ****** ****** ****** ****** ****** ****** ****** ******
      ****** ****** ****** ****** ****** ****** ****** ****** ****** ******
      ****** ****** ****** ****** ****** ****** ****** ****** ****** ******
  17  ****** ****** ****** ****** ****** ****** ****** ****** ****** ******
      ****** ****** ****** ****** ****** ****** ****** ****** ****** ******
      ****** ****** ****** ****** ****** ****** ****** ****** ****** ******
  18  ****** ****** ****** ****** ****** ****** ****** ****** ****** ******
      ****** ****** ****** ****** ****** ****** ****** ****** ****** ******
      ****** ****** ****** ****** ****** ****** ****** ****** ****** ******
  19  ****** ****** ****** ****** ****** ****** ****** ****** ****** ******
      ****** ****** ****** ****** ****** ****** ****** ****** ****** ******
      ****** ****** ****** ****** ****** ****** ****** ****** ****** ******
  20  ****** ****** ****** ****** ****** ****** ****** ****** ****** ******
      ****** ****** ****** ****** ****** ****** ****** ****** ****** ******
      ****** ****** ****** ****** ****** ****** ****** ****** ****** ******
  21  ****** ****** ****** ****** ****** ****** ****** ****** ****** ******
      ****** ****** ****** ****** ****** ****** ****** ****** ****** ******
      ****** ****** ****** ****** ****** ****** ****** ****** ****** ******
  22  ****** ****** ****** ****** ****** ****** ****** ****** ****** ******
      ****** ****** ****** ****** ****** ****** ****** ****** ****** ******
      ****** ****** ****** ****** ****** ****** ****** ****** ****** ******
  23  ****** ****** ****** ****** ****** ****** ****** ****** ****** ******
      ****** ****** ****** ****** ****** ****** ****** ****** ****** ******
      ****** ****** ****** ****** ****** ****** ****** ****** ****** ******
  24  ****** ****** ****** ****** ****** ****** ****** ****** ****** ******
      ****** ****** ****** ****** ****** ****** ****** ****** ****** ******
      ****** ****** ****** ****** ****** ****** ****** ****** ****** ******
  25  ****** ****** ****** ****** ****** ****** ****** ****** ****** ******
      ****** ****** ****** ****** ****** ****** ****** ****** ****** ******
      ****** ****** ****** ****** ****** ****** ****** ****** ****** ******

 HEAD WILL BE SAVED ON UNIT   51 AT END OF TIME STEP    1, STRESS PERIOD    7
1
  VOLUMETRIC BUDGET FOR ENTIRE MODEL AT END OF TIME STEP    1, STRESS PERIOD   7
  ------------------------------------------------------------------------------

     CUMULATIVE VOLUMES      L**3       RATES FOR THIS TIME STEP      L**3/T
     ------------------                 ------------------------

           IN:                                      IN:
           ---                                      ---
             STORAGE =    34814762.3900               STORAGE =       23002.7567
       CONSTANT HEAD =    17345723.6010         CONSTANT HEAD =       35703.8441
               WELLS =           0.0000                 WELLS =           0.0000
            RECHARGE =    15097200.0000              RECHARGE =           0.0000
      STREAM LEAKAGE =     9487535.9876        STREAM LEAKAGE =       20644.8476

            TOTAL IN =    76745221.9786              TOTAL IN =       79351.4484

          OUT:                                     OUT:
          ----                                     ----
             STORAGE =      714043.0054               STORAGE =           0.0000
       CONSTANT HEAD =           0.0000         CONSTANT HEAD =           0.0000
               WELLS =    30221970.9869                 WELLS =       47295.7292
            RECHARGE =           0.0000              RECHARGE =           0.0000
      STREAM LEAKAGE =    45809210.5615        STREAM LEAKAGE =       32055.7247

           TOTAL OUT =    76745224.5537             TOTAL OUT =       79351.4539

            IN - OUT =          -2.5752              IN - OUT =      -5.5437E-03

 PERCENT DISCREPANCY =          -0.00     PERCENT DISCREPANCY =          -0.00






         TIME SUMMARY AT END OF TIME STEP    1 IN STRESS PERIOD    7
                    SECONDS     MINUTES      HOURS       DAYS        YEARS
                    -----------------------------------------------------------
   TIME STEP LENGTH 7.86240E+06 1.31040E+05  2184.0      91.000     0.24914    
 STRESS PERIOD TIME 7.86240E+06 1.31040E+05  2184.0      91.000     0.24914    
         TOTAL TIME 5.52096E+07 9.20160E+05  15336.      639.00      1.7495    
1
1
                            STRESS PERIOD NO.    8, LENGTH =   91.00000    
                            -----------------------------------------------

                              NUMBER OF TIME STEPS =     1

                               MULTIPLIER FOR DELT =     1.500

                            INITIAL TIME STEP SIZE =   91.00000    

 WELL NO.  LAYER   ROW   COL   STRESS RATE         
 --------------------------------------------------
      1      1     19     29     -0.1179E+05
      2      1     10     29     -0.1333E+05
      3      1     20     21     -0.1335E+05
      4      1      8     12      -8823.    

      4 WELLS

                 RECHARGE =  1.000000E-03

 REUSING STREAM SEGMENT DATA FROM LAST STRESS PERIOD
 
 SOLVING FOR HEAD 


     6 CALLS TO PCG ROUTINE FOR TIME STEP   1 IN STRESS PERIOD    8
    22 TOTAL ITERATIONS

 OUTPUT CONTROL FOR STRESS PERIOD    8   TIME STEP    1
    SAVE BUDGET
    SAVE HEAD FOR ALL LAYERS
    PRINT HEAD FOR ALL LAYERS
 UBDSV2 SAVING "STREAMFLOW OUT  " ON UNIT  50 AT TIME STEP  1, STRESS PERIOD   8



 STREAM LISTING     PERIOD      8   STEP        1

 LAYER ROW COL. STREAM  RCH.  FLOW INTO     FLOW TO   FLOW OUT OF   OVRLND.     DIRECT     STREAM       STREAM     STREAM     STREAM   STREAMBED  STREAMBED
                SEG.NO.  NO.  STRM. RCH.    AQUIFER    STRM. RCH.    RUNOFF     PRECIP       ET          HEAD       DEPTH      WIDTH   CONDCTNC.   GRADIENT

   1   13    1     1     1    1.0000E+05 -1.5900E+03   1.0159E+05  0.000E+00  0.000E+00  0.000E+00  4.84067E+01  1.453E-01  2.000E+01  2.000E+04 -7.950E-02
   1   13    2     1     2    1.0159E+05 -2.5325E+03   1.0412E+05  0.000E+00  0.000E+00  0.000E+00  4.79312E+01  1.471E-01  2.000E+01  2.000E+04 -1.266E-01
   1   14    3     1     3    1.0412E+05 -4.4230E+02   1.0456E+05  0.000E+00  0.000E+00  0.000E+00  4.74552E+01  1.484E-01  2.000E+01  2.000E+04 -2.212E-02
   1   15    4     1     4    1.0456E+05 -4.1812E+02   1.0498E+05  0.000E+00  0.000E+00  0.000E+00  4.69783E+01  1.488E-01  2.000E+01  2.000E+04 -2.091E-02
   1   16    5     1     5    1.0498E+05 -1.5500E+03   1.0653E+05  0.000E+00  0.000E+00  0.000E+00  4.65019E+01  1.496E-01  2.000E+01  2.000E+04 -7.750E-02
   1   16    6     1     6    1.0653E+05 -9.7043E+02   1.0750E+05  0.000E+00  0.000E+00  0.000E+00  4.60257E+01  1.507E-01  2.000E+01  2.000E+04 -4.852E-02
   1   16    7     1     7    1.0750E+05 -9.3620E+02   1.0844E+05  0.000E+00  0.000E+00  0.000E+00  4.55492E+01  1.515E-01  2.000E+01  2.000E+04 -4.681E-02
   1   16    8     1     8    1.0844E+05 -9.0827E+02   1.0935E+05  0.000E+00  0.000E+00  0.000E+00  4.50727E+01  1.522E-01  2.000E+01  2.000E+04 -4.541E-02
   1   16    9     1     9    1.0935E+05 -8.6756E+02   1.1022E+05  0.000E+00  0.000E+00  0.000E+00  4.45962E+01  1.530E-01  2.000E+01  2.000E+04 -4.338E-02
   1   16   10     1    10    1.1022E+05 -8.0958E+02   1.1102E+05  0.000E+00  0.000E+00  0.000E+00  4.41196E+01  1.537E-01  2.000E+01  2.000E+04 -4.048E-02
   1   16   11     1    11    1.1102E+05 -7.3591E+02   1.1176E+05  0.000E+00  0.000E+00  0.000E+00  4.36430E+01  1.543E-01  2.000E+01  2.000E+04 -3.680E-02
   1   16   12     1    12    1.1176E+05 -9.6582E+02   1.1273E+05  0.000E+00  0.000E+00  0.000E+00  4.31664E+01  1.550E-01  2.000E+01  2.000E+04 -4.829E-02
   1   15   13     1    13    1.1273E+05 -7.1623E+02   1.1344E+05  0.000E+00  0.000E+00  0.000E+00  4.26898E+01  1.557E-01  2.000E+01  2.000E+04 -3.581E-02
   1   14   14     1    14    1.1344E+05 -8.1169E+02   1.1425E+05  0.000E+00  0.000E+00  0.000E+00  4.22132E+01  1.564E-01  2.000E+01  2.000E+04 -4.058E-02
   1   13   15     1    15    1.1425E+05 -1.0286E+03   1.1528E+05  0.000E+00  0.000E+00  0.000E+00  4.17367E+01  1.571E-01  2.000E+01  2.000E+04 -5.143E-02
   1   12   16     1    16    1.1528E+05 -1.6753E+03   1.1696E+05  0.000E+00  0.000E+00  0.000E+00  4.12605E+01  1.582E-01  2.000E+01  2.000E+04 -8.376E-02
   1   12   17     1    17    1.1696E+05 -1.1895E+03   1.1815E+05  0.000E+00  0.000E+00  0.000E+00  4.07844E+01  1.594E-01  2.000E+01  2.000E+04 -5.947E-02
   1   12   18     1    18    1.1815E+05 -1.2031E+03   1.1935E+05  0.000E+00  0.000E+00  0.000E+00  4.03081E+01  1.604E-01  2.000E+01  2.000E+04 -6.016E-02
   1   12   19     1    19    1.1935E+05 -1.8085E+03   1.2116E+05  0.000E+00  0.000E+00  0.000E+00  3.98320E+01  1.616E-01  2.000E+01  2.000E+04 -9.043E-02
   1   13   20     1    20    1.2116E+05 -9.5298E+02   1.2211E+05  0.000E+00  0.000E+00  0.000E+00  3.93559E+01  1.627E-01  2.000E+01  2.000E+04 -4.765E-02
   1   14   21     1    21    1.2211E+05  1.7572E+01   1.2209E+05  0.000E+00  0.000E+00  0.000E+00  3.88790E+01  1.631E-01  2.000E+01  2.000E+04  8.786E-04
   1   14   22     1    22    1.2209E+05  5.3248E+03   1.1677E+05  0.000E+00  0.000E+00  0.000E+00  3.83996E+01  1.609E-01  2.000E+01  2.000E+04  2.662E-01
   1    9   30     2     1    5.0000E+04  1.9606E+03   4.8039E+04  0.000E+00  0.000E+00  0.000E+00  4.02395E+01  1.145E-01  2.000E+01  2.000E+04  9.803E-02
   1    9   29     2     2    4.8039E+04  3.9921E+03   4.4047E+04  0.000E+00  0.000E+00  0.000E+00  3.99853E+01  1.103E-01  2.000E+01  2.000E+04  1.996E-01
   1    9   28     2     3    4.4047E+04  7.8927E+02   4.3258E+04  0.000E+00  0.000E+00  0.000E+00  3.97318E+01  1.068E-01  2.000E+01  2.000E+04  3.946E-02
   1    9   27     2     4    4.3258E+04 -1.5894E+03   4.4847E+04  0.000E+00  0.000E+00  0.000E+00  3.94824E+01  1.074E-01  2.000E+01  2.000E+04 -7.947E-02
   1   10   26     2     5    4.4847E+04 -4.9888E+02   4.5346E+04  0.000E+00  0.000E+00  0.000E+00  3.92339E+01  1.089E-01  2.000E+01  2.000E+04 -2.494E-02
   1   11   25     2     6    4.5346E+04 -8.2746E+02   4.6174E+04  0.000E+00  0.000E+00  0.000E+00  3.89849E+01  1.099E-01  2.000E+01  2.000E+04 -4.137E-02
   1   12   24     2     7    4.6174E+04 -1.2506E+03   4.7424E+04  0.000E+00  0.000E+00  0.000E+00  3.87364E+01  1.114E-01  2.000E+01  2.000E+04 -6.253E-02
   1   13   23     2     8    4.7424E+04 -2.4047E+02   4.7665E+04  0.000E+00  0.000E+00  0.000E+00  3.84874E+01  1.124E-01  2.000E+01  2.000E+04 -1.202E-02
   1   14   22     2     9    4.7665E+04  2.0562E+03   4.5609E+04  0.000E+00  0.000E+00  0.000E+00  3.82361E+01  1.111E-01  2.000E+01  2.000E+04  1.028E-01
   1   14   22     3     1    1.6238E+05 -8.2951E+03   1.7067E+05  0.000E+00  0.000E+00  0.000E+00  3.77186E+01  1.630E-01  2.000E+01  2.000E+04 -4.148E-01
   1   15   23     3     2    1.7067E+05 -1.5225E+02   1.7083E+05  0.000E+00  0.000E+00  0.000E+00  3.68321E+01  1.655E-01  2.000E+01  2.000E+04 -7.613E-03
   1   15   24     3     3    1.7083E+05 -1.3481E+02   1.7096E+05  0.000E+00  0.000E+00  0.000E+00  3.59433E+01  1.656E-01  2.000E+01  2.000E+04 -6.741E-03
   1   15   25     3     4    1.7096E+05 -1.5151E+02   1.7111E+05  0.000E+00  0.000E+00  0.000E+00  3.50545E+01  1.656E-01  2.000E+01  2.000E+04 -7.576E-03
   1   15   26     3     5    1.7111E+05 -1.8378E+02   1.7130E+05  0.000E+00  0.000E+00  0.000E+00  3.41657E+01  1.657E-01  2.000E+01  2.000E+04 -9.189E-03
   1   16   27     3     6    1.7130E+05 -9.9026E+01   1.7140E+05  0.000E+00  0.000E+00  0.000E+00  3.32769E+01  1.658E-01  2.000E+01  2.000E+04 -4.951E-03
   1   17   28     3     7    1.7140E+05  5.5794E+02   1.7084E+05  0.000E+00  0.000E+00  0.000E+00  3.23879E+01  1.657E-01  2.000E+01  2.000E+04  2.790E-02
   1   18   29     3     8    1.7084E+05  4.2536E+03   1.6658E+05  0.000E+00  0.000E+00  0.000E+00  3.14976E+01  1.643E-01  2.000E+01  2.000E+04  2.127E-01
   1   18   30     3     9    1.6658E+05  4.7726E+02   1.6611E+05  0.000E+00  0.000E+00  0.000E+00  3.06073E+01  1.629E-01  2.000E+01  2.000E+04  2.386E-02



1
              HEAD IN LAYER   1 AT END OF TIME STEP   1 IN STRESS PERIOD    8
  ---------------------------------------------------------------------------

          1      2      3      4      5      6      7      8      9     10
         11     12     13     14     15     16     17     18     19     20
         21     22     23     24     25     26     27     28     29     30
 .........................................................................
   1  ****** ****** ****** ****** ****** ****** ****** ****** ****** ******
      ****** ****** ****** ****** ****** ****** ****** ****** ****** ******
      ****** ****** ****** ****** ****** ****** ****** ****** ****** ******
   2  ****** ****** ****** ****** ****** ****** ****** ****** ****** ******
      ****** ****** ****** ****** ****** ****** ****** ****** ****** ******
      ****** ****** ****** ****** ****** ****** ****** ****** ****** ******
   3  ****** ****** ****** ****** ****** ****** ****** ****** ****** ******
      ****** ****** ****** ****** ****** ****** ****** ****** ****** ******
      ****** ****** ****** ****** ****** ****** ****** ****** ****** ******
   4  ****** ****** ****** ****** ****** ****** ****** ****** ****** ******
      ****** ****** ****** ****** ****** ****** ****** ****** ****** ******
      ****** ****** ****** ****** ****** ****** ****** ****** ****** ******
   5  ****** ****** ****** ****** ****** ****** ****** ****** ****** ******
      ****** ****** ****** ****** ****** ****** ****** ****** ****** ******
      ****** ****** ****** ****** ****** ****** ****** ****** ****** ******
   6  ****** ****** ****** ****** ****** ****** ****** ****** ****** ******
      ****** ****** ****** ****** ****** ****** ****** ****** ****** ******
      ****** ****** ****** ****** ****** ****** ****** ****** ****** ******
   7  ****** ****** ****** ****** ****** ****** ****** ****** ****** ******
      ****** ****** ****** ****** ****** ****** ****** ****** ****** ******
      ****** ****** ****** ****** ****** ****** ****** ****** ****** ******
   8  ****** ****** ****** ****** ****** ****** ****** ****** ****** ******
      ****** ****** ****** ****** ****** ****** ****** ****** ****** ******
      ****** ****** ****** ****** ****** ****** ****** ****** ****** ******
   9  ****** ****** ****** ****** ****** ****** ****** ****** ****** ******
      ****** ****** ****** ****** ****** ****** ****** ****** ****** ******
      ****** ****** ****** ****** ****** ****** ****** ****** ****** ******
  10  ****** ****** ****** ****** ****** ****** ****** ****** ****** ******
      ****** ****** ****** ****** ****** ****** ****** ****** ****** ******
      ****** ****** ****** ****** ****** ****** ****** ****** ****** ******
  11  ****** ****** ****** ****** ****** ****** ****** ****** ****** ******
      ****** ****** ****** ****** ****** ****** ****** ****** ****** ******
      ****** ****** ****** ****** ****** ****** ****** ****** ****** ******
  12  ****** ****** ****** ****** ****** ****** ****** ****** ****** ******
      ****** ****** ****** ****** ****** ****** ****** ****** ****** ******
      ****** ****** ****** ****** ****** ****** ****** ****** ****** ******
  13  ****** ****** ****** ****** ****** ****** ****** ****** ****** ******
      ****** ****** ****** ****** ****** ****** ****** ****** ****** ******
      ****** ****** ****** ****** ****** ****** ****** ****** ****** ******
  14  ****** ****** ****** ****** ****** ****** ****** ****** ****** ******
      ****** ****** ****** ****** ****** ****** ****** ****** ****** ******
      ****** ****** ****** ****** ****** ****** ****** ****** ****** ******
  15  ****** ****** ****** ****** ****** ****** ****** ****** ****** ******
      ****** ****** ****** ****** ****** ****** ****** ****** ****** ******
      ****** ****** ****** ****** ****** ****** ****** ****** ****** ******
  16  ****** ****** ****** ****** ****** ****** ****** ****** ****** ******
      ****** ****** ****** ****** ****** ****** ****** ****** ****** ******
      ****** ****** ****** ****** ****** ****** ****** ****** ****** ******
  17  ****** ****** ****** ****** ****** ****** ****** ****** ****** ******
      ****** ****** ****** ****** ****** ****** ****** ****** ****** ******
      ****** ****** ****** ****** ****** ****** ****** ****** ****** ******
  18  ****** ****** ****** ****** ****** ****** ****** ****** ****** ******
      ****** ****** ****** ****** ****** ****** ****** ****** ****** ******
      ****** ****** ****** ****** ****** ****** ****** ****** ****** ******
  19  ****** ****** ****** ****** ****** ****** ****** ****** ****** ******
      ****** ****** ****** ****** ****** ****** ****** ****** ****** ******
      ****** ****** ****** ****** ****** ****** ****** ****** ****** ******
  20  ****** ****** ****** ****** ****** ****** ****** ****** ****** ******
      ****** ****** ****** ****** ****** ****** ****** ****** ****** ******
      ****** ****** ****** ****** ****** ****** ****** ****** ****** ******
  21  ****** ****** ****** ****** ****** ****** ****** ****** ****** ******
      ****** ****** ****** ****** ****** ****** ****** ****** ****** ******
      ****** ****** ****** ****** ****** ****** ****** ****** ****** ******
  22  ****** ****** ****** ****** ****** ****** ****** ****** ****** ******
      ****** ****** ****** ****** ****** ****** ****** ****** ****** ******
      ****** ****** ****** ****** ****** ****** ****** ****** ****** ******
  23  ****** ****** ****** ****** ****** ****** ****** ****** ****** ******
      ****** ****** ****** ****** ****** ****** ****** ****** ****** ******
      ****** ****** ****** ****** ****** ****** ****** ****** ****** ******
  24  ****** ****** ****** ****** ****** ****** ****** ****** ****** ******
      ****** ****** ****** ****** ****** ****** ****** ****** ****** ******
      ****** ****** ****** ****** ****** ****** ****** ****** ****** ******
  25  ****** ****** ****** ****** ****** ****** ****** ****** ****** ******
      ****** ****** ****** ****** ****** ****** ****** ****** ****** ******
      ****** ****** ****** ****** ****** ****** ****** ****** ****** ******

 HEAD WILL BE SAVED ON UNIT   51 AT END OF TIME STEP    1, STRESS PERIOD    8
1
  VOLUMETRIC BUDGET FOR ENTIRE MODEL AT END OF TIME STEP    1, STRESS PERIOD   8
  ------------------------------------------------------------------------------

     CUMULATIVE VOLUMES      L**3       RATES FOR THIS TIME STEP      L**3/T
     ------------------                 ------------------------

           IN:                                      IN:
           ---                                      ---
             STORAGE =    34973127.3324               STORAGE =        1740.2741
       CONSTANT HEAD =    20573113.6201         CONSTANT HEAD =       35465.8244
               WELLS =           0.0000                 WELLS =           0.0000
            RECHARGE =    17608800.0000              RECHARGE =       27600.0000
      STREAM LEAKAGE =    11255609.5180        STREAM LEAKAGE =       19429.3795

            TOTAL IN =    84410650.4705              TOTAL IN =       84235.4779

          OUT:                                     OUT:
          ----                                     ----
             STORAGE =      841793.0922               STORAGE =        1403.8471
       CONSTANT HEAD =           0.0000         CONSTANT HEAD =           0.0000
               WELLS =    34525882.3481                 WELLS =       47295.7292
            RECHARGE =           0.0000              RECHARGE =           0.0000
      STREAM LEAKAGE =    49042976.8981        STREAM LEAKAGE =       35535.8938

           TOTAL OUT =    84410652.3384             TOTAL OUT =       84235.4702

            IN - OUT =          -1.8679              IN - OUT =       7.7727E-03

 PERCENT DISCREPANCY =          -0.00     PERCENT DISCREPANCY =           0.00






         TIME SUMMARY AT END OF TIME STEP    1 IN STRESS PERIOD    8
                    SECONDS     MINUTES      HOURS       DAYS        YEARS
                    -----------------------------------------------------------
   TIME STEP LENGTH 7.86240E+06 1.31040E+05  2184.0      91.000     0.24914    
 STRESS PERIOD TIME 7.86240E+06 1.31040E+05  2184.0      91.000     0.24914    
         TOTAL TIME 6.30720E+07 1.05120E+06  17520.      730.00      1.9986    
1
1
                            STRESS PERIOD NO.    9, LENGTH =   92.00000    
                            -----------------------------------------------

                              NUMBER OF TIME STEPS =     1

                               MULTIPLIER FOR DELT =     1.500

                            INITIAL TIME STEP SIZE =   92.00000    

 WELL NO.  LAYER   ROW   COL   STRESS RATE         
 --------------------------------------------------
      1      1     19     29     -0.1179E+05
      2      1     10     29     -0.1333E+05
      3      1     20     21     -0.1335E+05
      4      1      8     12      -8823.    

      4 WELLS

                 RECHARGE =  5.000000E-04

 REUSING STREAM SEGMENT DATA FROM LAST STRESS PERIOD
 
 SOLVING FOR HEAD 


     6 CALLS TO PCG ROUTINE FOR TIME STEP   1 IN STRESS PERIOD    9
    23 TOTAL ITERATIONS

 OUTPUT CONTROL FOR STRESS PERIOD    9   TIME STEP    1
    SAVE BUDGET
    SAVE HEAD FOR ALL LAYERS
    PRINT HEAD FOR ALL LAYERS
 UBDSV2 SAVING "STREAMFLOW OUT  " ON UNIT  50 AT TIME STEP  1, STRESS PERIOD   9



 STREAM LISTING     PERIOD      9   STEP        1

 LAYER ROW COL. STREAM  RCH.  FLOW INTO     FLOW TO   FLOW OUT OF   OVRLND.     DIRECT     STREAM       STREAM     STREAM     STREAM   STREAMBED  STREAMBED
                SEG.NO.  NO.  STRM. RCH.    AQUIFER    STRM. RCH.    RUNOFF     PRECIP       ET          HEAD       DEPTH      WIDTH   CONDCTNC.   GRADIENT

   1   13    1     1     1    1.0000E+05 -1.3680E+03   1.0137E+05  0.000E+00  0.000E+00  0.000E+00  4.84066E+01  1.452E-01  2.000E+01  2.000E+04 -6.840E-02
   1   13    2     1     2    1.0137E+05 -2.2808E+03   1.0365E+05  0.000E+00  0.000E+00  0.000E+00  4.79309E+01  1.468E-01  2.000E+01  2.000E+04 -1.140E-01
   1   14    3     1     3    1.0365E+05 -3.7005E+02   1.0402E+05  0.000E+00  0.000E+00  0.000E+00  4.74548E+01  1.480E-01  2.000E+01  2.000E+04 -1.850E-02
   1   15    4     1     4    1.0402E+05 -3.4506E+02   1.0436E+05  0.000E+00  0.000E+00  0.000E+00  4.69778E+01  1.483E-01  2.000E+01  2.000E+04 -1.725E-02
   1   16    5     1     5    1.0436E+05 -1.3556E+03   1.0572E+05  0.000E+00  0.000E+00  0.000E+00  4.65013E+01  1.490E-01  2.000E+01  2.000E+04 -6.778E-02
   1   16    6     1     6    1.0572E+05 -8.4874E+02   1.0657E+05  0.000E+00  0.000E+00  0.000E+00  4.60249E+01  1.499E-01  2.000E+01  2.000E+04 -4.244E-02
   1   16    7     1     7    1.0657E+05 -8.1808E+02   1.0739E+05  0.000E+00  0.000E+00  0.000E+00  4.55484E+01  1.506E-01  2.000E+01  2.000E+04 -4.090E-02
   1   16    8     1     8    1.0739E+05 -7.9161E+02   1.0818E+05  0.000E+00  0.000E+00  0.000E+00  4.50718E+01  1.513E-01  2.000E+01  2.000E+04 -3.958E-02
   1   16    9     1     9    1.0818E+05 -7.5250E+02   1.0893E+05  0.000E+00  0.000E+00  0.000E+00  4.45951E+01  1.520E-01  2.000E+01  2.000E+04 -3.763E-02
   1   16   10     1    10    1.0893E+05 -6.9657E+02   1.0963E+05  0.000E+00  0.000E+00  0.000E+00  4.41185E+01  1.526E-01  2.000E+01  2.000E+04 -3.483E-02
   1   16   11     1    11    1.0963E+05 -6.2388E+02   1.1025E+05  0.000E+00  0.000E+00  0.000E+00  4.36418E+01  1.531E-01  2.000E+01  2.000E+04 -3.119E-02
   1   16   12     1    12    1.1025E+05 -7.7325E+02   1.1102E+05  0.000E+00  0.000E+00  0.000E+00  4.31651E+01  1.537E-01  2.000E+01  2.000E+04 -3.866E-02
   1   15   13     1    13    1.1102E+05 -5.0150E+02   1.1153E+05  0.000E+00  0.000E+00  0.000E+00  4.26883E+01  1.542E-01  2.000E+01  2.000E+04 -2.508E-02
   1   14   14     1    14    1.1153E+05 -5.8287E+02   1.1211E+05  0.000E+00  0.000E+00  0.000E+00  4.22115E+01  1.547E-01  2.000E+01  2.000E+04 -2.914E-02
   1   13   15     1    15    1.1211E+05 -7.9358E+02   1.1290E+05  0.000E+00  0.000E+00  0.000E+00  4.17348E+01  1.552E-01  2.000E+01  2.000E+04 -3.968E-02
   1   12   16     1    16    1.1290E+05 -1.4316E+03   1.1433E+05  0.000E+00  0.000E+00  0.000E+00  4.12584E+01  1.562E-01  2.000E+01  2.000E+04 -7.158E-02
   1   12   17     1    17    1.1433E+05 -1.0229E+03   1.1536E+05  0.000E+00  0.000E+00  0.000E+00  4.07822E+01  1.572E-01  2.000E+01  2.000E+04 -5.114E-02
   1   12   18     1    18    1.1536E+05 -1.0445E+03   1.1640E+05  0.000E+00  0.000E+00  0.000E+00  4.03058E+01  1.580E-01  2.000E+01  2.000E+04 -5.223E-02
   1   12   19     1    19    1.1640E+05 -1.6182E+03   1.1802E+05  0.000E+00  0.000E+00  0.000E+00  3.98296E+01  1.591E-01  2.000E+01  2.000E+04 -8.091E-02
   1   13   20     1    20    1.1802E+05 -7.7626E+02   1.1880E+05  0.000E+00  0.000E+00  0.000E+00  3.93533E+01  1.601E-01  2.000E+01  2.000E+04 -3.881E-02
   1   14   21     1    21    1.1880E+05  1.9365E+02   1.1860E+05  0.000E+00  0.000E+00  0.000E+00  3.88762E+01  1.603E-01  2.000E+01  2.000E+04  9.682E-03
   1   14   22     1    22    1.1860E+05  5.3646E+03   1.1324E+05  0.000E+00  0.000E+00  0.000E+00  3.83967E+01  1.581E-01  2.000E+01  2.000E+04  2.682E-01
   1    9   30     2     1    5.0000E+04  2.0844E+03   4.7916E+04  0.000E+00  0.000E+00  0.000E+00  4.02394E+01  1.144E-01  2.000E+01  2.000E+04  1.042E-01
   1    9   29     2     2    4.7916E+04  4.1161E+03   4.3800E+04  0.000E+00  0.000E+00  0.000E+00  3.99850E+01  1.100E-01  2.000E+01  2.000E+04  2.058E-01
   1    9   28     2     3    4.3800E+04  9.1529E+02   4.2884E+04  0.000E+00  0.000E+00  0.000E+00  3.97313E+01  1.063E-01  2.000E+01  2.000E+04  4.576E-02
   1    9   27     2     4    4.2884E+04 -1.4116E+03   4.4296E+04  0.000E+00  0.000E+00  0.000E+00  3.94817E+01  1.067E-01  2.000E+01  2.000E+04 -7.058E-02
   1   10   26     2     5    4.4296E+04 -3.2403E+02   4.4620E+04  0.000E+00  0.000E+00  0.000E+00  3.92330E+01  1.080E-01  2.000E+01  2.000E+04 -1.620E-02
   1   11   25     2     6    4.4620E+04 -6.6010E+02   4.5280E+04  0.000E+00  0.000E+00  0.000E+00  3.89837E+01  1.087E-01  2.000E+01  2.000E+04 -3.301E-02
   1   12   24     2     7    4.5280E+04 -1.0966E+03   4.6377E+04  0.000E+00  0.000E+00  0.000E+00  3.87350E+01  1.100E-01  2.000E+01  2.000E+04 -5.483E-02
   1   13   23     2     8    4.6377E+04 -1.9317E+02   4.6570E+04  0.000E+00  0.000E+00  0.000E+00  3.84859E+01  1.109E-01  2.000E+01  2.000E+04 -9.659E-03
   1   14   22     2     9    4.6570E+04  2.1208E+03   4.4449E+04  0.000E+00  0.000E+00  0.000E+00  3.82345E+01  1.095E-01  2.000E+01  2.000E+04  1.060E-01
   1   14   22     3     1    1.5769E+05 -8.2539E+03   1.6594E+05  0.000E+00  0.000E+00  0.000E+00  3.77158E+01  1.602E-01  2.000E+01  2.000E+04 -4.127E-01
   1   15   23     3     2    1.6594E+05 -9.8581E+01   1.6604E+05  0.000E+00  0.000E+00  0.000E+00  3.68294E+01  1.627E-01  2.000E+01  2.000E+04 -4.929E-03
   1   15   24     3     3    1.6604E+05 -9.1126E+01   1.6613E+05  0.000E+00  0.000E+00  0.000E+00  3.59405E+01  1.627E-01  2.000E+01  2.000E+04 -4.556E-03
   1   15   25     3     4    1.6613E+05 -1.0763E+02   1.6624E+05  0.000E+00  0.000E+00  0.000E+00  3.50517E+01  1.628E-01  2.000E+01  2.000E+04 -5.381E-03
   1   15   26     3     5    1.6624E+05 -1.3579E+02   1.6637E+05  0.000E+00  0.000E+00  0.000E+00  3.41629E+01  1.629E-01  2.000E+01  2.000E+04 -6.789E-03
   1   16   27     3     6    1.6637E+05 -4.2278E+01   1.6642E+05  0.000E+00  0.000E+00  0.000E+00  3.32740E+01  1.629E-01  2.000E+01  2.000E+04 -2.114E-03
   1   17   28     3     7    1.6642E+05  7.1406E+02   1.6570E+05  0.000E+00  0.000E+00  0.000E+00  3.23849E+01  1.627E-01  2.000E+01  2.000E+04  3.570E-02
   1   18   29     3     8    1.6570E+05  4.4350E+03   1.6127E+05  0.000E+00  0.000E+00  0.000E+00  3.14945E+01  1.612E-01  2.000E+01  2.000E+04  2.217E-01
   1   18   30     3     9    1.6127E+05  6.1276E+02   1.6065E+05  0.000E+00  0.000E+00  0.000E+00  3.06042E+01  1.597E-01  2.000E+01  2.000E+04  3.064E-02



1
              HEAD IN LAYER   1 AT END OF TIME STEP   1 IN STRESS PERIOD    9
  ---------------------------------------------------------------------------

          1      2      3      4      5      6      7      8      9     10
         11     12     13     14     15     16     17     18     19     20
         21     22     23     24     25     26     27     28     29     30
 .........................................................................
   1  ****** ****** ****** ****** ****** ****** ****** ****** ****** ******
      ****** ****** ****** ****** ****** ****** ****** ****** ****** ******
      ****** ****** ****** ****** ****** ****** ****** ****** ****** ******
   2  ****** ****** ****** ****** ****** ****** ****** ****** ****** ******
      ****** ****** ****** ****** ****** ****** ****** ****** ****** ******
      ****** ****** ****** ****** ****** ****** ****** ****** ****** ******
   3  ****** ****** ****** ****** ****** ****** ****** ****** ****** ******
      ****** ****** ****** ****** ****** ****** ****** ****** ****** ******
      ****** ****** ****** ****** ****** ****** ****** ****** ****** ******
   4  ****** ****** ****** ****** ****** ****** ****** ****** ****** ******
      ****** ****** ****** ****** ****** ****** ****** ****** ****** ******
      ****** ****** ****** ****** ****** ****** ****** ****** ****** ******
   5  ****** ****** ****** ****** ****** ****** ****** ****** ****** ******
      ****** ****** ****** ****** ****** ****** ****** ****** ****** ******
      ****** ****** ****** ****** ****** ****** ****** ****** ****** ******
   6  ****** ****** ****** ****** ****** ****** ****** ****** ****** ******
      ****** ****** ****** ****** ****** ****** ****** ****** ****** ******
      ****** ****** ****** ****** ****** ****** ****** ****** ****** ******
   7  ****** ****** ****** ****** ****** ****** ****** ****** ****** ******
      ****** ****** ****** ****** ****** ****** ****** ****** ****** ******
      ****** ****** ****** ****** ****** ****** ****** ****** ****** ******
   8  ****** ****** ****** ****** ****** ****** ****** ****** ****** ******
      ****** ****** ****** ****** ****** ****** ****** ****** ****** ******
      ****** ****** ****** ****** ****** ****** ****** ****** ****** ******
   9  ****** ****** ****** ****** ****** ****** ****** ****** ****** ******
      ****** ****** ****** ****** ****** ****** ****** ****** ****** ******
      ****** ****** ****** ****** ****** ****** ****** ****** ****** ******
  10  ****** ****** ****** ****** ****** ****** ****** ****** ****** ******
      ****** ****** ****** ****** ****** ****** ****** ****** ****** ******
      ****** ****** ****** ****** ****** ****** ****** ****** ****** ******
  11  ****** ****** ****** ****** ****** ****** ****** ****** ****** ******
      ****** ****** ****** ****** ****** ****** ****** ****** ****** ******
      ****** ****** ****** ****** ****** ****** ****** ****** ****** ******
  12  ****** ****** ****** ****** ****** ****** ****** ****** ****** ******
      ****** ****** ****** ****** ****** ****** ****** ****** ****** ******
      ****** ****** ****** ****** ****** ****** ****** ****** ****** ******
  13  ****** ****** ****** ****** ****** ****** ****** ****** ****** ******
      ****** ****** ****** ****** ****** ****** ****** ****** ****** ******
      ****** ****** ****** ****** ****** ****** ****** ****** ****** ******
  14  ****** ****** ****** ****** ****** ****** ****** ****** ****** ******
      ****** ****** ****** ****** ****** ****** ****** ****** ****** ******
      ****** ****** ****** ****** ****** ****** ****** ****** ****** ******
  15  ****** ****** ****** ****** ****** ****** ****** ****** ****** ******
      ****** ****** ****** ****** ****** ****** ****** ****** ****** ******
      ****** ****** ****** ****** ****** ****** ****** ****** ****** ******
  16  ****** ****** ****** ****** ****** ****** ****** ****** ****** ******
      ****** ****** ****** ****** ****** ****** ****** ****** ****** ******
      ****** ****** ****** ****** ****** ****** ****** ****** ****** ******
  17  ****** ****** ****** ****** ****** ****** ****** ****** ****** ******
      ****** ****** ****** ****** ****** ****** ****** ****** ****** ******
      ****** ****** ****** ****** ****** ****** ****** ****** ****** ******
  18  ****** ****** ****** ****** ****** ****** ****** ****** ****** ******
      ****** ****** ****** ****** ****** ****** ****** ****** ****** ******
      ****** ****** ****** ****** ****** ****** ****** ****** ****** ******
  19  ****** ****** ****** ****** ****** ****** ****** ****** ****** ******
      ****** ****** ****** ****** ****** ****** ****** ****** ****** ******
      ****** ****** ****** ****** ****** ****** ****** ****** ****** ******
  20  ****** ****** ****** ****** ****** ****** ****** ****** ****** ******
      ****** ****** ****** ****** ****** ****** ****** ****** ****** ******
      ****** ****** ****** ****** ****** ****** ****** ****** ****** ******
  21  ****** ****** ****** ****** ****** ****** ****** ****** ****** ******
      ****** ****** ****** ****** ****** ****** ****** ****** ****** ******
      ****** ****** ****** ****** ****** ****** ****** ****** ****** ******
  22  ****** ****** ****** ****** ****** ****** ****** ****** ****** ******
      ****** ****** ****** ****** ****** ****** ****** ****** ****** ******
      ****** ****** ****** ****** ****** ****** ****** ****** ****** ******
  23  ****** ****** ****** ****** ****** ****** ****** ****** ****** ******
      ****** ****** ****** ****** ****** ****** ****** ****** ****** ******
      ****** ****** ****** ****** ****** ****** ****** ****** ****** ******
  24  ****** ****** ****** ****** ****** ****** ****** ****** ****** ******
      ****** ****** ****** ****** ****** ****** ****** ****** ****** ******
      ****** ****** ****** ****** ****** ****** ****** ****** ****** ******
  25  ****** ****** ****** ****** ****** ****** ****** ****** ****** ******
      ****** ****** ****** ****** ****** ****** ****** ****** ****** ******
      ****** ****** ****** ****** ****** ****** ****** ****** ****** ******

 HEAD WILL BE SAVED ON UNIT   51 AT END OF TIME STEP    1, STRESS PERIOD    9
1
  VOLUMETRIC BUDGET FOR ENTIRE MODEL AT END OF TIME STEP    1, STRESS PERIOD   9
  ------------------------------------------------------------------------------

     CUMULATIVE VOLUMES      L**3       RATES FOR THIS TIME STEP      L**3/T
     ------------------                 ------------------------

           IN:                                      IN:
           ---                                      ---
             STORAGE =    35661330.8755               STORAGE =        7480.4733
       CONSTANT HEAD =    23946653.1824         CONSTANT HEAD =       36668.9083
               WELLS =           0.0000                 WELLS =           0.0000
            RECHARGE =    18878400.0000              RECHARGE =       13800.0000
      STREAM LEAKAGE =    13146816.0283        STREAM LEAKAGE =       20556.5925

            TOTAL IN =    91633200.0862              TOTAL IN =       78505.9741

          OUT:                                     OUT:
          ----                                     ----
             STORAGE =      841793.0922               STORAGE =           0.0000
       CONSTANT HEAD =           0.0000         CONSTANT HEAD =           0.0000
               WELLS =    38877089.4385                 WELLS =       47295.7292
            RECHARGE =           0.0000              RECHARGE =           0.0000
      STREAM LEAKAGE =    51914319.4964        STREAM LEAKAGE =       31210.2456

           TOTAL OUT =    91633202.0270             TOTAL OUT =       78505.9749

            IN - OUT =          -1.9409              IN - OUT =      -7.9361E-04

 PERCENT DISCREPANCY =          -0.00     PERCENT DISCREPANCY =          -0.00






         TIME SUMMARY AT END OF TIME STEP    1 IN STRESS PERIOD    9
                    SECONDS     MINUTES      HOURS       DAYS        YEARS
                    -----------------------------------------------------------
   TIME STEP LENGTH 7.94880E+06 1.32480E+05  2208.0      92.000     0.25188    
 STRESS PERIOD TIME 7.94880E+06 1.32480E+05  2208.0      92.000     0.25188    
         TOTAL TIME 7.10208E+07 1.18368E+06  19728.      822.00      2.2505    
1
1
                            STRESS PERIOD NO.   10, LENGTH =   91.00000    
                            -----------------------------------------------

                              NUMBER OF TIME STEPS =     1

                               MULTIPLIER FOR DELT =     1.500

                            INITIAL TIME STEP SIZE =   91.00000    

 WELL NO.  LAYER   ROW   COL   STRESS RATE         
 --------------------------------------------------
      1      1     19     29     -0.1179E+05
      2      1     10     29     -0.1333E+05
      3      1     20     21     -0.1335E+05
      4      1      8     12      -8823.    

      4 WELLS

                 RECHARGE =  2.000000E-03

 REUSING STREAM SEGMENT DATA FROM LAST STRESS PERIOD
 
 SOLVING FOR HEAD 


     7 CALLS TO PCG ROUTINE FOR TIME STEP   1 IN STRESS PERIOD   10
    26 TOTAL ITERATIONS

 OUTPUT CONTROL FOR STRESS PERIOD   10   TIME STEP    1
    SAVE BUDGET
    SAVE HEAD FOR ALL LAYERS
    PRINT HEAD FOR ALL LAYERS
 UBDSV2 SAVING "STREAMFLOW OUT  " ON UNIT  50 AT TIME STEP  1, STRESS PERIOD  10



 STREAM LISTING     PERIOD     10   STEP        1

 LAYER ROW COL. STREAM  RCH.  FLOW INTO     FLOW TO   FLOW OUT OF   OVRLND.     DIRECT     STREAM       STREAM     STREAM     STREAM   STREAMBED  STREAMBED
                SEG.NO.  NO.  STRM. RCH.    AQUIFER    STRM. RCH.    RUNOFF     PRECIP       ET          HEAD       DEPTH      WIDTH   CONDCTNC.   GRADIENT

   1   13    1     1     1    1.0000E+05 -1.8151E+03   1.0182E+05  0.000E+00  0.000E+00  0.000E+00  4.84068E+01  1.454E-01  2.000E+01  2.000E+04 -9.076E-02
   1   13    2     1     2    1.0182E+05 -2.7759E+03   1.0459E+05  0.000E+00  0.000E+00  0.000E+00  4.79315E+01  1.474E-01  2.000E+01  2.000E+04 -1.388E-01
   1   14    3     1     3    1.0459E+05 -5.5554E+02   1.0515E+05  0.000E+00  0.000E+00  0.000E+00  4.74557E+01  1.488E-01  2.000E+01  2.000E+04 -2.778E-02
   1   15    4     1     4    1.0515E+05 -5.4360E+02   1.0569E+05  0.000E+00  0.000E+00  0.000E+00  4.69789E+01  1.493E-01  2.000E+01  2.000E+04 -2.718E-02
   1   16    5     1     5    1.0569E+05 -1.9733E+03   1.0766E+05  0.000E+00  0.000E+00  0.000E+00  4.65026E+01  1.504E-01  2.000E+01  2.000E+04 -9.866E-02
   1   16    6     1     6    1.0766E+05 -1.2098E+03   1.0887E+05  0.000E+00  0.000E+00  0.000E+00  4.60267E+01  1.517E-01  2.000E+01  2.000E+04 -6.049E-02
   1   16    7     1     7    1.0887E+05 -1.1613E+03   1.1003E+05  0.000E+00  0.000E+00  0.000E+00  4.55504E+01  1.527E-01  2.000E+01  2.000E+04 -5.806E-02
   1   16    8     1     8    1.1003E+05 -1.1293E+03   1.1116E+05  0.000E+00  0.000E+00  0.000E+00  4.50741E+01  1.537E-01  2.000E+01  2.000E+04 -5.647E-02
   1   16    9     1     9    1.1116E+05 -1.0887E+03   1.1225E+05  0.000E+00  0.000E+00  0.000E+00  4.45978E+01  1.546E-01  2.000E+01  2.000E+04 -5.444E-02
   1   16   10     1    10    1.1225E+05 -1.0330E+03   1.1329E+05  0.000E+00  0.000E+00  0.000E+00  4.41214E+01  1.555E-01  2.000E+01  2.000E+04 -5.165E-02
   1   16   11     1    11    1.1329E+05 -9.6383E+02   1.1425E+05  0.000E+00  0.000E+00  0.000E+00  4.36449E+01  1.563E-01  2.000E+01  2.000E+04 -4.819E-02
   1   16   12     1    12    1.1425E+05 -1.3402E+03   1.1559E+05  0.000E+00  0.000E+00  0.000E+00  4.31686E+01  1.572E-01  2.000E+01  2.000E+04 -6.701E-02
   1   15   13     1    13    1.1559E+05 -1.0848E+03   1.1667E+05  0.000E+00  0.000E+00  0.000E+00  4.26923E+01  1.582E-01  2.000E+01  2.000E+04 -5.424E-02
   1   14   14     1    14    1.1667E+05 -1.1728E+03   1.1785E+05  0.000E+00  0.000E+00  0.000E+00  4.22160E+01  1.592E-01  2.000E+01  2.000E+04 -5.864E-02
   1   13   15     1    15    1.1785E+05 -1.3732E+03   1.1922E+05  0.000E+00  0.000E+00  0.000E+00  4.17397E+01  1.602E-01  2.000E+01  2.000E+04 -6.866E-02
   1   12   16     1    16    1.1922E+05 -1.9893E+03   1.2121E+05  0.000E+00  0.000E+00  0.000E+00  4.12638E+01  1.615E-01  2.000E+01  2.000E+04 -9.947E-02
   1   12   17     1    17    1.2121E+05 -1.4461E+03   1.2266E+05  0.000E+00  0.000E+00  0.000E+00  4.07879E+01  1.629E-01  2.000E+01  2.000E+04 -7.230E-02
   1   12   18     1    18    1.2266E+05 -1.4639E+03   1.2412E+05  0.000E+00  0.000E+00  0.000E+00  4.03118E+01  1.641E-01  2.000E+01  2.000E+04 -7.319E-02
   1   12   19     1    19    1.2412E+05 -2.1347E+03   1.2625E+05  0.000E+00  0.000E+00  0.000E+00  3.98360E+01  1.655E-01  2.000E+01  2.000E+04 -1.067E-01
   1   13   20     1    20    1.2625E+05 -1.2958E+03   1.2755E+05  0.000E+00  0.000E+00  0.000E+00  3.93601E+01  1.669E-01  2.000E+01  2.000E+04 -6.479E-02
   1   14   21     1    21    1.2755E+05 -3.2905E+02   1.2788E+05  0.000E+00  0.000E+00  0.000E+00  3.88834E+01  1.675E-01  2.000E+01  2.000E+04 -1.645E-02
   1   14   22     1    22    1.2788E+05  5.2352E+03   1.2264E+05  0.000E+00  0.000E+00  0.000E+00  3.84042E+01  1.656E-01  2.000E+01  2.000E+04  2.618E-01
   1    9   30     2     1    5.0000E+04  1.6704E+03   4.8330E+04  0.000E+00  0.000E+00  0.000E+00  4.02397E+01  1.147E-01  2.000E+01  2.000E+04  8.352E-02
   1    9   29     2     2    4.8330E+04  3.7045E+03   4.4625E+04  0.000E+00  0.000E+00  0.000E+00  3.99859E+01  1.109E-01  2.000E+01  2.000E+04  1.852E-01
   1    9   28     2     3    4.4625E+04  5.0456E+02   4.4121E+04  0.000E+00  0.000E+00  0.000E+00  3.97329E+01  1.079E-01  2.000E+01  2.000E+04  2.523E-02
   1    9   27     2     4    4.4121E+04 -1.9636E+03   4.6084E+04  0.000E+00  0.000E+00  0.000E+00  3.94839E+01  1.089E-01  2.000E+01  2.000E+04 -9.818E-02
   1   10   26     2     5    4.6084E+04 -8.7610E+02   4.6960E+04  0.000E+00  0.000E+00  0.000E+00  3.92360E+01  1.110E-01  2.000E+01  2.000E+04 -4.381E-02
   1   11   25     2     6    4.6960E+04 -1.1876E+03   4.8148E+04  0.000E+00  0.000E+00  0.000E+00  3.89874E+01  1.124E-01  2.000E+01  2.000E+04 -5.938E-02
   1   12   24     2     7    4.8148E+04 -1.5739E+03   4.9722E+04  0.000E+00  0.000E+00  0.000E+00  3.87394E+01  1.144E-01  2.000E+01  2.000E+04 -7.869E-02
   1   13   23     2     8    4.9722E+04 -3.4169E+02   5.0064E+04  0.000E+00  0.000E+00  0.000E+00  3.84907E+01  1.157E-01  2.000E+01  2.000E+04 -1.708E-02
   1   14   22     2     9    5.0064E+04  1.9428E+03   4.8121E+04  0.000E+00  0.000E+00  0.000E+00  3.82396E+01  1.146E-01  2.000E+01  2.000E+04  9.714E-02
   1   14   22     3     1    1.7076E+05 -8.3800E+03   1.7914E+05  0.000E+00  0.000E+00  0.000E+00  3.77235E+01  1.679E-01  2.000E+01  2.000E+04 -4.190E-01
   1   15   23     3     2    1.7914E+05 -2.6051E+02   1.7941E+05  0.000E+00  0.000E+00  0.000E+00  3.68370E+01  1.704E-01  2.000E+01  2.000E+04 -1.303E-02
   1   15   24     3     3    1.7941E+05 -2.2793E+02   1.7963E+05  0.000E+00  0.000E+00  0.000E+00  3.59483E+01  1.705E-01  2.000E+01  2.000E+04 -1.140E-02
   1   15   25     3     4    1.7963E+05 -2.4787E+02   1.7988E+05  0.000E+00  0.000E+00  0.000E+00  3.50595E+01  1.707E-01  2.000E+01  2.000E+04 -1.239E-02
   1   15   26     3     5    1.7988E+05 -2.9780E+02   1.8018E+05  0.000E+00  0.000E+00  0.000E+00  3.41708E+01  1.708E-01  2.000E+01  2.000E+04 -1.489E-02
   1   16   27     3     6    1.8018E+05 -2.2773E+02   1.8041E+05  0.000E+00  0.000E+00  0.000E+00  3.32821E+01  1.710E-01  2.000E+01  2.000E+04 -1.139E-02
   1   17   28     3     7    1.8041E+05  1.9478E+02   1.8021E+05  0.000E+00  0.000E+00  0.000E+00  3.23932E+01  1.710E-01  2.000E+01  2.000E+04  9.739E-03
   1   18   29     3     8    1.8021E+05  3.8866E+03   1.7633E+05  0.000E+00  0.000E+00  0.000E+00  3.15031E+01  1.698E-01  2.000E+01  2.000E+04  1.943E-01
   1   18   30     3     9    1.7633E+05  1.8935E+02   1.7614E+05  0.000E+00  0.000E+00  0.000E+00  3.06131E+01  1.686E-01  2.000E+01  2.000E+04  9.467E-03



1
              HEAD IN LAYER   1 AT END OF TIME STEP   1 IN STRESS PERIOD   10
  ---------------------------------------------------------------------------

          1      2      3      4      5      6      7      8      9     10
         11     12     13     14     15     16     17     18     19     20
         21     22     23     24     25     26     27     28     29     30
 .........................................................................
   1  ****** ****** ****** ****** ****** ****** ****** ****** ****** ******
      ****** ****** ****** ****** ****** ****** ****** ****** ****** ******
      ****** ****** ****** ****** ****** ****** ****** ****** ****** ******
   2  ****** ****** ****** ****** ****** ****** ****** ****** ****** ******
      ****** ****** ****** ****** ****** ****** ****** ****** ****** ******
      ****** ****** ****** ****** ****** ****** ****** ****** ****** ******
   3  ****** ****** ****** ****** ****** ****** ****** ****** ****** ******
      ****** ****** ****** ****** ****** ****** ****** ****** ****** ******
      ****** ****** ****** ****** ****** ****** ****** ****** ****** ******
   4  ****** ****** ****** ****** ****** ****** ****** ****** ****** ******
      ****** ****** ****** ****** ****** ****** ****** ****** ****** ******
      ****** ****** ****** ****** ****** ****** ****** ****** ****** ******
   5  ****** ****** ****** ****** ****** ****** ****** ****** ****** ******
      ****** ****** ****** ****** ****** ****** ****** ****** ****** ******
      ****** ****** ****** ****** ****** ****** ****** ****** ****** ******
   6  ****** ****** ****** ****** ****** ****** ****** ****** ****** ******
      ****** ****** ****** ****** ****** ****** ****** ****** ****** ******
      ****** ****** ****** ****** ****** ****** ****** ****** ****** ******
   7  ****** ****** ****** ****** ****** ****** ****** ****** ****** ******
      ****** ****** ****** ****** ****** ****** ****** ****** ****** ******
      ****** ****** ****** ****** ****** ****** ****** ****** ****** ******
   8  ****** ****** ****** ****** ****** ****** ****** ****** ****** ******
      ****** ****** ****** ****** ****** ****** ****** ****** ****** ******
      ****** ****** ****** ****** ****** ****** ****** ****** ****** ******
   9  ****** ****** ****** ****** ****** ****** ****** ****** ****** ******
      ****** ****** ****** ****** ****** ****** ****** ****** ****** ******
      ****** ****** ****** ****** ****** ****** ****** ****** ****** ******
  10  ****** ****** ****** ****** ****** ****** ****** ****** ****** ******
      ****** ****** ****** ****** ****** ****** ****** ****** ****** ******
      ****** ****** ****** ****** ****** ****** ****** ****** ****** ******
  11  ****** ****** ****** ****** ****** ****** ****** ****** ****** ******
      ****** ****** ****** ****** ****** ****** ****** ****** ****** ******
      ****** ****** ****** ****** ****** ****** ****** ****** ****** ******
  12  ****** ****** ****** ****** ****** ****** ****** ****** ****** ******
      ****** ****** ****** ****** ****** ****** ****** ****** ****** ******
      ****** ****** ****** ****** ****** ****** ****** ****** ****** ******
  13  ****** ****** ****** ****** ****** ****** ****** ****** ****** ******
      ****** ****** ****** ****** ****** ****** ****** ****** ****** ******
      ****** ****** ****** ****** ****** ****** ****** ****** ****** ******
  14  ****** ****** ****** ****** ****** ****** ****** ****** ****** ******
      ****** ****** ****** ****** ****** ****** ****** ****** ****** ******
      ****** ****** ****** ****** ****** ****** ****** ****** ****** ******
  15  ****** ****** ****** ****** ****** ****** ****** ****** ****** ******
      ****** ****** ****** ****** ****** ****** ****** ****** ****** ******
      ****** ****** ****** ****** ****** ****** ****** ****** ****** ******
  16  ****** ****** ****** ****** ****** ****** ****** ****** ****** ******
      ****** ****** ****** ****** ****** ****** ****** ****** ****** ******
      ****** ****** ****** ****** ****** ****** ****** ****** ****** ******
  17  ****** ****** ****** ****** ****** ****** ****** ****** ****** ******
      ****** ****** ****** ****** ****** ****** ****** ****** ****** ******
      ****** ****** ****** ****** ****** ****** ****** ****** ****** ******
  18  ****** ****** ****** ****** ****** ****** ****** ****** ****** ******
      ****** ****** ****** ****** ****** ****** ****** ****** ****** ******
      ****** ****** ****** ****** ****** ****** ****** ****** ****** ******
  19  ****** ****** ****** ****** ****** ****** ****** ****** ****** ******
      ****** ****** ****** ****** ****** ****** ****** ****** ****** ******
      ****** ****** ****** ****** ****** ****** ****** ****** ****** ******
  20  ****** ****** ****** ****** ****** ****** ****** ****** ****** ******
      ****** ****** ****** ****** ****** ****** ****** ****** ****** ******
      ****** ****** ****** ****** ****** ****** ****** ****** ****** ******
  21  ****** ****** ****** ****** ****** ****** ****** ****** ****** ******
      ****** ****** ****** ****** ****** ****** ****** ****** ****** ******
      ****** ****** ****** ****** ****** ****** ****** ****** ****** ******
  22  ****** ****** ****** ****** ****** ****** ****** ****** ****** ******
      ****** ****** ****** ****** ****** ****** ****** ****** ****** ******
      ****** ****** ****** ****** ****** ****** ****** ****** ****** ******
  23  ****** ****** ****** ****** ****** ****** ****** ****** ****** ******
      ****** ****** ****** ****** ****** ****** ****** ****** ****** ******
      ****** ****** ****** ****** ****** ****** ****** ****** ****** ******
  24  ****** ****** ****** ****** ****** ****** ****** ****** ****** ******
      ****** ****** ****** ****** ****** ****** ****** ****** ****** ******
      ****** ****** ****** ****** ****** ****** ****** ****** ****** ******
  25  ****** ****** ****** ****** ****** ****** ****** ****** ****** ******
      ****** ****** ****** ****** ****** ****** ****** ****** ****** ******
      ****** ****** ****** ****** ****** ****** ****** ****** ****** ******

 HEAD WILL BE SAVED ON UNIT   51 AT END OF TIME STEP    1, STRESS PERIOD   10
1
  VOLUMETRIC BUDGET FOR ENTIRE MODEL AT END OF TIME STEP    1, STRESS PERIOD  10
  ------------------------------------------------------------------------------

     CUMULATIVE VOLUMES      L**3       RATES FOR THIS TIME STEP      L**3/T
     ------------------                 ------------------------

           IN:                                      IN:
           ---                                      ---
             STORAGE =    35661330.8755               STORAGE =           0.0000
       CONSTANT HEAD =    27016912.4810         CONSTANT HEAD =       33739.1132
               WELLS =           0.0000                 WELLS =           0.0000
            RECHARGE =    23901600.0000              RECHARGE =       55200.0000
      STREAM LEAKAGE =    14723676.3361        STREAM LEAKAGE =       17328.1353

            TOTAL IN =   101303519.6927              TOTAL IN =      106267.2484

          OUT:                                     OUT:
          ----                                     ----
             STORAGE =     2252981.7991               STORAGE =       15507.5682
       CONSTANT HEAD =           0.0000         CONSTANT HEAD =           0.0000
               WELLS =    43181000.7997                 WELLS =       47295.7292
            RECHARGE =           0.0000              RECHARGE =           0.0000
      STREAM LEAKAGE =    55869538.6895        STREAM LEAKAGE =       43463.9472

           TOTAL OUT =   101303521.2883             TOTAL OUT =      106267.2446

            IN - OUT =          -1.5956              IN - OUT =       3.7937E-03

 PERCENT DISCREPANCY =          -0.00     PERCENT DISCREPANCY =           0.00






         TIME SUMMARY AT END OF TIME STEP    1 IN STRESS PERIOD   10
                    SECONDS     MINUTES      HOURS       DAYS        YEARS
                    -----------------------------------------------------------
   TIME STEP LENGTH 7.86240E+06 1.31040E+05  2184.0      91.000     0.24914    
 STRESS PERIOD TIME 7.86240E+06 1.31040E+05  2184.0      91.000     0.24914    
         TOTAL TIME 7.88832E+07 1.31472E+06  21912.      913.00      2.4997    
1
1
                            STRESS PERIOD NO.   11, LENGTH =   91.00000    
                            -----------------------------------------------

                              NUMBER OF TIME STEPS =     1

                               MULTIPLIER FOR DELT =     1.500

                            INITIAL TIME STEP SIZE =   91.00000    

 WELL NO.  LAYER   ROW   COL   STRESS RATE         
 --------------------------------------------------
      1      1     19     29     -0.1179E+05
      2      1     10     29     -0.1333E+05
      3      1     20     21     -0.1335E+05
      4      1      8     12      -8823.    

      4 WELLS

                 RECHARGE =   0.00000    

 REUSING STREAM SEGMENT DATA FROM LAST STRESS PERIOD
 
 SOLVING FOR HEAD 


     7 CALLS TO PCG ROUTINE FOR TIME STEP   1 IN STRESS PERIOD   11
    26 TOTAL ITERATIONS

 OUTPUT CONTROL FOR STRESS PERIOD   11   TIME STEP    1
    SAVE BUDGET
    SAVE HEAD FOR ALL LAYERS
    PRINT HEAD FOR ALL LAYERS
 UBDSV2 SAVING "STREAMFLOW OUT  " ON UNIT  50 AT TIME STEP  1, STRESS PERIOD  11



 STREAM LISTING     PERIOD     11   STEP        1

 LAYER ROW COL. STREAM  RCH.  FLOW INTO     FLOW TO   FLOW OUT OF   OVRLND.     DIRECT     STREAM       STREAM     STREAM     STREAM   STREAMBED  STREAMBED
                SEG.NO.  NO.  STRM. RCH.    AQUIFER    STRM. RCH.    RUNOFF     PRECIP       ET          HEAD       DEPTH      WIDTH   CONDCTNC.   GRADIENT

   1   13    1     1     1    1.0000E+05 -1.2436E+03   1.0124E+05  0.000E+00  0.000E+00  0.000E+00  4.84066E+01  1.452E-01  2.000E+01  2.000E+04 -6.218E-02
   1   13    2     1     2    1.0124E+05 -2.1392E+03   1.0338E+05  0.000E+00  0.000E+00  0.000E+00  4.79307E+01  1.467E-01  2.000E+01  2.000E+04 -1.070E-01
   1   14    3     1     3    1.0338E+05 -3.2390E+02   1.0371E+05  0.000E+00  0.000E+00  0.000E+00  4.74545E+01  1.477E-01  2.000E+01  2.000E+04 -1.620E-02
   1   15    4     1     4    1.0371E+05 -3.0107E+02   1.0401E+05  0.000E+00  0.000E+00  0.000E+00  4.69775E+01  1.480E-01  2.000E+01  2.000E+04 -1.505E-02
   1   16    5     1     5    1.0401E+05 -1.2846E+03   1.0529E+05  0.000E+00  0.000E+00  0.000E+00  4.65009E+01  1.487E-01  2.000E+01  2.000E+04 -6.423E-02
   1   16    6     1     6    1.0529E+05 -7.9476E+02   1.0609E+05  0.000E+00  0.000E+00  0.000E+00  4.60245E+01  1.495E-01  2.000E+01  2.000E+04 -3.974E-02
   1   16    7     1     7    1.0609E+05 -7.6376E+02   1.0685E+05  0.000E+00  0.000E+00  0.000E+00  4.55479E+01  1.502E-01  2.000E+01  2.000E+04 -3.819E-02
   1   16    8     1     8    1.0685E+05 -7.3732E+02   1.0759E+05  0.000E+00  0.000E+00  0.000E+00  4.50713E+01  1.508E-01  2.000E+01  2.000E+04 -3.687E-02
   1   16    9     1     9    1.0759E+05 -6.9897E+02   1.0829E+05  0.000E+00  0.000E+00  0.000E+00  4.45946E+01  1.514E-01  2.000E+01  2.000E+04 -3.495E-02
   1   16   10     1    10    1.0829E+05 -6.4441E+02   1.0893E+05  0.000E+00  0.000E+00  0.000E+00  4.41179E+01  1.520E-01  2.000E+01  2.000E+04 -3.222E-02
   1   16   11     1    11    1.0893E+05 -5.7347E+02   1.0951E+05  0.000E+00  0.000E+00  0.000E+00  4.36411E+01  1.525E-01  2.000E+01  2.000E+04 -2.867E-02
   1   16   12     1    12    1.0951E+05 -6.9304E+02   1.1020E+05  0.000E+00  0.000E+00  0.000E+00  4.31644E+01  1.530E-01  2.000E+01  2.000E+04 -3.465E-02
   1   15   13     1    13    1.1020E+05 -3.9417E+02   1.1059E+05  0.000E+00  0.000E+00  0.000E+00  4.26876E+01  1.535E-01  2.000E+01  2.000E+04 -1.971E-02
   1   14   14     1    14    1.1059E+05 -4.6410E+02   1.1106E+05  0.000E+00  0.000E+00  0.000E+00  4.22107E+01  1.539E-01  2.000E+01  2.000E+04 -2.321E-02
   1   13   15     1    15    1.1106E+05 -6.6986E+02   1.1173E+05  0.000E+00  0.000E+00  0.000E+00  4.17339E+01  1.543E-01  2.000E+01  2.000E+04 -3.349E-02
   1   12   16     1    16    1.1173E+05 -1.3090E+03   1.1304E+05  0.000E+00  0.000E+00  0.000E+00  4.12574E+01  1.551E-01  2.000E+01  2.000E+04 -6.545E-02
   1   12   17     1    17    1.1304E+05 -9.3770E+02   1.1397E+05  0.000E+00  0.000E+00  0.000E+00  4.07811E+01  1.561E-01  2.000E+01  2.000E+04 -4.688E-02
   1   12   18     1    18    1.1397E+05 -9.6348E+02   1.1494E+05  0.000E+00  0.000E+00  0.000E+00  4.03046E+01  1.569E-01  2.000E+01  2.000E+04 -4.817E-02
   1   12   19     1    19    1.1494E+05 -1.5205E+03   1.1646E+05  0.000E+00  0.000E+00  0.000E+00  3.98283E+01  1.579E-01  2.000E+01  2.000E+04 -7.603E-02
   1   13   20     1    20    1.1646E+05 -6.8231E+02   1.1714E+05  0.000E+00  0.000E+00  0.000E+00  3.93520E+01  1.588E-01  2.000E+01  2.000E+04 -3.412E-02
   1   14   21     1    21    1.1714E+05  2.6930E+02   1.1687E+05  0.000E+00  0.000E+00  0.000E+00  3.88749E+01  1.589E-01  2.000E+01  2.000E+04  1.346E-02
   1   14   22     1    22    1.1687E+05  5.3852E+03   1.1148E+05  0.000E+00  0.000E+00  0.000E+00  3.83953E+01  1.566E-01  2.000E+01  2.000E+04  2.693E-01
   1    9   30     2     1    5.0000E+04  2.1586E+03   4.7841E+04  0.000E+00  0.000E+00  0.000E+00  4.02394E+01  1.144E-01  2.000E+01  2.000E+04  1.079E-01
   1    9   29     2     2    4.7841E+04  4.1897E+03   4.3652E+04  0.000E+00  0.000E+00  0.000E+00  3.99848E+01  1.098E-01  2.000E+01  2.000E+04  2.095E-01
   1    9   28     2     3    4.3652E+04  9.8760E+02   4.2664E+04  0.000E+00  0.000E+00  0.000E+00  3.97311E+01  1.061E-01  2.000E+01  2.000E+04  4.938E-02
   1    9   27     2     4    4.2664E+04 -1.3233E+03   4.3987E+04  0.000E+00  0.000E+00  0.000E+00  3.94813E+01  1.063E-01  2.000E+01  2.000E+04 -6.617E-02
   1   10   26     2     5    4.3987E+04 -2.2152E+02   4.4209E+04  0.000E+00  0.000E+00  0.000E+00  3.92325E+01  1.075E-01  2.000E+01  2.000E+04 -1.108E-02
   1   11   25     2     6    4.4209E+04 -5.5691E+02   4.4766E+04  0.000E+00  0.000E+00  0.000E+00  3.89830E+01  1.080E-01  2.000E+01  2.000E+04 -2.785E-02
   1   12   24     2     7    4.4766E+04 -1.0002E+03   4.5766E+04  0.000E+00  0.000E+00  0.000E+00  3.87342E+01  1.092E-01  2.000E+01  2.000E+04 -5.001E-02
   1   13   23     2     8    4.5766E+04 -1.5580E+02   4.5922E+04  0.000E+00  0.000E+00  0.000E+00  3.84850E+01  1.100E-01  2.000E+01  2.000E+04 -7.790E-03
   1   14   22     2     9    4.5922E+04  2.1508E+03   4.3771E+04  0.000E+00  0.000E+00  0.000E+00  3.82335E+01  1.085E-01  2.000E+01  2.000E+04  1.075E-01
   1   14   22     3     1    1.5526E+05 -8.2337E+03   1.6349E+05  0.000E+00  0.000E+00  0.000E+00  3.77143E+01  1.588E-01  2.000E+01  2.000E+04 -4.117E-01
   1   15   23     3     2    1.6349E+05 -6.8166E+01   1.6356E+05  0.000E+00  0.000E+00  0.000E+00  3.68279E+01  1.612E-01  2.000E+01  2.000E+04 -3.408E-03
   1   15   24     3     3    1.6356E+05 -6.2620E+01   1.6362E+05  0.000E+00  0.000E+00  0.000E+00  3.59390E+01  1.613E-01  2.000E+01  2.000E+04 -3.131E-03
   1   15   25     3     4    1.6362E+05 -7.8753E+01   1.6370E+05  0.000E+00  0.000E+00  0.000E+00  3.50502E+01  1.613E-01  2.000E+01  2.000E+04 -3.938E-03
   1   15   26     3     5    1.6370E+05 -1.0201E+02   1.6380E+05  0.000E+00  0.000E+00  0.000E+00  3.41614E+01  1.614E-01  2.000E+01  2.000E+04 -5.100E-03
   1   16   27     3     6    1.6380E+05 -4.5195E+00   1.6381E+05  0.000E+00  0.000E+00  0.000E+00  3.32725E+01  1.614E-01  2.000E+01  2.000E+04 -2.260E-04
   1   17   28     3     7    1.6381E+05  8.0523E+02   1.6300E+05  0.000E+00  0.000E+00  0.000E+00  3.23834E+01  1.612E-01  2.000E+01  2.000E+04  4.026E-02
   1   18   29     3     8    1.6300E+05  4.5099E+03   1.5849E+05  0.000E+00  0.000E+00  0.000E+00  3.14929E+01  1.596E-01  2.000E+01  2.000E+04  2.255E-01
   1   18   30     3     9    1.5849E+05  6.7925E+02   1.5781E+05  0.000E+00  0.000E+00  0.000E+00  3.06025E+01  1.580E-01  2.000E+01  2.000E+04  3.396E-02



1
              HEAD IN LAYER   1 AT END OF TIME STEP   1 IN STRESS PERIOD   11
  ---------------------------------------------------------------------------

          1      2      3      4      5      6      7      8      9     10
         11     12     13     14     15     16     17     18     19     20
         21     22     23     24     25     26     27     28     29     30
 .........................................................................
   1  ****** ****** ****** ****** ****** ****** ****** ****** ****** ******
      ****** ****** ****** ****** ****** ****** ****** ****** ****** ******
      ****** ****** ****** ****** ****** ****** ****** ****** ****** ******
   2  ****** ****** ****** ****** ****** ****** ****** ****** ****** ******
      ****** ****** ****** ****** ****** ****** ****** ****** ****** ******
      ****** ****** ****** ****** ****** ****** ****** ****** ****** ******
   3  ****** ****** ****** ****** ****** ****** ****** ****** ****** ******
      ****** ****** ****** ****** ****** ****** ****** ****** ****** ******
      ****** ****** ****** ****** ****** ****** ****** ****** ****** ******
   4  ****** ****** ****** ****** ****** ****** ****** ****** ****** ******
      ****** ****** ****** ****** ****** ****** ****** ****** ****** ******
      ****** ****** ****** ****** ****** ****** ****** ****** ****** ******
   5  ****** ****** ****** ****** ****** ****** ****** ****** ****** ******
      ****** ****** ****** ****** ****** ****** ****** ****** ****** ******
      ****** ****** ****** ****** ****** ****** ****** ****** ****** ******
   6  ****** ****** ****** ****** ****** ****** ****** ****** ****** ******
      ****** ****** ****** ****** ****** ****** ****** ****** ****** ******
      ****** ****** ****** ****** ****** ****** ****** ****** ****** ******
   7  ****** ****** ****** ****** ****** ****** ****** ****** ****** ******
      ****** ****** ****** ****** ****** ****** ****** ****** ****** ******
      ****** ****** ****** ****** ****** ****** ****** ****** ****** ******
   8  ****** ****** ****** ****** ****** ****** ****** ****** ****** ******
      ****** ****** ****** ****** ****** ****** ****** ****** ****** ******
      ****** ****** ****** ****** ****** ****** ****** ****** ****** ******
   9  ****** ****** ****** ****** ****** ****** ****** ****** ****** ******
      ****** ****** ****** ****** ****** ****** ****** ****** ****** ******
      ****** ****** ****** ****** ****** ****** ****** ****** ****** ******
  10  ****** ****** ****** ****** ****** ****** ****** ****** ****** ******
      ****** ****** ****** ****** ****** ****** ****** ****** ****** ******
      ****** ****** ****** ****** ****** ****** ****** ****** ****** ******
  11  ****** ****** ****** ****** ****** ****** ****** ****** ****** ******
      ****** ****** ****** ****** ****** ****** ****** ****** ****** ******
      ****** ****** ****** ****** ****** ****** ****** ****** ****** ******
  12  ****** ****** ****** ****** ****** ****** ****** ****** ****** ******
      ****** ****** ****** ****** ****** ****** ****** ****** ****** ******
      ****** ****** ****** ****** ****** ****** ****** ****** ****** ******
  13  ****** ****** ****** ****** ****** ****** ****** ****** ****** ******
      ****** ****** ****** ****** ****** ****** ****** ****** ****** ******
      ****** ****** ****** ****** ****** ****** ****** ****** ****** ******
  14  ****** ****** ****** ****** ****** ****** ****** ****** ****** ******
      ****** ****** ****** ****** ****** ****** ****** ****** ****** ******
      ****** ****** ****** ****** ****** ****** ****** ****** ****** ******
  15  ****** ****** ****** ****** ****** ****** ****** ****** ****** ******
      ****** ****** ****** ****** ****** ****** ****** ****** ****** ******
      ****** ****** ****** ****** ****** ****** ****** ****** ****** ******
  16  ****** ****** ****** ****** ****** ****** ****** ****** ****** ******
      ****** ****** ****** ****** ****** ****** ****** ****** ****** ******
      ****** ****** ****** ****** ****** ****** ****** ****** ****** ******
  17  ****** ****** ****** ****** ****** ****** ****** ****** ****** ******
      ****** ****** ****** ****** ****** ****** ****** ****** ****** ******
      ****** ****** ****** ****** ****** ****** ****** ****** ****** ******
  18  ****** ****** ****** ****** ****** ****** ****** ****** ****** ******
      ****** ****** ****** ****** ****** ****** ****** ****** ****** ******
      ****** ****** ****** ****** ****** ****** ****** ****** ****** ******
  19  ****** ****** ****** ****** ****** ****** ****** ****** ****** ******
      ****** ****** ****** ****** ****** ****** ****** ****** ****** ******
      ****** ****** ****** ****** ****** ****** ****** ****** ****** ******
  20  ****** ****** ****** ****** ****** ****** ****** ****** ****** ******
      ****** ****** ****** ****** ****** ****** ****** ****** ****** ******
      ****** ****** ****** ****** ****** ****** ****** ****** ****** ******
  21  ****** ****** ****** ****** ****** ****** ****** ****** ****** ******
      ****** ****** ****** ****** ****** ****** ****** ****** ****** ******
      ****** ****** ****** ****** ****** ****** ****** ****** ****** ******
  22  ****** ****** ****** ****** ****** ****** ****** ****** ****** ******
      ****** ****** ****** ****** ****** ****** ****** ****** ****** ******
      ****** ****** ****** ****** ****** ****** ****** ****** ****** ******
  23  ****** ****** ****** ****** ****** ****** ****** ****** ****** ******
      ****** ****** ****** ****** ****** ****** ****** ****** ****** ******
      ****** ****** ****** ****** ****** ****** ****** ****** ****** ******
  24  ****** ****** ****** ****** ****** ****** ****** ****** ****** ******
      ****** ****** ****** ****** ****** ****** ****** ****** ****** ******
      ****** ****** ****** ****** ****** ****** ****** ****** ****** ******
  25  ****** ****** ****** ****** ****** ****** ****** ****** ****** ******
      ****** ****** ****** ****** ****** ****** ****** ****** ****** ******
      ****** ****** ****** ****** ****** ****** ****** ****** ****** ******

 HEAD WILL BE SAVED ON UNIT   51 AT END OF TIME STEP    1, STRESS PERIOD   11
1
  VOLUMETRIC BUDGET FOR ENTIRE MODEL AT END OF TIME STEP    1, STRESS PERIOD  11
  ------------------------------------------------------------------------------

     CUMULATIVE VOLUMES      L**3       RATES FOR THIS TIME STEP      L**3/T
     ------------------                 ------------------------

           IN:                                      IN:
           ---                                      ---
             STORAGE =    37305380.9880               STORAGE =       18066.4848
       CONSTANT HEAD =    30387587.2907         CONSTANT HEAD =       37040.3825
               WELLS =           0.0000                 WELLS =           0.0000
            RECHARGE =    23901600.0000              RECHARGE =           0.0000
      STREAM LEAKAGE =    16647020.7482        STREAM LEAKAGE =       21135.6529

            TOTAL IN =   108241589.0270              TOTAL IN =       76242.5202

          OUT:                                     OUT:
          ----                                     ----
             STORAGE =     2252981.7991               STORAGE =           0.0000
       CONSTANT HEAD =           0.0000         CONSTANT HEAD =           0.0000
               WELLS =    47484912.1609                 WELLS =       47295.7292
            RECHARGE =           0.0000              RECHARGE =           0.0000
      STREAM LEAKAGE =    58503697.1073        STREAM LEAKAGE =       28946.7958

           TOTAL OUT =   108241591.0673             TOTAL OUT =       76242.5250

            IN - OUT =          -2.0403              IN - OUT =      -4.8863E-03

 PERCENT DISCREPANCY =          -0.00     PERCENT DISCREPANCY =          -0.00






         TIME SUMMARY AT END OF TIME STEP    1 IN STRESS PERIOD   11
                    SECONDS     MINUTES      HOURS       DAYS        YEARS
                    -----------------------------------------------------------
   TIME STEP LENGTH 7.86240E+06 1.31040E+05  2184.0      91.000     0.24914    
 STRESS PERIOD TIME 7.86240E+06 1.31040E+05  2184.0      91.000     0.24914    
         TOTAL TIME 8.67456E+07 1.44576E+06  24096.      1004.0      2.7488    
1
1
                            STRESS PERIOD NO.   12, LENGTH =   91.00000    
                            -----------------------------------------------

                              NUMBER OF TIME STEPS =     1

                               MULTIPLIER FOR DELT =     1.500

                            INITIAL TIME STEP SIZE =   91.00000    

 WELL NO.  LAYER   ROW   COL   STRESS RATE         
 --------------------------------------------------
      1      1     19     29     -0.1179E+05
      2      1     10     29     -0.1333E+05
      3      1     20     21     -0.1335E+05
      4      1      8     12      -8823.    

      4 WELLS

                 RECHARGE =  1.000000E-03

 REUSING STREAM SEGMENT DATA FROM LAST STRESS PERIOD
 
 SOLVING FOR HEAD 


     7 CALLS TO PCG ROUTINE FOR TIME STEP   1 IN STRESS PERIOD   12
    24 TOTAL ITERATIONS

 OUTPUT CONTROL FOR STRESS PERIOD   12   TIME STEP    1
    SAVE BUDGET
    SAVE HEAD FOR ALL LAYERS
    PRINT HEAD FOR ALL LAYERS
 UBDSV2 SAVING "STREAMFLOW OUT  " ON UNIT  50 AT TIME STEP  1, STRESS PERIOD  12



 STREAM LISTING     PERIOD     12   STEP        1

 LAYER ROW COL. STREAM  RCH.  FLOW INTO     FLOW TO   FLOW OUT OF   OVRLND.     DIRECT     STREAM       STREAM     STREAM     STREAM   STREAMBED  STREAMBED
                SEG.NO.  NO.  STRM. RCH.    AQUIFER    STRM. RCH.    RUNOFF     PRECIP       ET          HEAD       DEPTH      WIDTH   CONDCTNC.   GRADIENT

   1   13    1     1     1    1.0000E+05 -1.3850E+03   1.0139E+05  0.000E+00  0.000E+00  0.000E+00  4.84066E+01  1.453E-01  2.000E+01  2.000E+04 -6.925E-02
   1   13    2     1     2    1.0139E+05 -2.2910E+03   1.0368E+05  0.000E+00  0.000E+00  0.000E+00  4.79309E+01  1.468E-01  2.000E+01  2.000E+04 -1.145E-01
   1   14    3     1     3    1.0368E+05 -4.0191E+02   1.0408E+05  0.000E+00  0.000E+00  0.000E+00  4.74548E+01  1.480E-01  2.000E+01  2.000E+04 -2.010E-02
   1   15    4     1     4    1.0408E+05 -3.8297E+02   1.0446E+05  0.000E+00  0.000E+00  0.000E+00  4.69779E+01  1.483E-01  2.000E+01  2.000E+04 -1.915E-02
   1   16    5     1     5    1.0446E+05 -1.4939E+03   1.0595E+05  0.000E+00  0.000E+00  0.000E+00  4.65014E+01  1.491E-01  2.000E+01  2.000E+04 -7.469E-02
   1   16    6     1     6    1.0595E+05 -9.2469E+02   1.0688E+05  0.000E+00  0.000E+00  0.000E+00  4.60252E+01  1.502E-01  2.000E+01  2.000E+04 -4.623E-02
   1   16    7     1     7    1.0688E+05 -8.8857E+02   1.0777E+05  0.000E+00  0.000E+00  0.000E+00  4.55486E+01  1.509E-01  2.000E+01  2.000E+04 -4.443E-02
   1   16    8     1     8    1.0777E+05 -8.6108E+02   1.0863E+05  0.000E+00  0.000E+00  0.000E+00  4.50721E+01  1.517E-01  2.000E+01  2.000E+04 -4.305E-02
   1   16    9     1     9    1.0863E+05 -8.2319E+02   1.0945E+05  0.000E+00  0.000E+00  0.000E+00  4.45955E+01  1.524E-01  2.000E+01  2.000E+04 -4.116E-02
   1   16   10     1    10    1.0945E+05 -7.7001E+02   1.1022E+05  0.000E+00  0.000E+00  0.000E+00  4.41189E+01  1.530E-01  2.000E+01  2.000E+04 -3.850E-02
   1   16   11     1    11    1.1022E+05 -7.0135E+02   1.1092E+05  0.000E+00  0.000E+00  0.000E+00  4.36423E+01  1.536E-01  2.000E+01  2.000E+04 -3.507E-02
   1   16   12     1    12    1.1092E+05 -8.9382E+02   1.1182E+05  0.000E+00  0.000E+00  0.000E+00  4.31657E+01  1.543E-01  2.000E+01  2.000E+04 -4.469E-02
   1   15   13     1    13    1.1182E+05 -6.0977E+02   1.1243E+05  0.000E+00  0.000E+00  0.000E+00  4.26890E+01  1.549E-01  2.000E+01  2.000E+04 -3.049E-02
   1   14   14     1    14    1.1243E+05 -6.7999E+02   1.1311E+05  0.000E+00  0.000E+00  0.000E+00  4.22123E+01  1.555E-01  2.000E+01  2.000E+04 -3.400E-02
   1   13   15     1    15    1.1311E+05 -8.7826E+02   1.1399E+05  0.000E+00  0.000E+00  0.000E+00  4.17357E+01  1.561E-01  2.000E+01  2.000E+04 -4.391E-02
   1   12   16     1    16    1.1399E+05 -1.4906E+03   1.1548E+05  0.000E+00  0.000E+00  0.000E+00  4.12594E+01  1.571E-01  2.000E+01  2.000E+04 -7.453E-02
   1   12   17     1    17    1.1548E+05 -1.0902E+03   1.1657E+05  0.000E+00  0.000E+00  0.000E+00  4.07831E+01  1.581E-01  2.000E+01  2.000E+04 -5.451E-02
   1   12   18     1    18    1.1657E+05 -1.1183E+03   1.1768E+05  0.000E+00  0.000E+00  0.000E+00  4.03068E+01  1.590E-01  2.000E+01  2.000E+04 -5.591E-02
   1   12   19     1    19    1.1768E+05 -1.7121E+03   1.1940E+05  0.000E+00  0.000E+00  0.000E+00  3.98306E+01  1.602E-01  2.000E+01  2.000E+04 -8.560E-02
   1   13   20     1    20    1.1940E+05 -8.9206E+02   1.2029E+05  0.000E+00  0.000E+00  0.000E+00  3.93544E+01  1.612E-01  2.000E+01  2.000E+04 -4.460E-02
   1   14   21     1    21    1.2029E+05  7.5929E+01   1.2021E+05  0.000E+00  0.000E+00  0.000E+00  3.88775E+01  1.616E-01  2.000E+01  2.000E+04  3.796E-03
   1   14   22     1    22    1.2021E+05  5.3311E+03   1.1488E+05  0.000E+00  0.000E+00  0.000E+00  3.83980E+01  1.594E-01  2.000E+01  2.000E+04  2.666E-01
   1    9   30     2     1    5.0000E+04  1.9823E+03   4.8018E+04  0.000E+00  0.000E+00  0.000E+00  4.02395E+01  1.145E-01  2.000E+01  2.000E+04  9.912E-02
   1    9   29     2     2    4.8018E+04  4.0155E+03   4.4002E+04  0.000E+00  0.000E+00  0.000E+00  3.99852E+01  1.102E-01  2.000E+01  2.000E+04  2.008E-01
   1    9   28     2     3    4.4002E+04  8.1695E+02   4.3185E+04  0.000E+00  0.000E+00  0.000E+00  3.97317E+01  1.067E-01  2.000E+01  2.000E+04  4.085E-02
   1    9   27     2     4    4.3185E+04 -1.5320E+03   4.4717E+04  0.000E+00  0.000E+00  0.000E+00  3.94822E+01  1.072E-01  2.000E+01  2.000E+04 -7.660E-02
   1   10   26     2     5    4.4717E+04 -4.5092E+02   4.5168E+04  0.000E+00  0.000E+00  0.000E+00  3.92337E+01  1.087E-01  2.000E+01  2.000E+04 -2.255E-02
   1   11   25     2     6    4.5168E+04 -7.8240E+02   4.5951E+04  0.000E+00  0.000E+00  0.000E+00  3.89846E+01  1.096E-01  2.000E+01  2.000E+04 -3.912E-02
   1   12   24     2     7    4.5951E+04 -1.2059E+03   4.7157E+04  0.000E+00  0.000E+00  0.000E+00  3.87360E+01  1.110E-01  2.000E+01  2.000E+04 -6.030E-02
   1   13   23     2     8    4.7157E+04 -2.3334E+02   4.7390E+04  0.000E+00  0.000E+00  0.000E+00  3.84870E+01  1.120E-01  2.000E+01  2.000E+04 -1.167E-02
   1   14   22     2     9    4.7390E+04  2.0848E+03   4.5305E+04  0.000E+00  0.000E+00  0.000E+00  3.82357E+01  1.107E-01  2.000E+01  2.000E+04  1.042E-01
   1   14   22     3     1    1.6019E+05 -8.2841E+03   1.6847E+05  0.000E+00  0.000E+00  0.000E+00  3.77173E+01  1.617E-01  2.000E+01  2.000E+04 -4.142E-01
   1   15   23     3     2    1.6847E+05 -1.4001E+02   1.6861E+05  0.000E+00  0.000E+00  0.000E+00  3.68308E+01  1.642E-01  2.000E+01  2.000E+04 -7.001E-03
   1   15   24     3     3    1.6861E+05 -1.2759E+02   1.6874E+05  0.000E+00  0.000E+00  0.000E+00  3.59420E+01  1.643E-01  2.000E+01  2.000E+04 -6.380E-03
   1   15   25     3     4    1.6874E+05 -1.4501E+02   1.6888E+05  0.000E+00  0.000E+00  0.000E+00  3.50532E+01  1.643E-01  2.000E+01  2.000E+04 -7.250E-03
   1   15   26     3     5    1.6888E+05 -1.7942E+02   1.6906E+05  0.000E+00  0.000E+00  0.000E+00  3.41644E+01  1.644E-01  2.000E+01  2.000E+04 -8.971E-03
   1   16   27     3     6    1.6906E+05 -9.1180E+01   1.6915E+05  0.000E+00  0.000E+00  0.000E+00  3.32756E+01  1.645E-01  2.000E+01  2.000E+04 -4.559E-03
   1   17   28     3     7    1.6915E+05  5.8491E+02   1.6857E+05  0.000E+00  0.000E+00  0.000E+00  3.23866E+01  1.644E-01  2.000E+01  2.000E+04  2.925E-02
   1   18   29     3     8    1.6857E+05  4.3102E+03   1.6426E+05  0.000E+00  0.000E+00  0.000E+00  3.14963E+01  1.629E-01  2.000E+01  2.000E+04  2.155E-01
   1   18   30     3     9    1.6426E+05  5.1171E+02   1.6375E+05  0.000E+00  0.000E+00  0.000E+00  3.06060E+01  1.615E-01  2.000E+01  2.000E+04  2.559E-02



1
              HEAD IN LAYER   1 AT END OF TIME STEP   1 IN STRESS PERIOD   12
  ---------------------------------------------------------------------------

          1      2      3      4      5      6      7      8      9     10
         11     12     13     14     15     16     17     18     19     20
         21     22     23     24     25     26     27     28     29     30
 .........................................................................
   1  ****** ****** ****** ****** ****** ****** ****** ****** ****** ******
      ****** ****** ****** ****** ****** ****** ****** ****** ****** ******
      ****** ****** ****** ****** ****** ****** ****** ****** ****** ******
   2  ****** ****** ****** ****** ****** ****** ****** ****** ****** ******
      ****** ****** ****** ****** ****** ****** ****** ****** ****** ******
      ****** ****** ****** ****** ****** ****** ****** ****** ****** ******
   3  ****** ****** ****** ****** ****** ****** ****** ****** ****** ******
      ****** ****** ****** ****** ****** ****** ****** ****** ****** ******
      ****** ****** ****** ****** ****** ****** ****** ****** ****** ******
   4  ****** ****** ****** ****** ****** ****** ****** ****** ****** ******
      ****** ****** ****** ****** ****** ****** ****** ****** ****** ******
      ****** ****** ****** ****** ****** ****** ****** ****** ****** ******
   5  ****** ****** ****** ****** ****** ****** ****** ****** ****** ******
      ****** ****** ****** ****** ****** ****** ****** ****** ****** ******
      ****** ****** ****** ****** ****** ****** ****** ****** ****** ******
   6  ****** ****** ****** ****** ****** ****** ****** ****** ****** ******
      ****** ****** ****** ****** ****** ****** ****** ****** ****** ******
      ****** ****** ****** ****** ****** ****** ****** ****** ****** ******
   7  ****** ****** ****** ****** ****** ****** ****** ****** ****** ******
      ****** ****** ****** ****** ****** ****** ****** ****** ****** ******
      ****** ****** ****** ****** ****** ****** ****** ****** ****** ******
   8  ****** ****** ****** ****** ****** ****** ****** ****** ****** ******
      ****** ****** ****** ****** ****** ****** ****** ****** ****** ******
      ****** ****** ****** ****** ****** ****** ****** ****** ****** ******
   9  ****** ****** ****** ****** ****** ****** ****** ****** ****** ******
      ****** ****** ****** ****** ****** ****** ****** ****** ****** ******
      ****** ****** ****** ****** ****** ****** ****** ****** ****** ******
  10  ****** ****** ****** ****** ****** ****** ****** ****** ****** ******
      ****** ****** ****** ****** ****** ****** ****** ****** ****** ******
      ****** ****** ****** ****** ****** ****** ****** ****** ****** ******
  11  ****** ****** ****** ****** ****** ****** ****** ****** ****** ******
      ****** ****** ****** ****** ****** ****** ****** ****** ****** ******
      ****** ****** ****** ****** ****** ****** ****** ****** ****** ******
  12  ****** ****** ****** ****** ****** ****** ****** ****** ****** ******
      ****** ****** ****** ****** ****** ****** ****** ****** ****** ******
      ****** ****** ****** ****** ****** ****** ****** ****** ****** ******
  13  ****** ****** ****** ****** ****** ****** ****** ****** ****** ******
      ****** ****** ****** ****** ****** ****** ****** ****** ****** ******
      ****** ****** ****** ****** ****** ****** ****** ****** ****** ******
  14  ****** ****** ****** ****** ****** ****** ****** ****** ****** ******
      ****** ****** ****** ****** ****** ****** ****** ****** ****** ******
      ****** ****** ****** ****** ****** ****** ****** ****** ****** ******
  15  ****** ****** ****** ****** ****** ****** ****** ****** ****** ******
      ****** ****** ****** ****** ****** ****** ****** ****** ****** ******
      ****** ****** ****** ****** ****** ****** ****** ****** ****** ******
  16  ****** ****** ****** ****** ****** ****** ****** ****** ****** ******
      ****** ****** ****** ****** ****** ****** ****** ****** ****** ******
      ****** ****** ****** ****** ****** ****** ****** ****** ****** ******
  17  ****** ****** ****** ****** ****** ****** ****** ****** ****** ******
      ****** ****** ****** ****** ****** ****** ****** ****** ****** ******
      ****** ****** ****** ****** ****** ****** ****** ****** ****** ******
  18  ****** ****** ****** ****** ****** ****** ****** ****** ****** ******
      ****** ****** ****** ****** ****** ****** ****** ****** ****** ******
      ****** ****** ****** ****** ****** ****** ****** ****** ****** ******
  19  ****** ****** ****** ****** ****** ****** ****** ****** ****** ******
      ****** ****** ****** ****** ****** ****** ****** ****** ****** ******
      ****** ****** ****** ****** ****** ****** ****** ****** ****** ******
  20  ****** ****** ****** ****** ****** ****** ****** ****** ****** ******
      ****** ****** ****** ****** ****** ****** ****** ****** ****** ******
      ****** ****** ****** ****** ****** ****** ****** ****** ****** ******
  21  ****** ****** ****** ****** ****** ****** ****** ****** ****** ******
      ****** ****** ****** ****** ****** ****** ****** ****** ****** ******
      ****** ****** ****** ****** ****** ****** ****** ****** ****** ******
  22  ****** ****** ****** ****** ****** ****** ****** ****** ****** ******
      ****** ****** ****** ****** ****** ****** ****** ****** ****** ******
      ****** ****** ****** ****** ****** ****** ****** ****** ****** ******
  23  ****** ****** ****** ****** ****** ****** ****** ****** ****** ******
      ****** ****** ****** ****** ****** ****** ****** ****** ****** ******
      ****** ****** ****** ****** ****** ****** ****** ****** ****** ******
  24  ****** ****** ****** ****** ****** ****** ****** ****** ****** ******
      ****** ****** ****** ****** ****** ****** ****** ****** ****** ******
      ****** ****** ****** ****** ****** ****** ****** ****** ****** ******
  25  ****** ****** ****** ****** ****** ****** ****** ****** ****** ******
      ****** ****** ****** ****** ****** ****** ****** ****** ****** ******
      ****** ****** ****** ****** ****** ****** ****** ****** ****** ******

 HEAD WILL BE SAVED ON UNIT   51 AT END OF TIME STEP    1, STRESS PERIOD   12
1
  VOLUMETRIC BUDGET FOR ENTIRE MODEL AT END OF TIME STEP    1, STRESS PERIOD  12
  ------------------------------------------------------------------------------

     CUMULATIVE VOLUMES      L**3       RATES FOR THIS TIME STEP      L**3/T
     ------------------                 ------------------------

           IN:                                      IN:
           ---                                      ---
             STORAGE =    37307735.3190               STORAGE =          25.8718
       CONSTANT HEAD =    33695875.6111         CONSTANT HEAD =       36354.8167
               WELLS =           0.0000                 WELLS =           0.0000
            RECHARGE =    26413200.0000              RECHARGE =       27600.0000
      STREAM LEAKAGE =    18440939.9673        STREAM LEAKAGE =       19713.3980

            TOTAL IN =   115857750.8975              TOTAL IN =       83694.0865

          OUT:                                     OUT:
          ----                                     ----
             STORAGE =     2520307.0627               STORAGE =        2937.6403
       CONSTANT HEAD =           0.0000         CONSTANT HEAD =           0.0000
               WELLS =    51788823.5221                 WELLS =       47295.7292
            RECHARGE =           0.0000              RECHARGE =           0.0000
      STREAM LEAKAGE =    61548622.2736        STREAM LEAKAGE =       33460.7161

           TOTAL OUT =   115857752.8585             TOTAL OUT =       83694.0856

            IN - OUT =          -1.9610              IN - OUT =       8.7123E-04

 PERCENT DISCREPANCY =          -0.00     PERCENT DISCREPANCY =           0.00






         TIME SUMMARY AT END OF TIME STEP    1 IN STRESS PERIOD   12
                    SECONDS     MINUTES      HOURS       DAYS        YEARS
                    -----------------------------------------------------------
   TIME STEP LENGTH 7.86240E+06 1.31040E+05  2184.0      91.000     0.24914    
 STRESS PERIOD TIME 7.86240E+06 1.31040E+05  2184.0      91.000     0.24914    
         TOTAL TIME 9.46080E+07 1.57680E+06  26280.      1095.0      2.9979    
1

 Run end date and time (yyyy/mm/dd hh:mm:ss): 2018/10/10 18:31:24
 Elapsed run time:  0.061 Seconds

