                                  MODFLOW-2005     
      U.S. GEOLOGICAL SURVEY MODULAR FINITE-DIFFERENCE GROUND-WATER FLOW MODEL
                            VERSION 1.11.00 8/8/2013

 LIST FILE: supply2.lst
                         UNIT   10

 OPENING ..\data\supply.dis
 FILE TYPE:DIS   UNIT   11   STATUS:OLD    
 FORMAT:FORMATTED              ACCESS:SEQUENTIAL          

 OPENING ..\data\supply.ba6
 FILE TYPE:BAS6   UNIT   12   STATUS:OLD    
 FORMAT:FORMATTED              ACCESS:SEQUENTIAL          

 OPENING ..\data\supply_het.bc6
 FILE TYPE:BCF6   UNIT   13   STATUS:OLD    
 FORMAT:FORMATTED              ACCESS:SEQUENTIAL          

 OPENING ..\data\supply.rch
 FILE TYPE:RCH   UNIT   15   STATUS:OLD    
 FORMAT:FORMATTED              ACCESS:SEQUENTIAL          

 OPENING ..\data\supply2.sfr
 FILE TYPE:SFR   UNIT   16   STATUS:OLD    
 FORMAT:FORMATTED              ACCESS:SEQUENTIAL          

 OPENING ..\data\supply.oc
 FILE TYPE:OC   UNIT   17   STATUS:OLD    
 FORMAT:FORMATTED              ACCESS:SEQUENTIAL          

 OPENING ..\data\supply.pcg
 FILE TYPE:PCG   UNIT   18   STATUS:OLD    
 FORMAT:FORMATTED              ACCESS:SEQUENTIAL          

 OPENING supply2.wel
 FILE TYPE:WEL   UNIT   19   STATUS:OLD    
 FORMAT:FORMATTED              ACCESS:SEQUENTIAL          

 OPENING supply2sf.cbc
 FILE TYPE:DATA(BINARY)   UNIT   50   STATUS:UNKNOWN
 FORMAT:BINARY                 ACCESS:SEQUENTIAL          

 OPENING supply2hd.bhd
 FILE TYPE:DATA(BINARY)   UNIT   51   STATUS:UNKNOWN
 FORMAT:BINARY                 ACCESS:SEQUENTIAL          

 BAS -- BASIC PACKAGE, VERSION 7, 5/2/2005 INPUT READ FROM UNIT   12
 
 MODFLOW was compiled using uniform precision
 Precision of REAL and DOUBLE PRECISION variables:          15

 DISCRETIZATION INPUT DATA READ FROM UNIT   11
    1 LAYERS        25 ROWS        30 COLUMNS
   12 STRESS PERIOD(S) IN SIMULATION
 MODEL TIME UNIT IS DAYS
 MODEL LENGTH UNIT IS UNDEFINED
  Confining bed flag for each layer:
   0

                     DELR =   200.000    

                     DELC =   200.000    

 TOP ELEVATION OF LAYER 1 =  100.0000    

   MODEL LAYER BOTTOM EL. =   0.00000     FOR LAYER   1


 STRESS PERIOD     LENGTH       TIME STEPS     MULTIPLIER FOR DELT    SS FLAG
 ----------------------------------------------------------------------------
        1         92.00000          1                    1.500         TR
        2         91.00000          1                    1.500         TR
        3         91.00000          1                    1.500         TR
        4         91.00000          1                    1.500         TR
        5         92.00000          1                    1.500         TR
        6         91.00000          1                    1.500         TR
        7         91.00000          1                    1.500         TR
        8         91.00000          1                    1.500         TR
        9         92.00000          1                    1.500         TR
       10         91.00000          1                    1.500         TR
       11         91.00000          1                    1.500         TR
       12         91.00000          1                    1.500         TR

 TRANSIENT SIMULATION



 
 #MODOFC transient water supply sample problem                                   
 #                                                                               
 THE FREE FORMAT OPTION HAS BEEN SELECTED



                     BOUNDARY ARRAY FOR LAYER   1
 READING ON UNIT   12 WITH FORMAT: (20I4)              

 AQUIFER HEAD WILL BE SET TO   0.0000     AT ALL NO-FLOW NODES (IBOUND=0).



                       INITIAL HEAD FOR LAYER   1
 READING ON UNIT   12 WITH FORMAT: (10F13.0)           

 OUTPUT CONTROL IS SPECIFIED ONLY AT TIME STEPS FOR WHICH OUTPUT IS DESIRED
 COMPACT CELL-BY-CELL BUDGET FILES WILL BE WRITTEN
 HEAD PRINT FORMAT CODE IS  18    DRAWDOWN PRINT FORMAT CODE IS   0
 HEADS WILL BE SAVED ON UNIT   51    DRAWDOWNS WILL BE SAVED ON UNIT    0

 BCF -- BLOCK-CENTERED FLOW PACKAGE, VERSION 7, 5/2/2005
         INPUT READ FROM UNIT 13
 TRANSIENT SIMULATION
 HEAD AT CELLS THAT CONVERT TO DRY=   0.0000    
 WETTING CAPABILITY IS NOT ACTIVE
      LAYER  LAYER-TYPE CODE     INTERBLOCK T
      --------------------------------------------
         1            0          0 -- HARMONIC    

 COLUMN TO ROW ANISOTROPY =  1.000000    

     PRIMARY STORAGE COEF =  5.000000E-02 FOR LAYER   1



               TRANSMIS. ALONG ROWS FOR LAYER   1
 READING ON UNIT   13 WITH FORMAT: (FREE)              

 WEL -- WELL PACKAGE, VERSION 7, 5/2/2005 INPUT READ FROM UNIT   19
 # Well package input file written by MMProc
 No named parameters
 MAXIMUM OF      4 ACTIVE WELLS AT ONE TIME


     0 Well parameters

 RCH -- RECHARGE PACKAGE, VERSION 7, 5/2/2005 INPUT READ FROM UNIT   15
 No named parameters
 OPTION 1 -- RECHARGE TO TOP LAYER


     0 Recharge parameters

 SFR7 -- STREAMFLOW ROUTING PACKAGE, VERSION 1.0.7, 2013-01-15
         INPUT READ FROM UNIT  16
 #  Supply2 test problem for GWM-VI
 #  The eighth entry in the first data line is ISTCB2 -
 #    Setting this to a negative number indicates that
 #    streamflows out of the reach will be saved to a
 #    binary file.  The absolute value of ISTCB2 is the
 #    unit to which unformatted flows will be written.
 #
 No named parameters
 Segment information will not be 
 read by reach
 No named parameters
 No specifed inflow files


 NUMBER OF STREAM REACHES IS   40

 NUMBER OF STREAM SEGMENTS IS    3

 NUMBER OF STREAM PARAMETERS IS    0

 NUMBER OF STREAM SEGMENTS DEFINED USING PARAMETERS IS              0

 MAXIMUM ERROR FOR STREAM LEAKAGE RATES IS  1.00E-04

 CONSTANT FOR MANNINGS EQUATION IS  1.2839E+05





   STREAM NETWORK DESCRIPTION: 

   LAYER    ROW    COL   SEGMENT   REACH     LENGTH
                          NUMBER   NUMBER    IN CELL        
   --------------------------------------------------
      1     13      1       1        1    2.0000E+02
      1     13      2       1        2    2.0000E+02
      1     14      3       1        3    2.0000E+02
      1     15      4       1        4    2.0000E+02
      1     16      5       1        5    2.0000E+02
      1     16      6       1        6    2.0000E+02
      1     16      7       1        7    2.0000E+02
      1     16      8       1        8    2.0000E+02
      1     16      9       1        9    2.0000E+02
      1     16     10       1       10    2.0000E+02
      1     16     11       1       11    2.0000E+02
      1     16     12       1       12    2.0000E+02
      1     15     13       1       13    2.0000E+02
      1     14     14       1       14    2.0000E+02
      1     13     15       1       15    2.0000E+02
      1     12     16       1       16    2.0000E+02
      1     12     17       1       17    2.0000E+02
      1     12     18       1       18    2.0000E+02
      1     12     19       1       19    2.0000E+02
      1     13     20       1       20    2.0000E+02
      1     14     21       1       21    2.0000E+02
      1     14     22       1       22    2.0000E+02
      1      9     30       2        1    2.0000E+02
      1      9     29       2        2    2.0000E+02
      1      9     28       2        3    2.0000E+02
      1      9     27       2        4    2.0000E+02
      1     10     26       2        5    2.0000E+02
      1     11     25       2        6    2.0000E+02
      1     12     24       2        7    2.0000E+02
      1     13     23       2        8    2.0000E+02
      1     14     22       2        9    2.0000E+02
      1     14     22       3        1    2.0000E+02
      1     15     23       3        2    2.0000E+02
      1     15     24       3        3    2.0000E+02
      1     15     25       3        4    2.0000E+02
      1     15     26       3        5    2.0000E+02
      1     16     27       3        6    2.0000E+02
      1     17     28       3        7    2.0000E+02
      1     18     29       3        8    2.0000E+02
      1     18     30       3        9    2.0000E+02




 PCG -- CONJUGATE-GRADIENT SOLUTION PACKAGE, VERSION 7, 5/2/2005
 MAXIMUM OF    500 CALLS OF SOLUTION ROUTINE
 MAXIMUM OF      5 INTERNAL ITERATIONS PER CALL TO SOLUTION ROUTINE
 MATRIX PRECONDITIONING TYPE :    1



                                    SOLUTION BY THE CONJUGATE-GRADIENT METHOD
                                   -------------------------------------------
                    MAXIMUM NUMBER OF CALLS TO PCG ROUTINE =      500
                        MAXIMUM ITERATIONS PER CALL TO PCG =        5
                               MATRIX PRECONDITIONING TYPE =        1
        RELAXATION FACTOR (ONLY USED WITH PRECOND. TYPE 1) =    0.10000E+01
 PARAMETER OF POLYNOMIAL PRECOND. = 2 (2) OR IS CALCULATED :        0
                         HEAD CHANGE CRITERION FOR CLOSURE =    0.10000E-05
                     RESIDUAL CHANGE CRITERION FOR CLOSURE =    0.10000E+01
            PCG HEAD AND RESIDUAL CHANGE PRINTOUT INTERVAL =        1
     PRINTING FROM SOLVER IS LIMITED(1) OR SUPPRESSED (>1) =        1
                            STEADY-STATE DAMPING PARAMETER =    0.10000E+01
                               TRANSIENT DAMPING PARAMETER =    0.10000E+01
1
                            STRESS PERIOD NO.    1, LENGTH =   92.00000    
                            -----------------------------------------------

                              NUMBER OF TIME STEPS =     1

                               MULTIPLIER FOR DELT =     1.500

                            INITIAL TIME STEP SIZE =   92.00000    

 WELL NO.  LAYER   ROW   COL   STRESS RATE         
 --------------------------------------------------
      1      1     20     21     -0.1142E+05
      2      1     18     16      -7655.    
      3      1     20     18      -5517.    
      4      1      4      9      -6868.    

      4 WELLS

                 RECHARGE =  5.000000E-04



 CLASSIFICATION & COUNT OF STREAM SEGMENTS BASED ON SOURCE OF INFLOW:

                HEADWATER     DIVERSION     RECEIVES TRIBUTARY FLOW
                ---------     ---------     -----------------------
                     2              0               1



                    INPUT DATA FOR EACH STREAM SEGMENT
 ---------------------------------------------------------------------------------------------

 SEGMENT    SEG.     INFLOW   OVERLAND   STREAM    STREAM   ICALC  OUTFLOW  DIVERSION PRIORITY
    NO.    LENGTH     RATE     RUNOFF      ET       PPT.    METH.  TO SEG.  FROM SEG.    NO.

      1  4.400E+03 1.000E+05 0.000E+00 0.000E+00 0.000E+00    1        3        0        0
      2  1.800E+03 5.000E+04 0.000E+00 0.000E+00 0.000E+00    1        3        0        0
      3  1.800E+03 0.000E+00 0.000E+00 0.000E+00 0.000E+00    1        0        0        0


         STREAMBED PROPERTIES AND STREAM DIMENSIONS

 SEGMENT     BED HYD. COND.      BED THICKNESS     ELEV.-TOP OF BED     WIDTH OF STREAM     DEPTH OF STREAM    STREAM ROUGHNESS
    No.     UPPER     LOWER     UPPER     LOWER     UPPER     LOWER     UPPER     LOWER     UPPER     LOWER   CHANNEL      BANK

     1  5.000E+00 5.000E+00 1.000E+00 1.000E+00 4.850E+01 3.800E+01 2.000E+01 2.000E+01                     5.000E-02
     2  5.000E+00 5.000E+00 1.000E+00 1.000E+00 4.025E+01 3.800E+01 2.000E+01 2.000E+01                     5.000E-02
     3  5.000E+00 5.000E+00 1.000E+00 1.000E+00 3.800E+01 3.000E+01 2.000E+01 2.000E+01                     5.000E-02



 
 SOLVING FOR HEAD 


     9 CALLS TO PCG ROUTINE FOR TIME STEP   1 IN STRESS PERIOD    1
    36 TOTAL ITERATIONS

 OUTPUT CONTROL FOR STRESS PERIOD    1   TIME STEP    1
    SAVE BUDGET
    SAVE HEAD FOR ALL LAYERS
    PRINT HEAD FOR ALL LAYERS
 UBDSV2 SAVING "STREAMFLOW OUT  " ON UNIT  50 AT TIME STEP  1, STRESS PERIOD   1



 STREAM LISTING     PERIOD      1   STEP        1

 LAYER ROW COL. STREAM  RCH.  FLOW INTO     FLOW TO   FLOW OUT OF   OVRLND.     DIRECT     STREAM       STREAM     STREAM     STREAM   STREAMBED  STREAMBED
                SEG.NO.  NO.  STRM. RCH.    AQUIFER    STRM. RCH.    RUNOFF     PRECIP       ET          HEAD       DEPTH      WIDTH   CONDCTNC.   GRADIENT

   1   13    1     1     1    1.0000E+05 -6.0507E+03   1.0605E+05  0.000E+00  0.000E+00  0.000E+00  4.84086E+01  1.473E-01  2.000E+01  2.000E+04 -3.025E-01
   1   13    2     1     2    1.0605E+05 -7.5182E+03   1.1357E+05  0.000E+00  0.000E+00  0.000E+00  4.79371E+01  1.530E-01  2.000E+01  2.000E+04 -3.759E-01
   1   14    3     1     3    1.1357E+05 -2.1939E+03   1.1576E+05  0.000E+00  0.000E+00  0.000E+00  4.74638E+01  1.570E-01  2.000E+01  2.000E+04 -1.097E-01
   1   15    4     1     4    1.1576E+05 -2.2647E+03   1.1803E+05  0.000E+00  0.000E+00  0.000E+00  4.69884E+01  1.589E-01  2.000E+01  2.000E+04 -1.132E-01
   1   16    5     1     5    1.1803E+05 -7.1356E+03   1.2516E+05  0.000E+00  0.000E+00  0.000E+00  4.65149E+01  1.627E-01  2.000E+01  2.000E+04 -3.568E-01
   1   16    6     1     6    1.2516E+05 -4.2597E+03   1.2942E+05  0.000E+00  0.000E+00  0.000E+00  4.60422E+01  1.672E-01  2.000E+01  2.000E+04 -2.130E-01
   1   16    7     1     7    1.2942E+05 -4.0787E+03   1.3350E+05  0.000E+00  0.000E+00  0.000E+00  4.55682E+01  1.705E-01  2.000E+01  2.000E+04 -2.039E-01
   1   16    8     1     8    1.3350E+05 -4.0126E+03   1.3751E+05  0.000E+00  0.000E+00  0.000E+00  4.50940E+01  1.736E-01  2.000E+01  2.000E+04 -2.006E-01
   1   16    9     1     9    1.3751E+05 -3.9629E+03   1.4148E+05  0.000E+00  0.000E+00  0.000E+00  4.46198E+01  1.766E-01  2.000E+01  2.000E+04 -1.981E-01
   1   16   10     1    10    1.4148E+05 -3.8976E+03   1.4537E+05  0.000E+00  0.000E+00  0.000E+00  4.41455E+01  1.796E-01  2.000E+01  2.000E+04 -1.949E-01
   1   16   11     1    11    1.4537E+05 -3.8175E+03   1.4919E+05  0.000E+00  0.000E+00  0.000E+00  4.36711E+01  1.825E-01  2.000E+01  2.000E+04 -1.909E-01
   1   16   12     1    12    1.4919E+05 -6.0973E+03   1.5529E+05  0.000E+00  0.000E+00  0.000E+00  4.31975E+01  1.861E-01  2.000E+01  2.000E+04 -3.049E-01
   1   15   13     1    13    1.5529E+05 -6.4377E+03   1.6173E+05  0.000E+00  0.000E+00  0.000E+00  4.27248E+01  1.907E-01  2.000E+01  2.000E+04 -3.219E-01
   1   14   14     1    14    1.6173E+05 -7.0263E+03   1.6875E+05  0.000E+00  0.000E+00  0.000E+00  4.22523E+01  1.955E-01  2.000E+01  2.000E+04 -3.513E-01
   1   13   15     1    15    1.6875E+05 -7.5717E+03   1.7633E+05  0.000E+00  0.000E+00  0.000E+00  4.17802E+01  2.007E-01  2.000E+01  2.000E+04 -3.786E-01
   1   12   16     1    16    1.7633E+05 -8.5504E+03   1.8488E+05  0.000E+00  0.000E+00  0.000E+00  4.13085E+01  2.062E-01  2.000E+01  2.000E+04 -4.275E-01
   1   12   17     1    17    1.8488E+05 -5.9798E+03   1.9086E+05  0.000E+00  0.000E+00  0.000E+00  4.08362E+01  2.112E-01  2.000E+01  2.000E+04 -2.990E-01
   1   12   18     1    18    1.9086E+05 -5.8391E+03   1.9669E+05  0.000E+00  0.000E+00  0.000E+00  4.03629E+01  2.151E-01  2.000E+01  2.000E+04 -2.920E-01
   1   12   19     1    19    1.9669E+05 -7.5107E+03   2.0421E+05  0.000E+00  0.000E+00  0.000E+00  3.98900E+01  2.195E-01  2.000E+01  2.000E+04 -3.755E-01
   1   13   20     1    20    2.0421E+05 -6.2490E+03   2.1045E+05  0.000E+00  0.000E+00  0.000E+00  3.94172E+01  2.240E-01  2.000E+01  2.000E+04 -3.125E-01
   1   14   21     1    21    2.1045E+05 -5.2902E+03   2.1574E+05  0.000E+00  0.000E+00  0.000E+00  3.89437E+01  2.278E-01  2.000E+01  2.000E+04 -2.645E-01
   1   14   22     1    22    2.1574E+05  3.8469E+03   2.1190E+05  0.000E+00  0.000E+00  0.000E+00  3.84669E+01  2.282E-01  2.000E+01  2.000E+04  1.923E-01
   1    9   30     2     1    5.0000E+04 -4.8574E+03   5.4857E+04  0.000E+00  0.000E+00  0.000E+00  4.02442E+01  1.192E-01  2.000E+01  2.000E+04 -2.429E-01
   1    9   29     2     2    5.4857E+04 -5.1531E+03   6.0010E+04  0.000E+00  0.000E+00  0.000E+00  4.00009E+01  1.259E-01  2.000E+01  2.000E+04 -2.577E-01
   1    9   28     2     3    6.0010E+04 -5.4391E+03   6.5450E+04  0.000E+00  0.000E+00  0.000E+00  3.97578E+01  1.328E-01  2.000E+01  2.000E+04 -2.720E-01
   1    9   27     2     4    6.5450E+04 -8.3000E+03   7.3750E+04  0.000E+00  0.000E+00  0.000E+00  3.95163E+01  1.413E-01  2.000E+01  2.000E+04 -4.150E-01
   1   10   26     2     5    7.3750E+04 -7.3399E+03   8.1089E+04  0.000E+00  0.000E+00  0.000E+00  3.92756E+01  1.506E-01  2.000E+01  2.000E+04 -3.670E-01
   1   11   25     2     6    8.1089E+04 -6.7969E+03   8.7886E+04  0.000E+00  0.000E+00  0.000E+00  3.90337E+01  1.587E-01  2.000E+01  2.000E+04 -3.398E-01
   1   12   24     2     7    8.7886E+04 -6.3101E+03   9.4196E+04  0.000E+00  0.000E+00  0.000E+00  3.87910E+01  1.660E-01  2.000E+01  2.000E+04 -3.155E-01
   1   13   23     2     8    9.4196E+04 -1.6528E+03   9.5849E+04  0.000E+00  0.000E+00  0.000E+00  3.85453E+01  1.703E-01  2.000E+01  2.000E+04 -8.264E-02
   1   14   22     2     9    9.5849E+04  4.2933E+02   9.5420E+04  0.000E+00  0.000E+00  0.000E+00  3.82960E+01  1.710E-01  2.000E+01  2.000E+04  2.147E-02
   1   14   22     3     1    3.0732E+05 -9.6265E+03   3.1694E+05  0.000E+00  0.000E+00  0.000E+00  3.77932E+01  2.376E-01  2.000E+01  2.000E+04 -4.813E-01
   1   15   23     3     2    3.1694E+05 -1.7698E+03   3.1871E+05  0.000E+00  0.000E+00  0.000E+00  3.69069E+01  2.402E-01  2.000E+01  2.000E+04 -8.849E-02
   1   15   24     3     3    3.1871E+05 -1.4847E+03   3.2020E+05  0.000E+00  0.000E+00  0.000E+00  3.60187E+01  2.410E-01  2.000E+01  2.000E+04 -7.424E-02
   1   15   25     3     4    3.2020E+05 -1.5557E+03   3.2175E+05  0.000E+00  0.000E+00  0.000E+00  3.51305E+01  2.416E-01  2.000E+01  2.000E+04 -7.779E-02
   1   15   26     3     5    3.2175E+05 -1.8713E+03   3.2363E+05  0.000E+00  0.000E+00  0.000E+00  3.42424E+01  2.424E-01  2.000E+01  2.000E+04 -9.357E-02
   1   16   27     3     6    3.2363E+05 -2.1424E+03   3.2577E+05  0.000E+00  0.000E+00  0.000E+00  3.33544E+01  2.433E-01  2.000E+01  2.000E+04 -1.071E-01
   1   17   28     3     7    3.2577E+05 -6.4512E+03   3.3222E+05  0.000E+00  0.000E+00  0.000E+00  3.24675E+01  2.453E-01  2.000E+01  2.000E+04 -3.226E-01
   1   18   29     3     8    3.3222E+05 -7.6821E+03   3.3990E+05  0.000E+00  0.000E+00  0.000E+00  3.15817E+01  2.484E-01  2.000E+01  2.000E+04 -3.841E-01
   1   18   30     3     9    3.3990E+05 -6.9953E+03   3.4690E+05  0.000E+00  0.000E+00  0.000E+00  3.06961E+01  2.516E-01  2.000E+01  2.000E+04 -3.498E-01



1
              HEAD IN LAYER   1 AT END OF TIME STEP   1 IN STRESS PERIOD    1
  ---------------------------------------------------------------------------

          1      2      3      4      5      6      7      8      9     10
         11     12     13     14     15     16     17     18     19     20
         21     22     23     24     25     26     27     28     29     30
 .........................................................................
   1  ****** ****** ****** ****** ****** ****** ****** ****** ****** ******
      ****** ****** ****** ****** ****** ****** ****** ****** ****** ******
      ****** ****** ****** ****** ****** ****** ****** ****** ****** ******
   2  ****** ****** ****** ****** ****** ****** ****** ****** ****** ******
      ****** ****** ****** ****** ****** ****** ****** ****** ****** ******
      ****** ****** ****** ****** ****** ****** ****** ****** ****** ******
   3  ****** ****** ****** ****** ****** ****** ****** ****** ****** ******
      ****** ****** ****** ****** ****** ****** ****** ****** ****** ******
      ****** ****** ****** ****** ****** ****** ****** ****** ****** ******
   4  ****** ****** ****** ****** ****** ****** ****** ****** ****** ******
      ****** ****** ****** ****** ****** ****** ****** ****** ****** ******
      ****** ****** ****** ****** ****** ****** ****** ****** ****** ******
   5  ****** ****** ****** ****** ****** ****** ****** ****** ****** ******
      ****** ****** ****** ****** ****** ****** ****** ****** ****** ******
      ****** ****** ****** ****** ****** ****** ****** ****** ****** ******
   6  ****** ****** ****** ****** ****** ****** ****** ****** ****** ******
      ****** ****** ****** ****** ****** ****** ****** ****** ****** ******
      ****** ****** ****** ****** ****** ****** ****** ****** ****** ******
   7  ****** ****** ****** ****** ****** ****** ****** ****** ****** ******
      ****** ****** ****** ****** ****** ****** ****** ****** ****** ******
      ****** ****** ****** ****** ****** ****** ****** ****** ****** ******
   8  ****** ****** ****** ****** ****** ****** ****** ****** ****** ******
      ****** ****** ****** ****** ****** ****** ****** ****** ****** ******
      ****** ****** ****** ****** ****** ****** ****** ****** ****** ******
   9  ****** ****** ****** ****** ****** ****** ****** ****** ****** ******
      ****** ****** ****** ****** ****** ****** ****** ****** ****** ******
      ****** ****** ****** ****** ****** ****** ****** ****** ****** ******
  10  ****** ****** ****** ****** ****** ****** ****** ****** ****** ******
      ****** ****** ****** ****** ****** ****** ****** ****** ****** ******
      ****** ****** ****** ****** ****** ****** ****** ****** ****** ******
  11  ****** ****** ****** ****** ****** ****** ****** ****** ****** ******
      ****** ****** ****** ****** ****** ****** ****** ****** ****** ******
      ****** ****** ****** ****** ****** ****** ****** ****** ****** ******
  12  ****** ****** ****** ****** ****** ****** ****** ****** ****** ******
      ****** ****** ****** ****** ****** ****** ****** ****** ****** ******
      ****** ****** ****** ****** ****** ****** ****** ****** ****** ******
  13  ****** ****** ****** ****** ****** ****** ****** ****** ****** ******
      ****** ****** ****** ****** ****** ****** ****** ****** ****** ******
      ****** ****** ****** ****** ****** ****** ****** ****** ****** ******
  14  ****** ****** ****** ****** ****** ****** ****** ****** ****** ******
      ****** ****** ****** ****** ****** ****** ****** ****** ****** ******
      ****** ****** ****** ****** ****** ****** ****** ****** ****** ******
  15  ****** ****** ****** ****** ****** ****** ****** ****** ****** ******
      ****** ****** ****** ****** ****** ****** ****** ****** ****** ******
      ****** ****** ****** ****** ****** ****** ****** ****** ****** ******
  16  ****** ****** ****** ****** ****** ****** ****** ****** ****** ******
      ****** ****** ****** ****** ****** ****** ****** ****** ****** ******
      ****** ****** ****** ****** ****** ****** ****** ****** ****** ******
  17  ****** ****** ****** ****** ****** ****** ****** ****** ****** ******
      ****** ****** ****** ****** ****** ****** ****** ****** ****** ******
      ****** ****** ****** ****** ****** ****** ****** ****** ****** ******
  18  ****** ****** ****** ****** ****** ****** ****** ****** ****** ******
      ****** ****** ****** ****** ****** ****** ****** ****** ****** ******
      ****** ****** ****** ****** ****** ****** ****** ****** ****** ******
  19  ****** ****** ****** ****** ****** ****** ****** ****** ****** ******
      ****** ****** ****** ****** ****** ****** ****** ****** ****** ******
      ****** ****** ****** ****** ****** ****** ****** ****** ****** ******
  20  ****** ****** ****** ****** ****** ****** ****** ****** ****** ******
      ****** ****** ****** ****** ****** ****** ****** ****** ****** ******
      ****** ****** ****** ****** ****** ****** ****** ****** ****** ******
  21  ****** ****** ****** ****** ****** ****** ****** ****** ****** ******
      ****** ****** ****** ****** ****** ****** ****** ****** ****** ******
      ****** ****** ****** ****** ****** ****** ****** ****** ****** ******
  22  ****** ****** ****** ****** ****** ****** ****** ****** ****** ******
      ****** ****** ****** ****** ****** ****** ****** ****** ****** ******
      ****** ****** ****** ****** ****** ****** ****** ****** ****** ******
  23  ****** ****** ****** ****** ****** ****** ****** ****** ****** ******
      ****** ****** ****** ****** ****** ****** ****** ****** ****** ******
      ****** ****** ****** ****** ****** ****** ****** ****** ****** ******
  24  ****** ****** ****** ****** ****** ****** ****** ****** ****** ******
      ****** ****** ****** ****** ****** ****** ****** ****** ****** ******
      ****** ****** ****** ****** ****** ****** ****** ****** ****** ******
  25  ****** ****** ****** ****** ****** ****** ****** ****** ****** ******
      ****** ****** ****** ****** ****** ****** ****** ****** ****** ******
      ****** ****** ****** ****** ****** ****** ****** ****** ****** ******

 HEAD WILL BE SAVED ON UNIT   51 AT END OF TIME STEP    1, STRESS PERIOD    1
1
  VOLUMETRIC BUDGET FOR ENTIRE MODEL AT END OF TIME STEP    1, STRESS PERIOD   1
  ------------------------------------------------------------------------------

     CUMULATIVE VOLUMES      L**3       RATES FOR THIS TIME STEP      L**3/T
     ------------------                 ------------------------

           IN:                                      IN:
           ---                                      ---
             STORAGE =    18485103.7763               STORAGE =      200925.0410
       CONSTANT HEAD =     1254168.6814         CONSTANT HEAD =       13632.2683
               WELLS =           0.0000                 WELLS =           0.0000
            RECHARGE =     1269600.0000              RECHARGE =       13800.0000
      STREAM LEAKAGE =      393412.6274        STREAM LEAKAGE =        4276.2242

            TOTAL IN =    21402285.0851              TOTAL IN =      232633.5335

          OUT:                                     OUT:
          ----                                     ----
             STORAGE =           0.0000               STORAGE =           0.0000
       CONSTANT HEAD =           0.0000         CONSTANT HEAD =           0.0000
               WELLS =     2894391.7175                 WELLS =       31460.7795
            RECHARGE =           0.0000              RECHARGE =           0.0000
      STREAM LEAKAGE =    18507893.6495        STREAM LEAKAGE =      201172.7571

           TOTAL OUT =    21402285.3670             TOTAL OUT =      232633.5366

            IN - OUT =          -0.2819              IN - OUT =      -3.0639E-03

 PERCENT DISCREPANCY =          -0.00     PERCENT DISCREPANCY =          -0.00






         TIME SUMMARY AT END OF TIME STEP    1 IN STRESS PERIOD    1
                    SECONDS     MINUTES      HOURS       DAYS        YEARS
                    -----------------------------------------------------------
   TIME STEP LENGTH 7.94880E+06 1.32480E+05  2208.0      92.000     0.25188    
 STRESS PERIOD TIME 7.94880E+06 1.32480E+05  2208.0      92.000     0.25188    
         TOTAL TIME 7.94880E+06 1.32480E+05  2208.0      92.000     0.25188    
1
1
                            STRESS PERIOD NO.    2, LENGTH =   91.00000    
                            -----------------------------------------------

                              NUMBER OF TIME STEPS =     1

                               MULTIPLIER FOR DELT =     1.500

                            INITIAL TIME STEP SIZE =   91.00000    

 WELL NO.  LAYER   ROW   COL   STRESS RATE         
 --------------------------------------------------
      1      1     20     21     -0.1142E+05
      2      1     18     16      -7655.    
      3      1     20     18      -5517.    
      4      1      4      9      -6868.    

      4 WELLS

                 RECHARGE =  2.000000E-03

 REUSING STREAM SEGMENT DATA FROM LAST STRESS PERIOD
 
 SOLVING FOR HEAD 


     7 CALLS TO PCG ROUTINE FOR TIME STEP   1 IN STRESS PERIOD    2
    27 TOTAL ITERATIONS

 OUTPUT CONTROL FOR STRESS PERIOD    2   TIME STEP    1
    SAVE BUDGET
    SAVE HEAD FOR ALL LAYERS
    PRINT HEAD FOR ALL LAYERS
 UBDSV2 SAVING "STREAMFLOW OUT  " ON UNIT  50 AT TIME STEP  1, STRESS PERIOD   2



 STREAM LISTING     PERIOD      2   STEP        1

 LAYER ROW COL. STREAM  RCH.  FLOW INTO     FLOW TO   FLOW OUT OF   OVRLND.     DIRECT     STREAM       STREAM     STREAM     STREAM   STREAMBED  STREAMBED
                SEG.NO.  NO.  STRM. RCH.    AQUIFER    STRM. RCH.    RUNOFF     PRECIP       ET          HEAD       DEPTH      WIDTH   CONDCTNC.   GRADIENT

   1   13    1     1     1    1.0000E+05 -3.8414E+03   1.0384E+05  0.000E+00  0.000E+00  0.000E+00  4.84077E+01  1.463E-01  2.000E+01  2.000E+04 -1.921E-01
   1   13    2     1     2    1.0384E+05 -5.0964E+03   1.0894E+05  0.000E+00  0.000E+00  0.000E+00  4.79342E+01  1.501E-01  2.000E+01  2.000E+04 -2.548E-01
   1   14    3     1     3    1.0894E+05 -1.1024E+03   1.1004E+05  0.000E+00  0.000E+00  0.000E+00  4.74596E+01  1.527E-01  2.000E+01  2.000E+04 -5.512E-02
   1   15    4     1     4    1.1004E+05 -1.1296E+03   1.1117E+05  0.000E+00  0.000E+00  0.000E+00  4.69832E+01  1.537E-01  2.000E+01  2.000E+04 -5.648E-02
   1   16    5     1     5    1.1117E+05 -4.1416E+03   1.1531E+05  0.000E+00  0.000E+00  0.000E+00  4.65081E+01  1.559E-01  2.000E+01  2.000E+04 -2.071E-01
   1   16    6     1     6    1.1531E+05 -2.4148E+03   1.1773E+05  0.000E+00  0.000E+00  0.000E+00  4.60335E+01  1.585E-01  2.000E+01  2.000E+04 -1.207E-01
   1   16    7     1     7    1.1773E+05 -2.2930E+03   1.2002E+05  0.000E+00  0.000E+00  0.000E+00  4.55582E+01  1.605E-01  2.000E+01  2.000E+04 -1.147E-01
   1   16    8     1     8    1.2002E+05 -2.2210E+03   1.2224E+05  0.000E+00  0.000E+00  0.000E+00  4.50827E+01  1.623E-01  2.000E+01  2.000E+04 -1.110E-01
   1   16    9     1     9    1.2224E+05 -2.1364E+03   1.2438E+05  0.000E+00  0.000E+00  0.000E+00  4.46072E+01  1.640E-01  2.000E+01  2.000E+04 -1.068E-01
   1   16   10     1    10    1.2438E+05 -2.0138E+03   1.2639E+05  0.000E+00  0.000E+00  0.000E+00  4.41316E+01  1.657E-01  2.000E+01  2.000E+04 -1.007E-01
   1   16   11     1    11    1.2639E+05 -1.8464E+03   1.2824E+05  0.000E+00  0.000E+00  0.000E+00  4.36558E+01  1.672E-01  2.000E+01  2.000E+04 -9.232E-02
   1   16   12     1    12    1.2824E+05 -2.7353E+03   1.3097E+05  0.000E+00  0.000E+00  0.000E+00  4.31804E+01  1.690E-01  2.000E+01  2.000E+04 -1.368E-01
   1   15   13     1    13    1.3097E+05 -2.7840E+03   1.3376E+05  0.000E+00  0.000E+00  0.000E+00  4.27052E+01  1.712E-01  2.000E+01  2.000E+04 -1.392E-01
   1   14   14     1    14    1.3376E+05 -3.2978E+03   1.3705E+05  0.000E+00  0.000E+00  0.000E+00  4.22303E+01  1.735E-01  2.000E+01  2.000E+04 -1.649E-01
   1   13   15     1    15    1.3705E+05 -3.9288E+03   1.4098E+05  0.000E+00  0.000E+00  0.000E+00  4.17558E+01  1.763E-01  2.000E+01  2.000E+04 -1.964E-01
   1   12   16     1    16    1.4098E+05 -5.2544E+03   1.4624E+05  0.000E+00  0.000E+00  0.000E+00  4.12820E+01  1.797E-01  2.000E+01  2.000E+04 -2.627E-01
   1   12   17     1    17    1.4624E+05 -3.3295E+03   1.4957E+05  0.000E+00  0.000E+00  0.000E+00  4.08079E+01  1.829E-01  2.000E+01  2.000E+04 -1.665E-01
   1   12   18     1    18    1.4957E+05 -3.1923E+03   1.5276E+05  0.000E+00  0.000E+00  0.000E+00  4.03331E+01  1.853E-01  2.000E+01  2.000E+04 -1.596E-01
   1   12   19     1    19    1.5276E+05 -4.3025E+03   1.5706E+05  0.000E+00  0.000E+00  0.000E+00  3.98585E+01  1.881E-01  2.000E+01  2.000E+04 -2.151E-01
   1   13   20     1    20    1.5706E+05 -2.8407E+03   1.5990E+05  0.000E+00  0.000E+00  0.000E+00  3.93839E+01  1.907E-01  2.000E+01  2.000E+04 -1.420E-01
   1   14   21     1    21    1.5990E+05 -1.9652E+03   1.6187E+05  0.000E+00  0.000E+00  0.000E+00  3.89083E+01  1.924E-01  2.000E+01  2.000E+04 -9.826E-02
   1   14   22     1    22    1.6187E+05  4.7014E+03   1.5717E+05  0.000E+00  0.000E+00  0.000E+00  3.84301E+01  1.914E-01  2.000E+01  2.000E+04  2.351E-01
   1    9   30     2     1    5.0000E+04 -2.1529E+03   5.2153E+04  0.000E+00  0.000E+00  0.000E+00  4.02424E+01  1.174E-01  2.000E+01  2.000E+04 -1.076E-01
   1    9   29     2     2    5.2153E+04 -2.4634E+03   5.4616E+04  0.000E+00  0.000E+00  0.000E+00  3.99955E+01  1.205E-01  2.000E+01  2.000E+04 -1.232E-01
   1    9   28     2     3    5.4616E+04 -2.7696E+03   5.7386E+04  0.000E+00  0.000E+00  0.000E+00  3.97490E+01  1.240E-01  2.000E+01  2.000E+04 -1.385E-01
   1    9   27     2     4    5.7386E+04 -4.8778E+03   6.2264E+04  0.000E+00  0.000E+00  0.000E+00  3.95040E+01  1.290E-01  2.000E+01  2.000E+04 -2.439E-01
   1   10   26     2     5    6.2264E+04 -3.7772E+03   6.6041E+04  0.000E+00  0.000E+00  0.000E+00  3.92596E+01  1.346E-01  2.000E+01  2.000E+04 -1.889E-01
   1   11   25     2     6    6.6041E+04 -3.3899E+03   6.9431E+04  0.000E+00  0.000E+00  0.000E+00  3.90140E+01  1.390E-01  2.000E+01  2.000E+04 -1.695E-01
   1   12   24     2     7    6.9431E+04 -3.2570E+03   7.2688E+04  0.000E+00  0.000E+00  0.000E+00  3.87681E+01  1.431E-01  2.000E+01  2.000E+04 -1.628E-01
   1   13   23     2     8    7.2688E+04 -6.1487E+02   7.3303E+04  0.000E+00  0.000E+00  0.000E+00  3.85204E+01  1.454E-01  2.000E+01  2.000E+04 -3.074E-02
   1   14   22     2     9    7.3303E+04  1.4974E+03   7.1805E+04  0.000E+00  0.000E+00  0.000E+00  3.82699E+01  1.449E-01  2.000E+01  2.000E+04  7.487E-02
   1   14   22     3     1    2.2897E+05 -8.7971E+03   2.3777E+05  0.000E+00  0.000E+00  0.000E+00  3.77551E+01  1.996E-01  2.000E+01  2.000E+04 -4.399E-01
   1   15   23     3     2    2.3777E+05 -6.9682E+02   2.3847E+05  0.000E+00  0.000E+00  0.000E+00  3.68687E+01  2.020E-01  2.000E+01  2.000E+04 -3.484E-02
   1   15   24     3     3    2.3847E+05 -5.7612E+02   2.3904E+05  0.000E+00  0.000E+00  0.000E+00  3.59801E+01  2.023E-01  2.000E+01  2.000E+04 -2.881E-02
   1   15   25     3     4    2.3904E+05 -6.1929E+02   2.3966E+05  0.000E+00  0.000E+00  0.000E+00  3.50915E+01  2.026E-01  2.000E+01  2.000E+04 -3.096E-02
   1   15   26     3     5    2.3966E+05 -7.4615E+02   2.4041E+05  0.000E+00  0.000E+00  0.000E+00  3.42030E+01  2.030E-01  2.000E+01  2.000E+04 -3.731E-02
   1   16   27     3     6    2.4041E+05 -8.4756E+02   2.4125E+05  0.000E+00  0.000E+00  0.000E+00  3.33145E+01  2.034E-01  2.000E+01  2.000E+04 -4.238E-02
   1   17   28     3     7    2.4125E+05 -2.9944E+03   2.4425E+05  0.000E+00  0.000E+00  0.000E+00  3.24266E+01  2.044E-01  2.000E+01  2.000E+04 -1.497E-01
   1   18   29     3     8    2.4425E+05 -4.4290E+03   2.4868E+05  0.000E+00  0.000E+00  0.000E+00  3.15396E+01  2.062E-01  2.000E+01  2.000E+04 -2.215E-01
   1   18   30     3     9    2.4868E+05 -4.3198E+03   2.5300E+05  0.000E+00  0.000E+00  0.000E+00  3.06529E+01  2.084E-01  2.000E+01  2.000E+04 -2.160E-01



1
              HEAD IN LAYER   1 AT END OF TIME STEP   1 IN STRESS PERIOD    2
  ---------------------------------------------------------------------------

          1      2      3      4      5      6      7      8      9     10
         11     12     13     14     15     16     17     18     19     20
         21     22     23     24     25     26     27     28     29     30
 .........................................................................
   1  ****** ****** ****** ****** ****** ****** ****** ****** ****** ******
      ****** ****** ****** ****** ****** ****** ****** ****** ****** ******
      ****** ****** ****** ****** ****** ****** ****** ****** ****** ******
   2  ****** ****** ****** ****** ****** ****** ****** ****** ****** ******
      ****** ****** ****** ****** ****** ****** ****** ****** ****** ******
      ****** ****** ****** ****** ****** ****** ****** ****** ****** ******
   3  ****** ****** ****** ****** ****** ****** ****** ****** ****** ******
      ****** ****** ****** ****** ****** ****** ****** ****** ****** ******
      ****** ****** ****** ****** ****** ****** ****** ****** ****** ******
   4  ****** ****** ****** ****** ****** ****** ****** ****** ****** ******
      ****** ****** ****** ****** ****** ****** ****** ****** ****** ******
      ****** ****** ****** ****** ****** ****** ****** ****** ****** ******
   5  ****** ****** ****** ****** ****** ****** ****** ****** ****** ******
      ****** ****** ****** ****** ****** ****** ****** ****** ****** ******
      ****** ****** ****** ****** ****** ****** ****** ****** ****** ******
   6  ****** ****** ****** ****** ****** ****** ****** ****** ****** ******
      ****** ****** ****** ****** ****** ****** ****** ****** ****** ******
      ****** ****** ****** ****** ****** ****** ****** ****** ****** ******
   7  ****** ****** ****** ****** ****** ****** ****** ****** ****** ******
      ****** ****** ****** ****** ****** ****** ****** ****** ****** ******
      ****** ****** ****** ****** ****** ****** ****** ****** ****** ******
   8  ****** ****** ****** ****** ****** ****** ****** ****** ****** ******
      ****** ****** ****** ****** ****** ****** ****** ****** ****** ******
      ****** ****** ****** ****** ****** ****** ****** ****** ****** ******
   9  ****** ****** ****** ****** ****** ****** ****** ****** ****** ******
      ****** ****** ****** ****** ****** ****** ****** ****** ****** ******
      ****** ****** ****** ****** ****** ****** ****** ****** ****** ******
  10  ****** ****** ****** ****** ****** ****** ****** ****** ****** ******
      ****** ****** ****** ****** ****** ****** ****** ****** ****** ******
      ****** ****** ****** ****** ****** ****** ****** ****** ****** ******
  11  ****** ****** ****** ****** ****** ****** ****** ****** ****** ******
      ****** ****** ****** ****** ****** ****** ****** ****** ****** ******
      ****** ****** ****** ****** ****** ****** ****** ****** ****** ******
  12  ****** ****** ****** ****** ****** ****** ****** ****** ****** ******
      ****** ****** ****** ****** ****** ****** ****** ****** ****** ******
      ****** ****** ****** ****** ****** ****** ****** ****** ****** ******
  13  ****** ****** ****** ****** ****** ****** ****** ****** ****** ******
      ****** ****** ****** ****** ****** ****** ****** ****** ****** ******
      ****** ****** ****** ****** ****** ****** ****** ****** ****** ******
  14  ****** ****** ****** ****** ****** ****** ****** ****** ****** ******
      ****** ****** ****** ****** ****** ****** ****** ****** ****** ******
      ****** ****** ****** ****** ****** ****** ****** ****** ****** ******
  15  ****** ****** ****** ****** ****** ****** ****** ****** ****** ******
      ****** ****** ****** ****** ****** ****** ****** ****** ****** ******
      ****** ****** ****** ****** ****** ****** ****** ****** ****** ******
  16  ****** ****** ****** ****** ****** ****** ****** ****** ****** ******
      ****** ****** ****** ****** ****** ****** ****** ****** ****** ******
      ****** ****** ****** ****** ****** ****** ****** ****** ****** ******
  17  ****** ****** ****** ****** ****** ****** ****** ****** ****** ******
      ****** ****** ****** ****** ****** ****** ****** ****** ****** ******
      ****** ****** ****** ****** ****** ****** ****** ****** ****** ******
  18  ****** ****** ****** ****** ****** ****** ****** ****** ****** ******
      ****** ****** ****** ****** ****** ****** ****** ****** ****** ******
      ****** ****** ****** ****** ****** ****** ****** ****** ****** ******
  19  ****** ****** ****** ****** ****** ****** ****** ****** ****** ******
      ****** ****** ****** ****** ****** ****** ****** ****** ****** ******
      ****** ****** ****** ****** ****** ****** ****** ****** ****** ******
  20  ****** ****** ****** ****** ****** ****** ****** ****** ****** ******
      ****** ****** ****** ****** ****** ****** ****** ****** ****** ******
      ****** ****** ****** ****** ****** ****** ****** ****** ****** ******
  21  ****** ****** ****** ****** ****** ****** ****** ****** ****** ******
      ****** ****** ****** ****** ****** ****** ****** ****** ****** ******
      ****** ****** ****** ****** ****** ****** ****** ****** ****** ******
  22  ****** ****** ****** ****** ****** ****** ****** ****** ****** ******
      ****** ****** ****** ****** ****** ****** ****** ****** ****** ******
      ****** ****** ****** ****** ****** ****** ****** ****** ****** ******
  23  ****** ****** ****** ****** ****** ****** ****** ****** ****** ******
      ****** ****** ****** ****** ****** ****** ****** ****** ****** ******
      ****** ****** ****** ****** ****** ****** ****** ****** ****** ******
  24  ****** ****** ****** ****** ****** ****** ****** ****** ****** ******
      ****** ****** ****** ****** ****** ****** ****** ****** ****** ******
      ****** ****** ****** ****** ****** ****** ****** ****** ****** ******
  25  ****** ****** ****** ****** ****** ****** ****** ****** ****** ******
      ****** ****** ****** ****** ****** ****** ****** ****** ****** ******
      ****** ****** ****** ****** ****** ****** ****** ****** ****** ******

 HEAD WILL BE SAVED ON UNIT   51 AT END OF TIME STEP    1, STRESS PERIOD    2
1
  VOLUMETRIC BUDGET FOR ENTIRE MODEL AT END OF TIME STEP    1, STRESS PERIOD   2
  ------------------------------------------------------------------------------

     CUMULATIVE VOLUMES      L**3       RATES FOR THIS TIME STEP      L**3/T
     ------------------                 ------------------------

           IN:                                      IN:
           ---                                      ---
             STORAGE =    23957418.4949               STORAGE =       60135.3266
       CONSTANT HEAD =     2994352.4045         CONSTANT HEAD =       19122.8981
               WELLS =           0.0000                 WELLS =           0.0000
            RECHARGE =     6292800.0000              RECHARGE =       55200.0000
      STREAM LEAKAGE =      957501.6430        STREAM LEAKAGE =        6198.7804

            TOTAL IN =    34202072.5425              TOTAL IN =      140657.0050

          OUT:                                     OUT:
          ----                                     ----
             STORAGE =           0.0000               STORAGE =           0.0000
       CONSTANT HEAD =           0.0000         CONSTANT HEAD =           0.0000
               WELLS =     5757322.6554                 WELLS =       31460.7795
            RECHARGE =           0.0000              RECHARGE =           0.0000
      STREAM LEAKAGE =    28444751.1204        STREAM LEAKAGE =      109196.2359

           TOTAL OUT =    34202073.7758             TOTAL OUT =      140657.0155

            IN - OUT =          -1.2333              IN - OUT =      -1.0456E-02

 PERCENT DISCREPANCY =          -0.00     PERCENT DISCREPANCY =          -0.00






         TIME SUMMARY AT END OF TIME STEP    1 IN STRESS PERIOD    2
                    SECONDS     MINUTES      HOURS       DAYS        YEARS
                    -----------------------------------------------------------
   TIME STEP LENGTH 7.86240E+06 1.31040E+05  2184.0      91.000     0.24914    
 STRESS PERIOD TIME 7.86240E+06 1.31040E+05  2184.0      91.000     0.24914    
         TOTAL TIME 1.58112E+07 2.63520E+05  4392.0      183.00     0.50103    
1
1
                            STRESS PERIOD NO.    3, LENGTH =   91.00000    
                            -----------------------------------------------

                              NUMBER OF TIME STEPS =     1

                               MULTIPLIER FOR DELT =     1.500

                            INITIAL TIME STEP SIZE =   91.00000    

 WELL NO.  LAYER   ROW   COL   STRESS RATE         
 --------------------------------------------------
      1      1     20     21     -0.1142E+05
      2      1     18     16      -7655.    
      3      1     20     18      -5517.    
      4      1      4      9      -6868.    

      4 WELLS

                 RECHARGE =   0.00000    

 REUSING STREAM SEGMENT DATA FROM LAST STRESS PERIOD
 
 SOLVING FOR HEAD 


     7 CALLS TO PCG ROUTINE FOR TIME STEP   1 IN STRESS PERIOD    3
    27 TOTAL ITERATIONS

 OUTPUT CONTROL FOR STRESS PERIOD    3   TIME STEP    1
    SAVE BUDGET
    SAVE HEAD FOR ALL LAYERS
    PRINT HEAD FOR ALL LAYERS
 UBDSV2 SAVING "STREAMFLOW OUT  " ON UNIT  50 AT TIME STEP  1, STRESS PERIOD   3



 STREAM LISTING     PERIOD      3   STEP        1

 LAYER ROW COL. STREAM  RCH.  FLOW INTO     FLOW TO   FLOW OUT OF   OVRLND.     DIRECT     STREAM       STREAM     STREAM     STREAM   STREAMBED  STREAMBED
                SEG.NO.  NO.  STRM. RCH.    AQUIFER    STRM. RCH.    RUNOFF     PRECIP       ET          HEAD       DEPTH      WIDTH   CONDCTNC.   GRADIENT

   1   13    1     1     1    1.0000E+05 -2.5108E+03   1.0251E+05  0.000E+00  0.000E+00  0.000E+00  4.84071E+01  1.457E-01  2.000E+01  2.000E+04 -1.255E-01
   1   13    2     1     2    1.0251E+05 -3.6062E+03   1.0612E+05  0.000E+00  0.000E+00  0.000E+00  4.79325E+01  1.484E-01  2.000E+01  2.000E+04 -1.803E-01
   1   14    3     1     3    1.0612E+05 -6.3243E+02   1.0675E+05  0.000E+00  0.000E+00  0.000E+00  4.74570E+01  1.502E-01  2.000E+01  2.000E+04 -3.162E-02
   1   15    4     1     4    1.0675E+05 -6.1554E+02   1.0736E+05  0.000E+00  0.000E+00  0.000E+00  4.69802E+01  1.507E-01  2.000E+01  2.000E+04 -3.078E-02
   1   16    5     1     5    1.0736E+05 -2.2949E+03   1.0966E+05  0.000E+00  0.000E+00  0.000E+00  4.65042E+01  1.519E-01  2.000E+01  2.000E+04 -1.147E-01
   1   16    6     1     6    1.0966E+05 -1.3746E+03   1.1103E+05  0.000E+00  0.000E+00  0.000E+00  4.60285E+01  1.535E-01  2.000E+01  2.000E+04 -6.873E-02
   1   16    7     1     7    1.1103E+05 -1.3048E+03   1.1234E+05  0.000E+00  0.000E+00  0.000E+00  4.55523E+01  1.546E-01  2.000E+01  2.000E+04 -6.524E-02
   1   16    8     1     8    1.1234E+05 -1.2416E+03   1.1358E+05  0.000E+00  0.000E+00  0.000E+00  4.50761E+01  1.556E-01  2.000E+01  2.000E+04 -6.208E-02
   1   16    9     1     9    1.1358E+05 -1.1492E+03   1.1473E+05  0.000E+00  0.000E+00  0.000E+00  4.45998E+01  1.566E-01  2.000E+01  2.000E+04 -5.746E-02
   1   16   10     1    10    1.1473E+05 -1.0104E+03   1.1574E+05  0.000E+00  0.000E+00  0.000E+00  4.41234E+01  1.575E-01  2.000E+01  2.000E+04 -5.052E-02
   1   16   11     1    11    1.1574E+05 -8.1118E+02   1.1655E+05  0.000E+00  0.000E+00  0.000E+00  4.36469E+01  1.582E-01  2.000E+01  2.000E+04 -4.056E-02
   1   16   12     1    12    1.1655E+05 -8.8159E+02   1.1743E+05  0.000E+00  0.000E+00  0.000E+00  4.31703E+01  1.589E-01  2.000E+01  2.000E+04 -4.408E-02
   1   15   13     1    13    1.1743E+05 -9.2424E+02   1.1836E+05  0.000E+00  0.000E+00  0.000E+00  4.26938E+01  1.597E-01  2.000E+01  2.000E+04 -4.621E-02
   1   14   14     1    14    1.1836E+05 -1.4090E+03   1.1977E+05  0.000E+00  0.000E+00  0.000E+00  4.22174E+01  1.606E-01  2.000E+01  2.000E+04 -7.045E-02
   1   13   15     1    15    1.1977E+05 -2.0669E+03   1.2183E+05  0.000E+00  0.000E+00  0.000E+00  4.17416E+01  1.620E-01  2.000E+01  2.000E+04 -1.033E-01
   1   12   16     1    16    1.2183E+05 -3.3944E+03   1.2523E+05  0.000E+00  0.000E+00  0.000E+00  4.12665E+01  1.642E-01  2.000E+01  2.000E+04 -1.697E-01
   1   12   17     1    17    1.2523E+05 -1.9678E+03   1.2720E+05  0.000E+00  0.000E+00  0.000E+00  4.07913E+01  1.663E-01  2.000E+01  2.000E+04 -9.839E-02
   1   12   18     1    18    1.2720E+05 -1.8545E+03   1.2905E+05  0.000E+00  0.000E+00  0.000E+00  4.03156E+01  1.678E-01  2.000E+01  2.000E+04 -9.273E-02
   1   12   19     1    19    1.2905E+05 -2.6662E+03   1.3172E+05  0.000E+00  0.000E+00  0.000E+00  3.98401E+01  1.696E-01  2.000E+01  2.000E+04 -1.333E-01
   1   13   20     1    20    1.3172E+05 -1.2422E+03   1.3296E+05  0.000E+00  0.000E+00  0.000E+00  3.93643E+01  1.711E-01  2.000E+01  2.000E+04 -6.211E-02
   1   14   21     1    21    1.3296E+05 -2.0484E+02   1.3316E+05  0.000E+00  0.000E+00  0.000E+00  3.88876E+01  1.717E-01  2.000E+01  2.000E+04 -1.024E-02
   1   14   22     1    22    1.3316E+05  5.0987E+03   1.2806E+05  0.000E+00  0.000E+00  0.000E+00  3.84084E+01  1.698E-01  2.000E+01  2.000E+04  2.549E-01
   1    9   30     2     1    5.0000E+04 -9.6304E+02   5.0963E+04  0.000E+00  0.000E+00  0.000E+00  4.02415E+01  1.165E-01  2.000E+01  2.000E+04 -4.815E-02
   1    9   29     2     2    5.0963E+04 -1.2757E+03   5.2239E+04  0.000E+00  0.000E+00  0.000E+00  3.99931E+01  1.181E-01  2.000E+01  2.000E+04 -6.378E-02
   1    9   28     2     3    5.2239E+04 -1.5698E+03   5.3809E+04  0.000E+00  0.000E+00  0.000E+00  3.97450E+01  1.200E-01  2.000E+01  2.000E+04 -7.849E-02
   1    9   27     2     4    5.3809E+04 -3.1549E+03   5.6963E+04  0.000E+00  0.000E+00  0.000E+00  3.94982E+01  1.232E-01  2.000E+01  2.000E+04 -1.577E-01
   1   10   26     2     5    5.6963E+04 -2.1661E+03   5.9130E+04  0.000E+00  0.000E+00  0.000E+00  3.92517E+01  1.267E-01  2.000E+01  2.000E+04 -1.083E-01
   1   11   25     2     6    5.9130E+04 -1.8878E+03   6.1017E+04  0.000E+00  0.000E+00  0.000E+00  3.90044E+01  1.294E-01  2.000E+01  2.000E+04 -9.439E-02
   1   12   24     2     7    6.1017E+04 -1.9128E+03   6.2930E+04  0.000E+00  0.000E+00  0.000E+00  3.87568E+01  1.318E-01  2.000E+01  2.000E+04 -9.564E-02
   1   13   23     2     8    6.2930E+04 -2.7998E+02   6.3210E+04  0.000E+00  0.000E+00  0.000E+00  3.85082E+01  1.332E-01  2.000E+01  2.000E+04 -1.400E-02
   1   14   22     2     9    6.3210E+04  2.0712E+03   6.1139E+04  0.000E+00  0.000E+00  0.000E+00  3.82571E+01  1.321E-01  2.000E+01  2.000E+04  1.036E-01
   1   14   22     3     1    1.8920E+05 -8.3925E+03   1.9760E+05  0.000E+00  0.000E+00  0.000E+00  3.77339E+01  1.783E-01  2.000E+01  2.000E+04 -4.196E-01
   1   15   23     3     2    1.9760E+05 -2.3703E+02   1.9783E+05  0.000E+00  0.000E+00  0.000E+00  3.68474E+01  1.807E-01  2.000E+01  2.000E+04 -1.185E-02
   1   15   24     3     3    1.9783E+05 -2.2558E+02   1.9806E+05  0.000E+00  0.000E+00  0.000E+00  3.59586E+01  1.808E-01  2.000E+01  2.000E+04 -1.128E-02
   1   15   25     3     4    1.9806E+05 -2.5968E+02   1.9832E+05  0.000E+00  0.000E+00  0.000E+00  3.50698E+01  1.809E-01  2.000E+01  2.000E+04 -1.298E-02
   1   15   26     3     5    1.9832E+05 -3.3041E+02   1.9865E+05  0.000E+00  0.000E+00  0.000E+00  3.41811E+01  1.811E-01  2.000E+01  2.000E+04 -1.652E-02
   1   16   27     3     6    1.9865E+05 -3.5946E+02   1.9901E+05  0.000E+00  0.000E+00  0.000E+00  3.32924E+01  1.813E-01  2.000E+01  2.000E+04 -1.797E-02
   1   17   28     3     7    1.9901E+05 -1.4888E+03   2.0050E+05  0.000E+00  0.000E+00  0.000E+00  3.24040E+01  1.818E-01  2.000E+01  2.000E+04 -7.444E-02
   1   18   29     3     8    2.0050E+05 -2.6998E+03   2.0320E+05  0.000E+00  0.000E+00  0.000E+00  3.15163E+01  1.829E-01  2.000E+01  2.000E+04 -1.350E-01
   1   18   30     3     9    2.0320E+05 -3.0565E+03   2.0625E+05  0.000E+00  0.000E+00  0.000E+00  3.06289E+01  1.845E-01  2.000E+01  2.000E+04 -1.528E-01



1
              HEAD IN LAYER   1 AT END OF TIME STEP   1 IN STRESS PERIOD    3
  ---------------------------------------------------------------------------

          1      2      3      4      5      6      7      8      9     10
         11     12     13     14     15     16     17     18     19     20
         21     22     23     24     25     26     27     28     29     30
 .........................................................................
   1  ****** ****** ****** ****** ****** ****** ****** ****** ****** ******
      ****** ****** ****** ****** ****** ****** ****** ****** ****** ******
      ****** ****** ****** ****** ****** ****** ****** ****** ****** ******
   2  ****** ****** ****** ****** ****** ****** ****** ****** ****** ******
      ****** ****** ****** ****** ****** ****** ****** ****** ****** ******
      ****** ****** ****** ****** ****** ****** ****** ****** ****** ******
   3  ****** ****** ****** ****** ****** ****** ****** ****** ****** ******
      ****** ****** ****** ****** ****** ****** ****** ****** ****** ******
      ****** ****** ****** ****** ****** ****** ****** ****** ****** ******
   4  ****** ****** ****** ****** ****** ****** ****** ****** ****** ******
      ****** ****** ****** ****** ****** ****** ****** ****** ****** ******
      ****** ****** ****** ****** ****** ****** ****** ****** ****** ******
   5  ****** ****** ****** ****** ****** ****** ****** ****** ****** ******
      ****** ****** ****** ****** ****** ****** ****** ****** ****** ******
      ****** ****** ****** ****** ****** ****** ****** ****** ****** ******
   6  ****** ****** ****** ****** ****** ****** ****** ****** ****** ******
      ****** ****** ****** ****** ****** ****** ****** ****** ****** ******
      ****** ****** ****** ****** ****** ****** ****** ****** ****** ******
   7  ****** ****** ****** ****** ****** ****** ****** ****** ****** ******
      ****** ****** ****** ****** ****** ****** ****** ****** ****** ******
      ****** ****** ****** ****** ****** ****** ****** ****** ****** ******
   8  ****** ****** ****** ****** ****** ****** ****** ****** ****** ******
      ****** ****** ****** ****** ****** ****** ****** ****** ****** ******
      ****** ****** ****** ****** ****** ****** ****** ****** ****** ******
   9  ****** ****** ****** ****** ****** ****** ****** ****** ****** ******
      ****** ****** ****** ****** ****** ****** ****** ****** ****** ******
      ****** ****** ****** ****** ****** ****** ****** ****** ****** ******
  10  ****** ****** ****** ****** ****** ****** ****** ****** ****** ******
      ****** ****** ****** ****** ****** ****** ****** ****** ****** ******
      ****** ****** ****** ****** ****** ****** ****** ****** ****** ******
  11  ****** ****** ****** ****** ****** ****** ****** ****** ****** ******
      ****** ****** ****** ****** ****** ****** ****** ****** ****** ******
      ****** ****** ****** ****** ****** ****** ****** ****** ****** ******
  12  ****** ****** ****** ****** ****** ****** ****** ****** ****** ******
      ****** ****** ****** ****** ****** ****** ****** ****** ****** ******
      ****** ****** ****** ****** ****** ****** ****** ****** ****** ******
  13  ****** ****** ****** ****** ****** ****** ****** ****** ****** ******
      ****** ****** ****** ****** ****** ****** ****** ****** ****** ******
      ****** ****** ****** ****** ****** ****** ****** ****** ****** ******
  14  ****** ****** ****** ****** ****** ****** ****** ****** ****** ******
      ****** ****** ****** ****** ****** ****** ****** ****** ****** ******
      ****** ****** ****** ****** ****** ****** ****** ****** ****** ******
  15  ****** ****** ****** ****** ****** ****** ****** ****** ****** ******
      ****** ****** ****** ****** ****** ****** ****** ****** ****** ******
      ****** ****** ****** ****** ****** ****** ****** ****** ****** ******
  16  ****** ****** ****** ****** ****** ****** ****** ****** ****** ******
      ****** ****** ****** ****** ****** ****** ****** ****** ****** ******
      ****** ****** ****** ****** ****** ****** ****** ****** ****** ******
  17  ****** ****** ****** ****** ****** ****** ****** ****** ****** ******
      ****** ****** ****** ****** ****** ****** ****** ****** ****** ******
      ****** ****** ****** ****** ****** ****** ****** ****** ****** ******
  18  ****** ****** ****** ****** ****** ****** ****** ****** ****** ******
      ****** ****** ****** ****** ****** ****** ****** ****** ****** ******
      ****** ****** ****** ****** ****** ****** ****** ****** ****** ******
  19  ****** ****** ****** ****** ****** ****** ****** ****** ****** ******
      ****** ****** ****** ****** ****** ****** ****** ****** ****** ******
      ****** ****** ****** ****** ****** ****** ****** ****** ****** ******
  20  ****** ****** ****** ****** ****** ****** ****** ****** ****** ******
      ****** ****** ****** ****** ****** ****** ****** ****** ****** ******
      ****** ****** ****** ****** ****** ****** ****** ****** ****** ******
  21  ****** ****** ****** ****** ****** ****** ****** ****** ****** ******
      ****** ****** ****** ****** ****** ****** ****** ****** ****** ******
      ****** ****** ****** ****** ****** ****** ****** ****** ****** ******
  22  ****** ****** ****** ****** ****** ****** ****** ****** ****** ******
      ****** ****** ****** ****** ****** ****** ****** ****** ****** ******
      ****** ****** ****** ****** ****** ****** ****** ****** ****** ******
  23  ****** ****** ****** ****** ****** ****** ****** ****** ****** ******
      ****** ****** ****** ****** ****** ****** ****** ****** ****** ******
      ****** ****** ****** ****** ****** ****** ****** ****** ****** ******
  24  ****** ****** ****** ****** ****** ****** ****** ****** ****** ******
      ****** ****** ****** ****** ****** ****** ****** ****** ****** ******
      ****** ****** ****** ****** ****** ****** ****** ****** ****** ******
  25  ****** ****** ****** ****** ****** ****** ****** ****** ****** ******
      ****** ****** ****** ****** ****** ****** ****** ****** ****** ******
      ****** ****** ****** ****** ****** ****** ****** ****** ****** ******

 HEAD WILL BE SAVED ON UNIT   51 AT END OF TIME STEP    1, STRESS PERIOD    3
1
  VOLUMETRIC BUDGET FOR ENTIRE MODEL AT END OF TIME STEP    1, STRESS PERIOD   3
  ------------------------------------------------------------------------------

     CUMULATIVE VOLUMES      L**3       RATES FOR THIS TIME STEP      L**3/T
     ------------------                 ------------------------

           IN:                                      IN:
           ---                                      ---
             STORAGE =    29358709.9510               STORAGE =       59354.8512
       CONSTANT HEAD =     5575050.1245         CONSTANT HEAD =       28359.3156
               WELLS =           0.0000                 WELLS =           0.0000
            RECHARGE =     6292800.0000              RECHARGE =           0.0000
      STREAM LEAKAGE =     1609964.9750        STREAM LEAKAGE =        7169.9267

            TOTAL IN =    42836525.0504              TOTAL IN =       94884.0935

          OUT:                                     OUT:
          ----                                     ----
             STORAGE =           0.0000               STORAGE =           0.0000
       CONSTANT HEAD =           0.0000         CONSTANT HEAD =           0.0000
               WELLS =     8620253.5933                 WELLS =       31460.7795
            RECHARGE =           0.0000              RECHARGE =           0.0000
      STREAM LEAKAGE =    34216273.3747        STREAM LEAKAGE =       63423.3215

           TOTAL OUT =    42836526.9680             TOTAL OUT =       94884.1010

            IN - OUT =          -1.9176              IN - OUT =      -7.5199E-03

 PERCENT DISCREPANCY =          -0.00     PERCENT DISCREPANCY =          -0.00






         TIME SUMMARY AT END OF TIME STEP    1 IN STRESS PERIOD    3
                    SECONDS     MINUTES      HOURS       DAYS        YEARS
                    -----------------------------------------------------------
   TIME STEP LENGTH 7.86240E+06 1.31040E+05  2184.0      91.000     0.24914    
 STRESS PERIOD TIME 7.86240E+06 1.31040E+05  2184.0      91.000     0.24914    
         TOTAL TIME 2.36736E+07 3.94560E+05  6576.0      274.00     0.75017    
1
1
                            STRESS PERIOD NO.    4, LENGTH =   91.00000    
                            -----------------------------------------------

                              NUMBER OF TIME STEPS =     1

                               MULTIPLIER FOR DELT =     1.500

                            INITIAL TIME STEP SIZE =   91.00000    

 WELL NO.  LAYER   ROW   COL   STRESS RATE         
 --------------------------------------------------
      1      1     20     21     -0.1142E+05
      2      1     18     16      -7655.    
      3      1     20     18      -5517.    
      4      1      4      9      -6868.    

      4 WELLS

                 RECHARGE =  1.000000E-03

 REUSING STREAM SEGMENT DATA FROM LAST STRESS PERIOD
 
 SOLVING FOR HEAD 


     6 CALLS TO PCG ROUTINE FOR TIME STEP   1 IN STRESS PERIOD    4
    23 TOTAL ITERATIONS

 OUTPUT CONTROL FOR STRESS PERIOD    4   TIME STEP    1
    SAVE BUDGET
    SAVE HEAD FOR ALL LAYERS
    PRINT HEAD FOR ALL LAYERS
 UBDSV2 SAVING "STREAMFLOW OUT  " ON UNIT  50 AT TIME STEP  1, STRESS PERIOD   4



 STREAM LISTING     PERIOD      4   STEP        1

 LAYER ROW COL. STREAM  RCH.  FLOW INTO     FLOW TO   FLOW OUT OF   OVRLND.     DIRECT     STREAM       STREAM     STREAM     STREAM   STREAMBED  STREAMBED
                SEG.NO.  NO.  STRM. RCH.    AQUIFER    STRM. RCH.    RUNOFF     PRECIP       ET          HEAD       DEPTH      WIDTH   CONDCTNC.   GRADIENT

   1   13    1     1     1    1.0000E+05 -2.2151E+03   1.0222E+05  0.000E+00  0.000E+00  0.000E+00  4.84070E+01  1.456E-01  2.000E+01  2.000E+04 -1.108E-01
   1   13    2     1     2    1.0222E+05 -3.2667E+03   1.0548E+05  0.000E+00  0.000E+00  0.000E+00  4.79321E+01  1.480E-01  2.000E+01  2.000E+04 -1.633E-01
   1   14    3     1     3    1.0548E+05 -5.9597E+02   1.0608E+05  0.000E+00  0.000E+00  0.000E+00  4.74564E+01  1.496E-01  2.000E+01  2.000E+04 -2.980E-02
   1   15    4     1     4    1.0608E+05 -5.6973E+02   1.0665E+05  0.000E+00  0.000E+00  0.000E+00  4.69797E+01  1.501E-01  2.000E+01  2.000E+04 -2.849E-02
   1   16    5     1     5    1.0665E+05 -1.9574E+03   1.0860E+05  0.000E+00  0.000E+00  0.000E+00  4.65034E+01  1.512E-01  2.000E+01  2.000E+04 -9.787E-02
   1   16    6     1     6    1.0860E+05 -1.2018E+03   1.0981E+05  0.000E+00  0.000E+00  0.000E+00  4.60275E+01  1.525E-01  2.000E+01  2.000E+04 -6.009E-02
   1   16    7     1     7    1.0981E+05 -1.1407E+03   1.1095E+05  0.000E+00  0.000E+00  0.000E+00  4.55512E+01  1.535E-01  2.000E+01  2.000E+04 -5.703E-02
   1   16    8     1     8    1.1095E+05 -1.0777E+03   1.1203E+05  0.000E+00  0.000E+00  0.000E+00  4.50749E+01  1.544E-01  2.000E+01  2.000E+04 -5.388E-02
   1   16    9     1     9    1.1203E+05 -9.8271E+02   1.1301E+05  0.000E+00  0.000E+00  0.000E+00  4.45984E+01  1.553E-01  2.000E+01  2.000E+04 -4.914E-02
   1   16   10     1    10    1.1301E+05 -8.4024E+02   1.1385E+05  0.000E+00  0.000E+00  0.000E+00  4.41219E+01  1.560E-01  2.000E+01  2.000E+04 -4.201E-02
   1   16   11     1    11    1.1385E+05 -6.2988E+02   1.1448E+05  0.000E+00  0.000E+00  0.000E+00  4.36453E+01  1.566E-01  2.000E+01  2.000E+04 -3.149E-02
   1   16   12     1    12    1.1448E+05 -4.9766E+02   1.1498E+05  0.000E+00  0.000E+00  0.000E+00  4.31684E+01  1.571E-01  2.000E+01  2.000E+04 -2.488E-02
   1   15   13     1    13    1.1498E+05 -5.7589E+02   1.1555E+05  0.000E+00  0.000E+00  0.000E+00  4.26916E+01  1.575E-01  2.000E+01  2.000E+04 -2.879E-02
   1   14   14     1    14    1.1555E+05 -1.0465E+03   1.1660E+05  0.000E+00  0.000E+00  0.000E+00  4.22150E+01  1.582E-01  2.000E+01  2.000E+04 -5.232E-02
   1   13   15     1    15    1.1660E+05 -1.6930E+03   1.1829E+05  0.000E+00  0.000E+00  0.000E+00  4.17388E+01  1.593E-01  2.000E+01  2.000E+04 -8.465E-02
   1   12   16     1    16    1.1829E+05 -2.9518E+03   1.2124E+05  0.000E+00  0.000E+00  0.000E+00  4.12635E+01  1.612E-01  2.000E+01  2.000E+04 -1.476E-01
   1   12   17     1    17    1.2124E+05 -1.6917E+03   1.2293E+05  0.000E+00  0.000E+00  0.000E+00  4.07881E+01  1.631E-01  2.000E+01  2.000E+04 -8.458E-02
   1   12   18     1    18    1.2293E+05 -1.5985E+03   1.2453E+05  0.000E+00  0.000E+00  0.000E+00  4.03121E+01  1.644E-01  2.000E+01  2.000E+04 -7.992E-02
   1   12   19     1    19    1.2453E+05 -2.3686E+03   1.2690E+05  0.000E+00  0.000E+00  0.000E+00  3.98364E+01  1.659E-01  2.000E+01  2.000E+04 -1.184E-01
   1   13   20     1    20    1.2690E+05 -1.0001E+03   1.2790E+05  0.000E+00  0.000E+00  0.000E+00  3.93605E+01  1.673E-01  2.000E+01  2.000E+04 -5.001E-02
   1   14   21     1    21    1.2790E+05  1.6220E+02   1.2774E+05  0.000E+00  0.000E+00  0.000E+00  3.88835E+01  1.676E-01  2.000E+01  2.000E+04  8.110E-03
   1   14   22     1    22    1.2774E+05  5.1547E+03   1.2258E+05  0.000E+00  0.000E+00  0.000E+00  3.84041E+01  1.655E-01  2.000E+01  2.000E+04  2.577E-01
   1    9   30     2     1    5.0000E+04 -8.8028E+02   5.0880E+04  0.000E+00  0.000E+00  0.000E+00  4.02415E+01  1.165E-01  2.000E+01  2.000E+04 -4.401E-02
   1    9   29     2     2    5.0880E+04 -1.1860E+03   5.2066E+04  0.000E+00  0.000E+00  0.000E+00  3.99929E+01  1.179E-01  2.000E+01  2.000E+04 -5.930E-02
   1    9   28     2     3    5.2066E+04 -1.4600E+03   5.3526E+04  0.000E+00  0.000E+00  0.000E+00  3.97447E+01  1.197E-01  2.000E+01  2.000E+04 -7.300E-02
   1    9   27     2     4    5.3526E+04 -2.8975E+03   5.6424E+04  0.000E+00  0.000E+00  0.000E+00  3.94977E+01  1.227E-01  2.000E+01  2.000E+04 -1.449E-01
   1   10   26     2     5    5.6424E+04 -2.0163E+03   5.8440E+04  0.000E+00  0.000E+00  0.000E+00  3.92509E+01  1.259E-01  2.000E+01  2.000E+04 -1.008E-01
   1   11   25     2     6    5.8440E+04 -1.7762E+03   6.0216E+04  0.000E+00  0.000E+00  0.000E+00  3.90034E+01  1.284E-01  2.000E+01  2.000E+04 -8.881E-02
   1   12   24     2     7    6.0216E+04 -1.8165E+03   6.2033E+04  0.000E+00  0.000E+00  0.000E+00  3.87557E+01  1.307E-01  2.000E+01  2.000E+04 -9.083E-02
   1   13   23     2     8    6.2033E+04 -3.0544E+02   6.2338E+04  0.000E+00  0.000E+00  0.000E+00  3.85071E+01  1.321E-01  2.000E+01  2.000E+04 -1.527E-02
   1   14   22     2     9    6.2338E+04  2.1891E+03   6.0149E+04  0.000E+00  0.000E+00  0.000E+00  3.82559E+01  1.309E-01  2.000E+01  2.000E+04  1.095E-01
   1   14   22     3     1    1.8273E+05 -8.3233E+03   1.9106E+05  0.000E+00  0.000E+00  0.000E+00  3.77302E+01  1.747E-01  2.000E+01  2.000E+04 -4.162E-01
   1   15   23     3     2    1.9106E+05 -1.7937E+02   1.9124E+05  0.000E+00  0.000E+00  0.000E+00  3.68437E+01  1.771E-01  2.000E+01  2.000E+04 -8.969E-03
   1   15   24     3     3    1.9124E+05 -2.0843E+02   1.9144E+05  0.000E+00  0.000E+00  0.000E+00  3.59549E+01  1.772E-01  2.000E+01  2.000E+04 -1.042E-02
   1   15   25     3     4    1.9144E+05 -2.4574E+02   1.9169E+05  0.000E+00  0.000E+00  0.000E+00  3.50662E+01  1.773E-01  2.000E+01  2.000E+04 -1.229E-02
   1   15   26     3     5    1.9169E+05 -3.3147E+02   1.9202E+05  0.000E+00  0.000E+00  0.000E+00  3.41775E+01  1.775E-01  2.000E+01  2.000E+04 -1.657E-02
   1   16   27     3     6    1.9202E+05 -3.4480E+02   1.9237E+05  0.000E+00  0.000E+00  0.000E+00  3.32888E+01  1.776E-01  2.000E+01  2.000E+04 -1.724E-02
   1   17   28     3     7    1.9237E+05 -1.3679E+03   1.9373E+05  0.000E+00  0.000E+00  0.000E+00  3.24003E+01  1.781E-01  2.000E+01  2.000E+04 -6.840E-02
   1   18   29     3     8    1.9373E+05 -2.3557E+03   1.9609E+05  0.000E+00  0.000E+00  0.000E+00  3.15125E+01  1.791E-01  2.000E+01  2.000E+04 -1.178E-01
   1   18   30     3     9    1.9609E+05 -2.8724E+03   1.9896E+05  0.000E+00  0.000E+00  0.000E+00  3.06250E+01  1.806E-01  2.000E+01  2.000E+04 -1.436E-01



1
              HEAD IN LAYER   1 AT END OF TIME STEP   1 IN STRESS PERIOD    4
  ---------------------------------------------------------------------------

          1      2      3      4      5      6      7      8      9     10
         11     12     13     14     15     16     17     18     19     20
         21     22     23     24     25     26     27     28     29     30
 .........................................................................
   1  ****** ****** ****** ****** ****** ****** ****** ****** ****** ******
      ****** ****** ****** ****** ****** ****** ****** ****** ****** ******
      ****** ****** ****** ****** ****** ****** ****** ****** ****** ******
   2  ****** ****** ****** ****** ****** ****** ****** ****** ****** ******
      ****** ****** ****** ****** ****** ****** ****** ****** ****** ******
      ****** ****** ****** ****** ****** ****** ****** ****** ****** ******
   3  ****** ****** ****** ****** ****** ****** ****** ****** ****** ******
      ****** ****** ****** ****** ****** ****** ****** ****** ****** ******
      ****** ****** ****** ****** ****** ****** ****** ****** ****** ******
   4  ****** ****** ****** ****** ****** ****** ****** ****** ****** ******
      ****** ****** ****** ****** ****** ****** ****** ****** ****** ******
      ****** ****** ****** ****** ****** ****** ****** ****** ****** ******
   5  ****** ****** ****** ****** ****** ****** ****** ****** ****** ******
      ****** ****** ****** ****** ****** ****** ****** ****** ****** ******
      ****** ****** ****** ****** ****** ****** ****** ****** ****** ******
   6  ****** ****** ****** ****** ****** ****** ****** ****** ****** ******
      ****** ****** ****** ****** ****** ****** ****** ****** ****** ******
      ****** ****** ****** ****** ****** ****** ****** ****** ****** ******
   7  ****** ****** ****** ****** ****** ****** ****** ****** ****** ******
      ****** ****** ****** ****** ****** ****** ****** ****** ****** ******
      ****** ****** ****** ****** ****** ****** ****** ****** ****** ******
   8  ****** ****** ****** ****** ****** ****** ****** ****** ****** ******
      ****** ****** ****** ****** ****** ****** ****** ****** ****** ******
      ****** ****** ****** ****** ****** ****** ****** ****** ****** ******
   9  ****** ****** ****** ****** ****** ****** ****** ****** ****** ******
      ****** ****** ****** ****** ****** ****** ****** ****** ****** ******
      ****** ****** ****** ****** ****** ****** ****** ****** ****** ******
  10  ****** ****** ****** ****** ****** ****** ****** ****** ****** ******
      ****** ****** ****** ****** ****** ****** ****** ****** ****** ******
      ****** ****** ****** ****** ****** ****** ****** ****** ****** ******
  11  ****** ****** ****** ****** ****** ****** ****** ****** ****** ******
      ****** ****** ****** ****** ****** ****** ****** ****** ****** ******
      ****** ****** ****** ****** ****** ****** ****** ****** ****** ******
  12  ****** ****** ****** ****** ****** ****** ****** ****** ****** ******
      ****** ****** ****** ****** ****** ****** ****** ****** ****** ******
      ****** ****** ****** ****** ****** ****** ****** ****** ****** ******
  13  ****** ****** ****** ****** ****** ****** ****** ****** ****** ******
      ****** ****** ****** ****** ****** ****** ****** ****** ****** ******
      ****** ****** ****** ****** ****** ****** ****** ****** ****** ******
  14  ****** ****** ****** ****** ****** ****** ****** ****** ****** ******
      ****** ****** ****** ****** ****** ****** ****** ****** ****** ******
      ****** ****** ****** ****** ****** ****** ****** ****** ****** ******
  15  ****** ****** ****** ****** ****** ****** ****** ****** ****** ******
      ****** ****** ****** ****** ****** ****** ****** ****** ****** ******
      ****** ****** ****** ****** ****** ****** ****** ****** ****** ******
  16  ****** ****** ****** ****** ****** ****** ****** ****** ****** ******
      ****** ****** ****** ****** ****** ****** ****** ****** ****** ******
      ****** ****** ****** ****** ****** ****** ****** ****** ****** ******
  17  ****** ****** ****** ****** ****** ****** ****** ****** ****** ******
      ****** ****** ****** ****** ****** ****** ****** ****** ****** ******
      ****** ****** ****** ****** ****** ****** ****** ****** ****** ******
  18  ****** ****** ****** ****** ****** ****** ****** ****** ****** ******
      ****** ****** ****** ****** ****** ****** ****** ****** ****** ******
      ****** ****** ****** ****** ****** ****** ****** ****** ****** ******
  19  ****** ****** ****** ****** ****** ****** ****** ****** ****** ******
      ****** ****** ****** ****** ****** ****** ****** ****** ****** ******
      ****** ****** ****** ****** ****** ****** ****** ****** ****** ******
  20  ****** ****** ****** ****** ****** ****** ****** ****** ****** ******
      ****** ****** ****** ****** ****** ****** ****** ****** ****** ******
      ****** ****** ****** ****** ****** ****** ****** ****** ****** ******
  21  ****** ****** ****** ****** ****** ****** ****** ****** ****** ******
      ****** ****** ****** ****** ****** ****** ****** ****** ****** ******
      ****** ****** ****** ****** ****** ****** ****** ****** ****** ******
  22  ****** ****** ****** ****** ****** ****** ****** ****** ****** ******
      ****** ****** ****** ****** ****** ****** ****** ****** ****** ******
      ****** ****** ****** ****** ****** ****** ****** ****** ****** ******
  23  ****** ****** ****** ****** ****** ****** ****** ****** ****** ******
      ****** ****** ****** ****** ****** ****** ****** ****** ****** ******
      ****** ****** ****** ****** ****** ****** ****** ****** ****** ******
  24  ****** ****** ****** ****** ****** ****** ****** ****** ****** ******
      ****** ****** ****** ****** ****** ****** ****** ****** ****** ******
      ****** ****** ****** ****** ****** ****** ****** ****** ****** ******
  25  ****** ****** ****** ****** ****** ****** ****** ****** ****** ******
      ****** ****** ****** ****** ****** ****** ****** ****** ****** ******
      ****** ****** ****** ****** ****** ****** ****** ****** ****** ******

 HEAD WILL BE SAVED ON UNIT   51 AT END OF TIME STEP    1, STRESS PERIOD    4
1
  VOLUMETRIC BUDGET FOR ENTIRE MODEL AT END OF TIME STEP    1, STRESS PERIOD   4
  ------------------------------------------------------------------------------

     CUMULATIVE VOLUMES      L**3       RATES FOR THIS TIME STEP      L**3/T
     ------------------                 ------------------------

           IN:                                      IN:
           ---                                      ---
             STORAGE =    31308247.7584               STORAGE =       21423.4924
       CONSTANT HEAD =     8433651.9609         CONSTANT HEAD =       31413.2070
               WELLS =           0.0000                 WELLS =           0.0000
            RECHARGE =     8804400.0000              RECHARGE =       27600.0000
      STREAM LEAKAGE =     2293011.4980        STREAM LEAKAGE =        7506.0057

            TOTAL IN =    50839311.2173              TOTAL IN =       87942.7051

          OUT:                                     OUT:
          ----                                     ----
             STORAGE =        1182.6923               STORAGE =          12.9966
       CONSTANT HEAD =           0.0000         CONSTANT HEAD =           0.0000
               WELLS =    11483184.5312                 WELLS =       31460.7795
            RECHARGE =           0.0000              RECHARGE =           0.0000
      STREAM LEAKAGE =    39354946.0001        STREAM LEAKAGE =       56468.9299

           TOTAL OUT =    50839313.2235             TOTAL OUT =       87942.7061

            IN - OUT =          -2.0062              IN - OUT =      -9.7325E-04

 PERCENT DISCREPANCY =          -0.00     PERCENT DISCREPANCY =          -0.00






         TIME SUMMARY AT END OF TIME STEP    1 IN STRESS PERIOD    4
                    SECONDS     MINUTES      HOURS       DAYS        YEARS
                    -----------------------------------------------------------
   TIME STEP LENGTH 7.86240E+06 1.31040E+05  2184.0      91.000     0.24914    
 STRESS PERIOD TIME 7.86240E+06 1.31040E+05  2184.0      91.000     0.24914    
         TOTAL TIME 3.15360E+07 5.25600E+05  8760.0      365.00     0.99932    
1
1
                            STRESS PERIOD NO.    5, LENGTH =   92.00000    
                            -----------------------------------------------

                              NUMBER OF TIME STEPS =     1

                               MULTIPLIER FOR DELT =     1.500

                            INITIAL TIME STEP SIZE =   92.00000    

 WELL NO.  LAYER   ROW   COL   STRESS RATE         
 --------------------------------------------------
      1      1     20     21     -0.1142E+05
      2      1     18     16      -7655.    
      3      1     20     18      -5517.    
      4      1      4      9      -6868.    

      4 WELLS

                 RECHARGE =  5.000000E-04

 REUSING STREAM SEGMENT DATA FROM LAST STRESS PERIOD
 
 SOLVING FOR HEAD 


     7 CALLS TO PCG ROUTINE FOR TIME STEP   1 IN STRESS PERIOD    5
    26 TOTAL ITERATIONS

 OUTPUT CONTROL FOR STRESS PERIOD    5   TIME STEP    1
    SAVE BUDGET
    SAVE HEAD FOR ALL LAYERS
    PRINT HEAD FOR ALL LAYERS
 UBDSV2 SAVING "STREAMFLOW OUT  " ON UNIT  50 AT TIME STEP  1, STRESS PERIOD   5



 STREAM LISTING     PERIOD      5   STEP        1

 LAYER ROW COL. STREAM  RCH.  FLOW INTO     FLOW TO   FLOW OUT OF   OVRLND.     DIRECT     STREAM       STREAM     STREAM     STREAM   STREAMBED  STREAMBED
                SEG.NO.  NO.  STRM. RCH.    AQUIFER    STRM. RCH.    RUNOFF     PRECIP       ET          HEAD       DEPTH      WIDTH   CONDCTNC.   GRADIENT

   1   13    1     1     1    1.0000E+05 -1.7565E+03   1.0176E+05  0.000E+00  0.000E+00  0.000E+00  4.84068E+01  1.454E-01  2.000E+01  2.000E+04 -8.783E-02
   1   13    2     1     2    1.0176E+05 -2.7491E+03   1.0451E+05  0.000E+00  0.000E+00  0.000E+00  4.79314E+01  1.474E-01  2.000E+01  2.000E+04 -1.375E-01
   1   14    3     1     3    1.0451E+05 -4.6731E+02   1.0497E+05  0.000E+00  0.000E+00  0.000E+00  4.74555E+01  1.487E-01  2.000E+01  2.000E+04 -2.337E-02
   1   15    4     1     4    1.0497E+05 -4.3506E+02   1.0541E+05  0.000E+00  0.000E+00  0.000E+00  4.69787E+01  1.491E-01  2.000E+01  2.000E+04 -2.175E-02
   1   16    5     1     5    1.0541E+05 -1.5032E+03   1.0691E+05  0.000E+00  0.000E+00  0.000E+00  4.65022E+01  1.499E-01  2.000E+01  2.000E+04 -7.516E-02
   1   16    6     1     6    1.0691E+05 -9.3390E+02   1.0785E+05  0.000E+00  0.000E+00  0.000E+00  4.60260E+01  1.510E-01  2.000E+01  2.000E+04 -4.670E-02
   1   16    7     1     7    1.0785E+05 -8.8205E+02   1.0873E+05  0.000E+00  0.000E+00  0.000E+00  4.55495E+01  1.517E-01  2.000E+01  2.000E+04 -4.410E-02
   1   16    8     1     8    1.0873E+05 -8.2084E+02   1.0955E+05  0.000E+00  0.000E+00  0.000E+00  4.50729E+01  1.524E-01  2.000E+01  2.000E+04 -4.104E-02
   1   16    9     1     9    1.0955E+05 -7.2648E+02   1.1027E+05  0.000E+00  0.000E+00  0.000E+00  4.45963E+01  1.531E-01  2.000E+01  2.000E+04 -3.632E-02
   1   16   10     1    10    1.1027E+05 -5.8432E+02   1.1086E+05  0.000E+00  0.000E+00  0.000E+00  4.41195E+01  1.536E-01  2.000E+01  2.000E+04 -2.922E-02
   1   16   11     1    11    1.1086E+05 -3.6842E+02   1.1123E+05  0.000E+00  0.000E+00  0.000E+00  4.36427E+01  1.540E-01  2.000E+01  2.000E+04 -1.842E-02
   1   16   12     1    12    1.1123E+05 -2.0178E+01   1.1125E+05  0.000E+00  0.000E+00  0.000E+00  4.31656E+01  1.542E-01  2.000E+01  2.000E+04 -1.009E-03
   1   15   13     1    13    1.1125E+05 -8.3548E+01   1.1133E+05  0.000E+00  0.000E+00  0.000E+00  4.26883E+01  1.542E-01  2.000E+01  2.000E+04 -4.177E-03
   1   14   14     1    14    1.1133E+05 -5.2927E+02   1.1186E+05  0.000E+00  0.000E+00  0.000E+00  4.22113E+01  1.545E-01  2.000E+01  2.000E+04 -2.646E-02
   1   13   15     1    15    1.1186E+05 -1.1642E+03   1.1302E+05  0.000E+00  0.000E+00  0.000E+00  4.17347E+01  1.552E-01  2.000E+01  2.000E+04 -5.821E-02
   1   12   16     1    16    1.1302E+05 -2.3883E+03   1.1541E+05  0.000E+00  0.000E+00  0.000E+00  4.12589E+01  1.567E-01  2.000E+01  2.000E+04 -1.194E-01
   1   12   17     1    17    1.1541E+05 -1.3110E+03   1.1672E+05  0.000E+00  0.000E+00  0.000E+00  4.07832E+01  1.582E-01  2.000E+01  2.000E+04 -6.555E-02
   1   12   18     1    18    1.1672E+05 -1.2373E+03   1.1796E+05  0.000E+00  0.000E+00  0.000E+00  4.03069E+01  1.592E-01  2.000E+01  2.000E+04 -6.186E-02
   1   12   19     1    19    1.1796E+05 -1.9406E+03   1.1990E+05  0.000E+00  0.000E+00  0.000E+00  3.98310E+01  1.605E-01  2.000E+01  2.000E+04 -9.703E-02
   1   13   20     1    20    1.1990E+05 -6.0642E+02   1.2051E+05  0.000E+00  0.000E+00  0.000E+00  3.93547E+01  1.615E-01  2.000E+01  2.000E+04 -3.032E-02
   1   14   21     1    21    1.2051E+05  6.1210E+02   1.1990E+05  0.000E+00  0.000E+00  0.000E+00  3.88774E+01  1.615E-01  2.000E+01  2.000E+04  3.060E-02
   1   14   22     1    22    1.1990E+05  5.2432E+03   1.1465E+05  0.000E+00  0.000E+00  0.000E+00  3.83978E+01  1.592E-01  2.000E+01  2.000E+04  2.622E-01
   1    9   30     2     1    5.0000E+04 -6.5148E+02   5.0651E+04  0.000E+00  0.000E+00  0.000E+00  4.02413E+01  1.163E-01  2.000E+01  2.000E+04 -3.257E-02
   1    9   29     2     2    5.0651E+04 -9.5360E+02   5.1605E+04  0.000E+00  0.000E+00  0.000E+00  3.99924E+01  1.174E-01  2.000E+01  2.000E+04 -4.768E-02
   1    9   28     2     3    5.1605E+04 -1.2158E+03   5.2821E+04  0.000E+00  0.000E+00  0.000E+00  3.97439E+01  1.189E-01  2.000E+01  2.000E+04 -6.079E-02
   1    9   27     2     4    5.2821E+04 -2.5118E+03   5.5333E+04  0.000E+00  0.000E+00  0.000E+00  3.94964E+01  1.214E-01  2.000E+01  2.000E+04 -1.256E-01
   1   10   26     2     5    5.5333E+04 -1.6782E+03   5.7011E+04  0.000E+00  0.000E+00  0.000E+00  3.92492E+01  1.242E-01  2.000E+01  2.000E+04 -8.391E-02
   1   11   25     2     6    5.7011E+04 -1.4649E+03   5.8476E+04  0.000E+00  0.000E+00  0.000E+00  3.90013E+01  1.263E-01  2.000E+01  2.000E+04 -7.324E-02
   1   12   24     2     7    5.8476E+04 -1.5310E+03   6.0007E+04  0.000E+00  0.000E+00  0.000E+00  3.87533E+01  1.283E-01  2.000E+01  2.000E+04 -7.655E-02
   1   13   23     2     8    6.0007E+04 -2.3655E+02   6.0243E+04  0.000E+00  0.000E+00  0.000E+00  3.85044E+01  1.294E-01  2.000E+01  2.000E+04 -1.183E-02
   1   14   22     2     9    6.0243E+04  2.3482E+03   5.7895E+04  0.000E+00  0.000E+00  0.000E+00  3.82531E+01  1.281E-01  2.000E+01  2.000E+04  1.174E-01
   1   14   22     3     1    1.7255E+05 -8.2241E+03   1.8077E+05  0.000E+00  0.000E+00  0.000E+00  3.77244E+01  1.689E-01  2.000E+01  2.000E+04 -4.112E-01
   1   15   23     3     2    1.8077E+05 -6.2310E+01   1.8083E+05  0.000E+00  0.000E+00  0.000E+00  3.68379E+01  1.712E-01  2.000E+01  2.000E+04 -3.116E-03
   1   15   24     3     3    1.8083E+05 -1.2646E+02   1.8096E+05  0.000E+00  0.000E+00  0.000E+00  3.59491E+01  1.713E-01  2.000E+01  2.000E+04 -6.323E-03
   1   15   25     3     4    1.8096E+05 -1.6598E+02   1.8113E+05  0.000E+00  0.000E+00  0.000E+00  3.50603E+01  1.714E-01  2.000E+01  2.000E+04 -8.299E-03
   1   15   26     3     5    1.8113E+05 -2.5401E+02   1.8138E+05  0.000E+00  0.000E+00  0.000E+00  3.41715E+01  1.715E-01  2.000E+01  2.000E+04 -1.270E-02
   1   16   27     3     6    1.8138E+05 -2.4437E+02   1.8162E+05  0.000E+00  0.000E+00  0.000E+00  3.32828E+01  1.716E-01  2.000E+01  2.000E+04 -1.222E-02
   1   17   28     3     7    1.8162E+05 -1.0639E+03   1.8269E+05  0.000E+00  0.000E+00  0.000E+00  3.23942E+01  1.720E-01  2.000E+01  2.000E+04 -5.319E-02
   1   18   29     3     8    1.8269E+05 -1.9033E+03   1.8459E+05  0.000E+00  0.000E+00  0.000E+00  3.15062E+01  1.729E-01  2.000E+01  2.000E+04 -9.517E-02
   1   18   30     3     9    1.8459E+05 -2.5675E+03   1.8716E+05  0.000E+00  0.000E+00  0.000E+00  3.06186E+01  1.741E-01  2.000E+01  2.000E+04 -1.284E-01



1
              HEAD IN LAYER   1 AT END OF TIME STEP   1 IN STRESS PERIOD    5
  ---------------------------------------------------------------------------

          1      2      3      4      5      6      7      8      9     10
         11     12     13     14     15     16     17     18     19     20
         21     22     23     24     25     26     27     28     29     30
 .........................................................................
   1  ****** ****** ****** ****** ****** ****** ****** ****** ****** ******
      ****** ****** ****** ****** ****** ****** ****** ****** ****** ******
      ****** ****** ****** ****** ****** ****** ****** ****** ****** ******
   2  ****** ****** ****** ****** ****** ****** ****** ****** ****** ******
      ****** ****** ****** ****** ****** ****** ****** ****** ****** ******
      ****** ****** ****** ****** ****** ****** ****** ****** ****** ******
   3  ****** ****** ****** ****** ****** ****** ****** ****** ****** ******
      ****** ****** ****** ****** ****** ****** ****** ****** ****** ******
      ****** ****** ****** ****** ****** ****** ****** ****** ****** ******
   4  ****** ****** ****** ****** ****** ****** ****** ****** ****** ******
      ****** ****** ****** ****** ****** ****** ****** ****** ****** ******
      ****** ****** ****** ****** ****** ****** ****** ****** ****** ******
   5  ****** ****** ****** ****** ****** ****** ****** ****** ****** ******
      ****** ****** ****** ****** ****** ****** ****** ****** ****** ******
      ****** ****** ****** ****** ****** ****** ****** ****** ****** ******
   6  ****** ****** ****** ****** ****** ****** ****** ****** ****** ******
      ****** ****** ****** ****** ****** ****** ****** ****** ****** ******
      ****** ****** ****** ****** ****** ****** ****** ****** ****** ******
   7  ****** ****** ****** ****** ****** ****** ****** ****** ****** ******
      ****** ****** ****** ****** ****** ****** ****** ****** ****** ******
      ****** ****** ****** ****** ****** ****** ****** ****** ****** ******
   8  ****** ****** ****** ****** ****** ****** ****** ****** ****** ******
      ****** ****** ****** ****** ****** ****** ****** ****** ****** ******
      ****** ****** ****** ****** ****** ****** ****** ****** ****** ******
   9  ****** ****** ****** ****** ****** ****** ****** ****** ****** ******
      ****** ****** ****** ****** ****** ****** ****** ****** ****** ******
      ****** ****** ****** ****** ****** ****** ****** ****** ****** ******
  10  ****** ****** ****** ****** ****** ****** ****** ****** ****** ******
      ****** ****** ****** ****** ****** ****** ****** ****** ****** ******
      ****** ****** ****** ****** ****** ****** ****** ****** ****** ******
  11  ****** ****** ****** ****** ****** ****** ****** ****** ****** ******
      ****** ****** ****** ****** ****** ****** ****** ****** ****** ******
      ****** ****** ****** ****** ****** ****** ****** ****** ****** ******
  12  ****** ****** ****** ****** ****** ****** ****** ****** ****** ******
      ****** ****** ****** ****** ****** ****** ****** ****** ****** ******
      ****** ****** ****** ****** ****** ****** ****** ****** ****** ******
  13  ****** ****** ****** ****** ****** ****** ****** ****** ****** ******
      ****** ****** ****** ****** ****** ****** ****** ****** ****** ******
      ****** ****** ****** ****** ****** ****** ****** ****** ****** ******
  14  ****** ****** ****** ****** ****** ****** ****** ****** ****** ******
      ****** ****** ****** ****** ****** ****** ****** ****** ****** ******
      ****** ****** ****** ****** ****** ****** ****** ****** ****** ******
  15  ****** ****** ****** ****** ****** ****** ****** ****** ****** ******
      ****** ****** ****** ****** ****** ****** ****** ****** ****** ******
      ****** ****** ****** ****** ****** ****** ****** ****** ****** ******
  16  ****** ****** ****** ****** ****** ****** ****** ****** ****** ******
      ****** ****** ****** ****** ****** ****** ****** ****** ****** ******
      ****** ****** ****** ****** ****** ****** ****** ****** ****** ******
  17  ****** ****** ****** ****** ****** ****** ****** ****** ****** ******
      ****** ****** ****** ****** ****** ****** ****** ****** ****** ******
      ****** ****** ****** ****** ****** ****** ****** ****** ****** ******
  18  ****** ****** ****** ****** ****** ****** ****** ****** ****** ******
      ****** ****** ****** ****** ****** ****** ****** ****** ****** ******
      ****** ****** ****** ****** ****** ****** ****** ****** ****** ******
  19  ****** ****** ****** ****** ****** ****** ****** ****** ****** ******
      ****** ****** ****** ****** ****** ****** ****** ****** ****** ******
      ****** ****** ****** ****** ****** ****** ****** ****** ****** ******
  20  ****** ****** ****** ****** ****** ****** ****** ****** ****** ******
      ****** ****** ****** ****** ****** ****** ****** ****** ****** ******
      ****** ****** ****** ****** ****** ****** ****** ****** ****** ******
  21  ****** ****** ****** ****** ****** ****** ****** ****** ****** ******
      ****** ****** ****** ****** ****** ****** ****** ****** ****** ******
      ****** ****** ****** ****** ****** ****** ****** ****** ****** ******
  22  ****** ****** ****** ****** ****** ****** ****** ****** ****** ******
      ****** ****** ****** ****** ****** ****** ****** ****** ****** ******
      ****** ****** ****** ****** ****** ****** ****** ****** ****** ******
  23  ****** ****** ****** ****** ****** ****** ****** ****** ****** ******
      ****** ****** ****** ****** ****** ****** ****** ****** ****** ******
      ****** ****** ****** ****** ****** ****** ****** ****** ****** ******
  24  ****** ****** ****** ****** ****** ****** ****** ****** ****** ******
      ****** ****** ****** ****** ****** ****** ****** ****** ****** ******
      ****** ****** ****** ****** ****** ****** ****** ****** ****** ******
  25  ****** ****** ****** ****** ****** ****** ****** ****** ****** ******
      ****** ****** ****** ****** ****** ****** ****** ****** ****** ******
      ****** ****** ****** ****** ****** ****** ****** ****** ****** ******

 HEAD WILL BE SAVED ON UNIT   51 AT END OF TIME STEP    1, STRESS PERIOD    5
1
  VOLUMETRIC BUDGET FOR ENTIRE MODEL AT END OF TIME STEP    1, STRESS PERIOD   5
  ------------------------------------------------------------------------------

     CUMULATIVE VOLUMES      L**3       RATES FOR THIS TIME STEP      L**3/T
     ------------------                 ------------------------

           IN:                                      IN:
           ---                                      ---
             STORAGE =    33166054.4024               STORAGE =       20193.5505
       CONSTANT HEAD =    11619328.7574         CONSTANT HEAD =       34626.9217
               WELLS =           0.0000                 WELLS =           0.0000
            RECHARGE =    10074000.0000              RECHARGE =       13800.0000
      STREAM LEAKAGE =     3047728.9378        STREAM LEAKAGE =        8203.4504

            TOTAL IN =    57907112.0976              TOTAL IN =       76823.9226

          OUT:                                     OUT:
          ----                                     ----
             STORAGE =        1182.6923               STORAGE =           0.0000
       CONSTANT HEAD =           0.0000         CONSTANT HEAD =           0.0000
               WELLS =    14377576.2487                 WELLS =       31460.7795
            RECHARGE =           0.0000              RECHARGE =           0.0000
      STREAM LEAKAGE =    43528355.4732        STREAM LEAKAGE =       45363.1464

           TOTAL OUT =    57907114.4141             TOTAL OUT =       76823.9260

            IN - OUT =          -2.3165              IN - OUT =      -3.3729E-03

 PERCENT DISCREPANCY =          -0.00     PERCENT DISCREPANCY =          -0.00






         TIME SUMMARY AT END OF TIME STEP    1 IN STRESS PERIOD    5
                    SECONDS     MINUTES      HOURS       DAYS        YEARS
                    -----------------------------------------------------------
   TIME STEP LENGTH 7.94880E+06 1.32480E+05  2208.0      92.000     0.25188    
 STRESS PERIOD TIME 7.94880E+06 1.32480E+05  2208.0      92.000     0.25188    
         TOTAL TIME 3.94848E+07 6.58080E+05  10968.      457.00      1.2512    
1
1
                            STRESS PERIOD NO.    6, LENGTH =   91.00000    
                            -----------------------------------------------

                              NUMBER OF TIME STEPS =     1

                               MULTIPLIER FOR DELT =     1.500

                            INITIAL TIME STEP SIZE =   91.00000    

 WELL NO.  LAYER   ROW   COL   STRESS RATE         
 --------------------------------------------------
      1      1     20     21     -0.1142E+05
      2      1     18     16      -7655.    
      3      1     20     18      -5517.    
      4      1      4      9      -6868.    

      4 WELLS

                 RECHARGE =  2.000000E-03

 REUSING STREAM SEGMENT DATA FROM LAST STRESS PERIOD
 
 SOLVING FOR HEAD 


     7 CALLS TO PCG ROUTINE FOR TIME STEP   1 IN STRESS PERIOD    6
    26 TOTAL ITERATIONS

 OUTPUT CONTROL FOR STRESS PERIOD    6   TIME STEP    1
    SAVE BUDGET
    SAVE HEAD FOR ALL LAYERS
    PRINT HEAD FOR ALL LAYERS
 UBDSV2 SAVING "STREAMFLOW OUT  " ON UNIT  50 AT TIME STEP  1, STRESS PERIOD   6



 STREAM LISTING     PERIOD      6   STEP        1

 LAYER ROW COL. STREAM  RCH.  FLOW INTO     FLOW TO   FLOW OUT OF   OVRLND.     DIRECT     STREAM       STREAM     STREAM     STREAM   STREAMBED  STREAMBED
                SEG.NO.  NO.  STRM. RCH.    AQUIFER    STRM. RCH.    RUNOFF     PRECIP       ET          HEAD       DEPTH      WIDTH   CONDCTNC.   GRADIENT

   1   13    1     1     1    1.0000E+05 -2.0414E+03   1.0204E+05  0.000E+00  0.000E+00  0.000E+00  4.84069E+01  1.455E-01  2.000E+01  2.000E+04 -1.021E-01
   1   13    2     1     2    1.0204E+05 -3.0599E+03   1.0510E+05  0.000E+00  0.000E+00  0.000E+00  4.79318E+01  1.477E-01  2.000E+01  2.000E+04 -1.530E-01
   1   14    3     1     3    1.0510E+05 -6.1739E+02   1.0572E+05  0.000E+00  0.000E+00  0.000E+00  4.74561E+01  1.493E-01  2.000E+01  2.000E+04 -3.087E-02
   1   15    4     1     4    1.0572E+05 -5.9706E+02   1.0632E+05  0.000E+00  0.000E+00  0.000E+00  4.69794E+01  1.498E-01  2.000E+01  2.000E+04 -2.985E-02
   1   16    5     1     5    1.0632E+05 -1.9851E+03   1.0830E+05  0.000E+00  0.000E+00  0.000E+00  4.65032E+01  1.509E-01  2.000E+01  2.000E+04 -9.926E-02
   1   16    6     1     6    1.0830E+05 -1.2153E+03   1.0952E+05  0.000E+00  0.000E+00  0.000E+00  4.60273E+01  1.523E-01  2.000E+01  2.000E+04 -6.076E-02
   1   16    7     1     7    1.0952E+05 -1.1476E+03   1.1066E+05  0.000E+00  0.000E+00  0.000E+00  4.55510E+01  1.532E-01  2.000E+01  2.000E+04 -5.738E-02
   1   16    8     1     8    1.1066E+05 -1.0810E+03   1.1174E+05  0.000E+00  0.000E+00  0.000E+00  4.50746E+01  1.542E-01  2.000E+01  2.000E+04 -5.405E-02
   1   16    9     1     9    1.1174E+05 -9.8522E+02   1.1273E+05  0.000E+00  0.000E+00  0.000E+00  4.45982E+01  1.550E-01  2.000E+01  2.000E+04 -4.926E-02
   1   16   10     1    10    1.1273E+05 -8.4336E+02   1.1357E+05  0.000E+00  0.000E+00  0.000E+00  4.41217E+01  1.558E-01  2.000E+01  2.000E+04 -4.217E-02
   1   16   11     1    11    1.1357E+05 -6.2848E+02   1.1420E+05  0.000E+00  0.000E+00  0.000E+00  4.36450E+01  1.564E-01  2.000E+01  2.000E+04 -3.142E-02
   1   16   12     1    12    1.1420E+05 -4.3262E+02   1.1463E+05  0.000E+00  0.000E+00  0.000E+00  4.31682E+01  1.568E-01  2.000E+01  2.000E+04 -2.163E-02
   1   15   13     1    13    1.1463E+05 -5.0839E+02   1.1514E+05  0.000E+00  0.000E+00  0.000E+00  4.26913E+01  1.572E-01  2.000E+01  2.000E+04 -2.542E-02
   1   14   14     1    14    1.1514E+05 -9.4968E+02   1.1609E+05  0.000E+00  0.000E+00  0.000E+00  4.22146E+01  1.578E-01  2.000E+01  2.000E+04 -4.748E-02
   1   13   15     1    15    1.1609E+05 -1.5673E+03   1.1766E+05  0.000E+00  0.000E+00  0.000E+00  4.17384E+01  1.588E-01  2.000E+01  2.000E+04 -7.836E-02
   1   12   16     1    16    1.1766E+05 -2.7497E+03   1.2041E+05  0.000E+00  0.000E+00  0.000E+00  4.12629E+01  1.606E-01  2.000E+01  2.000E+04 -1.375E-01
   1   12   17     1    17    1.2041E+05 -1.6087E+03   1.2202E+05  0.000E+00  0.000E+00  0.000E+00  4.07874E+01  1.624E-01  2.000E+01  2.000E+04 -8.044E-02
   1   12   18     1    18    1.2202E+05 -1.5404E+03   1.2356E+05  0.000E+00  0.000E+00  0.000E+00  4.03113E+01  1.636E-01  2.000E+01  2.000E+04 -7.702E-02
   1   12   19     1    19    1.2356E+05 -2.3227E+03   1.2588E+05  0.000E+00  0.000E+00  0.000E+00  3.98356E+01  1.652E-01  2.000E+01  2.000E+04 -1.161E-01
   1   13   20     1    20    1.2588E+05 -1.0079E+03   1.2689E+05  0.000E+00  0.000E+00  0.000E+00  3.93597E+01  1.665E-01  2.000E+01  2.000E+04 -5.039E-02
   1   14   21     1    21    1.2689E+05  2.3716E+02   1.2665E+05  0.000E+00  0.000E+00  0.000E+00  3.88827E+01  1.668E-01  2.000E+01  2.000E+04  1.186E-02
   1   14   22     1    22    1.2665E+05  5.1436E+03   1.2151E+05  0.000E+00  0.000E+00  0.000E+00  3.84033E+01  1.646E-01  2.000E+01  2.000E+04  2.572E-01
   1    9   30     2     1    5.0000E+04 -1.0162E+03   5.1016E+04  0.000E+00  0.000E+00  0.000E+00  4.02416E+01  1.166E-01  2.000E+01  2.000E+04 -5.081E-02
   1    9   29     2     2    5.1016E+04 -1.3139E+03   5.2330E+04  0.000E+00  0.000E+00  0.000E+00  3.99932E+01  1.182E-01  2.000E+01  2.000E+04 -6.570E-02
   1    9   28     2     3    5.2330E+04 -1.5692E+03   5.3899E+04  0.000E+00  0.000E+00  0.000E+00  3.97451E+01  1.201E-01  2.000E+01  2.000E+04 -7.846E-02
   1    9   27     2     4    5.3899E+04 -2.9582E+03   5.6858E+04  0.000E+00  0.000E+00  0.000E+00  3.94982E+01  1.232E-01  2.000E+01  2.000E+04 -1.479E-01
   1   10   26     2     5    5.6858E+04 -2.1479E+03   5.9006E+04  0.000E+00  0.000E+00  0.000E+00  3.92516E+01  1.266E-01  2.000E+01  2.000E+04 -1.074E-01
   1   11   25     2     6    5.9006E+04 -1.9194E+03   6.0925E+04  0.000E+00  0.000E+00  0.000E+00  3.90042E+01  1.292E-01  2.000E+01  2.000E+04 -9.597E-02
   1   12   24     2     7    6.0925E+04 -1.9401E+03   6.2865E+04  0.000E+00  0.000E+00  0.000E+00  3.87567E+01  1.317E-01  2.000E+01  2.000E+04 -9.701E-02
   1   13   23     2     8    6.2865E+04 -3.7417E+02   6.3239E+04  0.000E+00  0.000E+00  0.000E+00  3.85082E+01  1.332E-01  2.000E+01  2.000E+04 -1.871E-02
   1   14   22     2     9    6.3239E+04  2.2179E+03   6.1021E+04  0.000E+00  0.000E+00  0.000E+00  3.82570E+01  1.320E-01  2.000E+01  2.000E+04  1.109E-01
   1   14   22     3     1    1.8253E+05 -8.3194E+03   1.9085E+05  0.000E+00  0.000E+00  0.000E+00  3.77301E+01  1.746E-01  2.000E+01  2.000E+04 -4.160E-01
   1   15   23     3     2    1.9085E+05 -1.9019E+02   1.9104E+05  0.000E+00  0.000E+00  0.000E+00  3.68436E+01  1.769E-01  2.000E+01  2.000E+04 -9.509E-03
   1   15   24     3     3    1.9104E+05 -2.4319E+02   1.9128E+05  0.000E+00  0.000E+00  0.000E+00  3.59548E+01  1.771E-01  2.000E+01  2.000E+04 -1.216E-02
   1   15   25     3     4    1.9128E+05 -2.8790E+02   1.9157E+05  0.000E+00  0.000E+00  0.000E+00  3.50661E+01  1.772E-01  2.000E+01  2.000E+04 -1.440E-02
   1   15   26     3     5    1.9157E+05 -4.0254E+02   1.9197E+05  0.000E+00  0.000E+00  0.000E+00  3.41774E+01  1.774E-01  2.000E+01  2.000E+04 -2.013E-02
   1   16   27     3     6    1.9197E+05 -4.0780E+02   1.9238E+05  0.000E+00  0.000E+00  0.000E+00  3.32887E+01  1.776E-01  2.000E+01  2.000E+04 -2.039E-02
   1   17   28     3     7    1.9238E+05 -1.5080E+03   1.9389E+05  0.000E+00  0.000E+00  0.000E+00  3.24004E+01  1.782E-01  2.000E+01  2.000E+04 -7.540E-02
   1   18   29     3     8    1.9389E+05 -2.3028E+03   1.9619E+05  0.000E+00  0.000E+00  0.000E+00  3.15125E+01  1.792E-01  2.000E+01  2.000E+04 -1.151E-01
   1   18   30     3     9    1.9619E+05 -2.8995E+03   1.9909E+05  0.000E+00  0.000E+00  0.000E+00  3.06251E+01  1.806E-01  2.000E+01  2.000E+04 -1.450E-01



1
              HEAD IN LAYER   1 AT END OF TIME STEP   1 IN STRESS PERIOD    6
  ---------------------------------------------------------------------------

          1      2      3      4      5      6      7      8      9     10
         11     12     13     14     15     16     17     18     19     20
         21     22     23     24     25     26     27     28     29     30
 .........................................................................
   1  ****** ****** ****** ****** ****** ****** ****** ****** ****** ******
      ****** ****** ****** ****** ****** ****** ****** ****** ****** ******
      ****** ****** ****** ****** ****** ****** ****** ****** ****** ******
   2  ****** ****** ****** ****** ****** ****** ****** ****** ****** ******
      ****** ****** ****** ****** ****** ****** ****** ****** ****** ******
      ****** ****** ****** ****** ****** ****** ****** ****** ****** ******
   3  ****** ****** ****** ****** ****** ****** ****** ****** ****** ******
      ****** ****** ****** ****** ****** ****** ****** ****** ****** ******
      ****** ****** ****** ****** ****** ****** ****** ****** ****** ******
   4  ****** ****** ****** ****** ****** ****** ****** ****** ****** ******
      ****** ****** ****** ****** ****** ****** ****** ****** ****** ******
      ****** ****** ****** ****** ****** ****** ****** ****** ****** ******
   5  ****** ****** ****** ****** ****** ****** ****** ****** ****** ******
      ****** ****** ****** ****** ****** ****** ****** ****** ****** ******
      ****** ****** ****** ****** ****** ****** ****** ****** ****** ******
   6  ****** ****** ****** ****** ****** ****** ****** ****** ****** ******
      ****** ****** ****** ****** ****** ****** ****** ****** ****** ******
      ****** ****** ****** ****** ****** ****** ****** ****** ****** ******
   7  ****** ****** ****** ****** ****** ****** ****** ****** ****** ******
      ****** ****** ****** ****** ****** ****** ****** ****** ****** ******
      ****** ****** ****** ****** ****** ****** ****** ****** ****** ******
   8  ****** ****** ****** ****** ****** ****** ****** ****** ****** ******
      ****** ****** ****** ****** ****** ****** ****** ****** ****** ******
      ****** ****** ****** ****** ****** ****** ****** ****** ****** ******
   9  ****** ****** ****** ****** ****** ****** ****** ****** ****** ******
      ****** ****** ****** ****** ****** ****** ****** ****** ****** ******
      ****** ****** ****** ****** ****** ****** ****** ****** ****** ******
  10  ****** ****** ****** ****** ****** ****** ****** ****** ****** ******
      ****** ****** ****** ****** ****** ****** ****** ****** ****** ******
      ****** ****** ****** ****** ****** ****** ****** ****** ****** ******
  11  ****** ****** ****** ****** ****** ****** ****** ****** ****** ******
      ****** ****** ****** ****** ****** ****** ****** ****** ****** ******
      ****** ****** ****** ****** ****** ****** ****** ****** ****** ******
  12  ****** ****** ****** ****** ****** ****** ****** ****** ****** ******
      ****** ****** ****** ****** ****** ****** ****** ****** ****** ******
      ****** ****** ****** ****** ****** ****** ****** ****** ****** ******
  13  ****** ****** ****** ****** ****** ****** ****** ****** ****** ******
      ****** ****** ****** ****** ****** ****** ****** ****** ****** ******
      ****** ****** ****** ****** ****** ****** ****** ****** ****** ******
  14  ****** ****** ****** ****** ****** ****** ****** ****** ****** ******
      ****** ****** ****** ****** ****** ****** ****** ****** ****** ******
      ****** ****** ****** ****** ****** ****** ****** ****** ****** ******
  15  ****** ****** ****** ****** ****** ****** ****** ****** ****** ******
      ****** ****** ****** ****** ****** ****** ****** ****** ****** ******
      ****** ****** ****** ****** ****** ****** ****** ****** ****** ******
  16  ****** ****** ****** ****** ****** ****** ****** ****** ****** ******
      ****** ****** ****** ****** ****** ****** ****** ****** ****** ******
      ****** ****** ****** ****** ****** ****** ****** ****** ****** ******
  17  ****** ****** ****** ****** ****** ****** ****** ****** ****** ******
      ****** ****** ****** ****** ****** ****** ****** ****** ****** ******
      ****** ****** ****** ****** ****** ****** ****** ****** ****** ******
  18  ****** ****** ****** ****** ****** ****** ****** ****** ****** ******
      ****** ****** ****** ****** ****** ****** ****** ****** ****** ******
      ****** ****** ****** ****** ****** ****** ****** ****** ****** ******
  19  ****** ****** ****** ****** ****** ****** ****** ****** ****** ******
      ****** ****** ****** ****** ****** ****** ****** ****** ****** ******
      ****** ****** ****** ****** ****** ****** ****** ****** ****** ******
  20  ****** ****** ****** ****** ****** ****** ****** ****** ****** ******
      ****** ****** ****** ****** ****** ****** ****** ****** ****** ******
      ****** ****** ****** ****** ****** ****** ****** ****** ****** ******
  21  ****** ****** ****** ****** ****** ****** ****** ****** ****** ******
      ****** ****** ****** ****** ****** ****** ****** ****** ****** ******
      ****** ****** ****** ****** ****** ****** ****** ****** ****** ******
  22  ****** ****** ****** ****** ****** ****** ****** ****** ****** ******
      ****** ****** ****** ****** ****** ****** ****** ****** ****** ******
      ****** ****** ****** ****** ****** ****** ****** ****** ****** ******
  23  ****** ****** ****** ****** ****** ****** ****** ****** ****** ******
      ****** ****** ****** ****** ****** ****** ****** ****** ****** ******
      ****** ****** ****** ****** ****** ****** ****** ****** ****** ******
  24  ****** ****** ****** ****** ****** ****** ****** ****** ****** ******
      ****** ****** ****** ****** ****** ****** ****** ****** ****** ******
      ****** ****** ****** ****** ****** ****** ****** ****** ****** ******
  25  ****** ****** ****** ****** ****** ****** ****** ****** ****** ******
      ****** ****** ****** ****** ****** ****** ****** ****** ****** ******
      ****** ****** ****** ****** ****** ****** ****** ****** ****** ******

 HEAD WILL BE SAVED ON UNIT   51 AT END OF TIME STEP    1, STRESS PERIOD    6
1
  VOLUMETRIC BUDGET FOR ENTIRE MODEL AT END OF TIME STEP    1, STRESS PERIOD   6
  ------------------------------------------------------------------------------

     CUMULATIVE VOLUMES      L**3       RATES FOR THIS TIME STEP      L**3/T
     ------------------                 ------------------------

           IN:                                      IN:
           ---                                      ---
             STORAGE =    33168124.8915               STORAGE =          22.7526
       CONSTANT HEAD =    14613431.3232         CONSTANT HEAD =       32902.2260
               WELLS =           0.0000                 WELLS =           0.0000
            RECHARGE =    15097200.0000              RECHARGE =       55200.0000
      STREAM LEAKAGE =     3739210.3999        STREAM LEAKAGE =        7598.6974

            TOTAL IN =    66617966.6145              TOTAL IN =       95723.6760

          OUT:                                     OUT:
          ----                                     ----
             STORAGE =      690337.3208               STORAGE =        7573.1278
       CONSTANT HEAD =           0.0000         CONSTANT HEAD =           0.0000
               WELLS =    17240507.1866                 WELLS =       31460.7795
            RECHARGE =           0.0000              RECHARGE =           0.0000
      STREAM LEAKAGE =    48687124.1703        STREAM LEAKAGE =       56689.7659

           TOTAL OUT =    66617968.6777             TOTAL OUT =       95723.6732

            IN - OUT =          -2.0632              IN - OUT =       2.7842E-03

 PERCENT DISCREPANCY =          -0.00     PERCENT DISCREPANCY =           0.00






         TIME SUMMARY AT END OF TIME STEP    1 IN STRESS PERIOD    6
                    SECONDS     MINUTES      HOURS       DAYS        YEARS
                    -----------------------------------------------------------
   TIME STEP LENGTH 7.86240E+06 1.31040E+05  2184.0      91.000     0.24914    
 STRESS PERIOD TIME 7.86240E+06 1.31040E+05  2184.0      91.000     0.24914    
         TOTAL TIME 4.73472E+07 7.89120E+05  13152.      548.00      1.5003    
1
1
                            STRESS PERIOD NO.    7, LENGTH =   91.00000    
                            -----------------------------------------------

                              NUMBER OF TIME STEPS =     1

                               MULTIPLIER FOR DELT =     1.500

                            INITIAL TIME STEP SIZE =   91.00000    

 WELL NO.  LAYER   ROW   COL   STRESS RATE         
 --------------------------------------------------
      1      1     20     21     -0.1142E+05
      2      1     18     16      -7655.    
      3      1     20     18      -5517.    
      4      1      4      9      -6868.    

      4 WELLS

                 RECHARGE =   0.00000    

 REUSING STREAM SEGMENT DATA FROM LAST STRESS PERIOD
 
 SOLVING FOR HEAD 


     7 CALLS TO PCG ROUTINE FOR TIME STEP   1 IN STRESS PERIOD    7
    26 TOTAL ITERATIONS

 OUTPUT CONTROL FOR STRESS PERIOD    7   TIME STEP    1
    SAVE BUDGET
    SAVE HEAD FOR ALL LAYERS
    PRINT HEAD FOR ALL LAYERS
 UBDSV2 SAVING "STREAMFLOW OUT  " ON UNIT  50 AT TIME STEP  1, STRESS PERIOD   7



 STREAM LISTING     PERIOD      7   STEP        1

 LAYER ROW COL. STREAM  RCH.  FLOW INTO     FLOW TO   FLOW OUT OF   OVRLND.     DIRECT     STREAM       STREAM     STREAM     STREAM   STREAMBED  STREAMBED
                SEG.NO.  NO.  STRM. RCH.    AQUIFER    STRM. RCH.    RUNOFF     PRECIP       ET          HEAD       DEPTH      WIDTH   CONDCTNC.   GRADIENT

   1   13    1     1     1    1.0000E+05 -1.3548E+03   1.0135E+05  0.000E+00  0.000E+00  0.000E+00  4.84066E+01  1.452E-01  2.000E+01  2.000E+04 -6.774E-02
   1   13    2     1     2    1.0135E+05 -2.2913E+03   1.0365E+05  0.000E+00  0.000E+00  0.000E+00  4.79309E+01  1.468E-01  2.000E+01  2.000E+04 -1.146E-01
   1   14    3     1     3    1.0365E+05 -3.6193E+02   1.0401E+05  0.000E+00  0.000E+00  0.000E+00  4.74548E+01  1.479E-01  2.000E+01  2.000E+04 -1.810E-02
   1   15    4     1     4    1.0401E+05 -3.3122E+02   1.0434E+05  0.000E+00  0.000E+00  0.000E+00  4.69778E+01  1.482E-01  2.000E+01  2.000E+04 -1.656E-02
   1   16    5     1     5    1.0434E+05 -1.2227E+03   1.0556E+05  0.000E+00  0.000E+00  0.000E+00  4.65012E+01  1.489E-01  2.000E+01  2.000E+04 -6.114E-02
   1   16    6     1     6    1.0556E+05 -7.5463E+02   1.0632E+05  0.000E+00  0.000E+00  0.000E+00  4.60247E+01  1.497E-01  2.000E+01  2.000E+04 -3.773E-02
   1   16    7     1     7    1.0632E+05 -7.0508E+02   1.0702E+05  0.000E+00  0.000E+00  0.000E+00  4.55481E+01  1.504E-01  2.000E+01  2.000E+04 -3.525E-02
   1   16    8     1     8    1.0702E+05 -6.4405E+02   1.0767E+05  0.000E+00  0.000E+00  0.000E+00  4.50714E+01  1.509E-01  2.000E+01  2.000E+04 -3.220E-02
   1   16    9     1     9    1.0767E+05 -5.5095E+02   1.0822E+05  0.000E+00  0.000E+00  0.000E+00  4.45946E+01  1.514E-01  2.000E+01  2.000E+04 -2.755E-02
   1   16   10     1    10    1.0822E+05 -4.1101E+02   1.0863E+05  0.000E+00  0.000E+00  0.000E+00  4.41178E+01  1.518E-01  2.000E+01  2.000E+04 -2.055E-02
   1   16   11     1    11    1.0863E+05 -1.9389E+02   1.0882E+05  0.000E+00  0.000E+00  0.000E+00  4.36407E+01  1.521E-01  2.000E+01  2.000E+04 -9.695E-03
   1   16   12     1    12    1.0882E+05  3.0132E+02   1.0852E+05  0.000E+00  0.000E+00  0.000E+00  4.31634E+01  1.521E-01  2.000E+01  2.000E+04  1.507E-02
   1   15   13     1    13    1.0852E+05  2.7694E+02   1.0824E+05  0.000E+00  0.000E+00  0.000E+00  4.26859E+01  1.518E-01  2.000E+01  2.000E+04  1.385E-02
   1   14   14     1    14    1.0824E+05 -1.3635E+02   1.0838E+05  0.000E+00  0.000E+00  0.000E+00  4.22086E+01  1.518E-01  2.000E+01  2.000E+04 -6.818E-03
   1   13   15     1    15    1.0838E+05 -7.5267E+02   1.0913E+05  0.000E+00  0.000E+00  0.000E+00  4.17317E+01  1.521E-01  2.000E+01  2.000E+04 -3.763E-02
   1   12   16     1    16    1.0913E+05 -1.9430E+03   1.1108E+05  0.000E+00  0.000E+00  0.000E+00  4.12555E+01  1.533E-01  2.000E+01  2.000E+04 -9.715E-02
   1   12   17     1    17    1.1108E+05 -1.0231E+03   1.1210E+05  0.000E+00  0.000E+00  0.000E+00  4.07795E+01  1.545E-01  2.000E+01  2.000E+04 -5.115E-02
   1   12   18     1    18    1.1210E+05 -9.6985E+02   1.1307E+05  0.000E+00  0.000E+00  0.000E+00  4.03030E+01  1.553E-01  2.000E+01  2.000E+04 -4.849E-02
   1   12   19     1    19    1.1307E+05 -1.6283E+03   1.1470E+05  0.000E+00  0.000E+00  0.000E+00  3.98268E+01  1.564E-01  2.000E+01  2.000E+04 -8.142E-02
   1   13   20     1    20    1.1470E+05 -3.2752E+02   1.1502E+05  0.000E+00  0.000E+00  0.000E+00  3.93504E+01  1.572E-01  2.000E+01  2.000E+04 -1.638E-02
   1   14   21     1    21    1.1502E+05  9.1700E+02   1.1411E+05  0.000E+00  0.000E+00  0.000E+00  3.88729E+01  1.569E-01  2.000E+01  2.000E+04  4.585E-02
   1   14   22     1    22    1.1411E+05  5.3007E+03   1.0881E+05  0.000E+00  0.000E+00  0.000E+00  3.83930E+01  1.544E-01  2.000E+01  2.000E+04  2.650E-01
   1    9   30     2     1    5.0000E+04 -5.0285E+02   5.0503E+04  0.000E+00  0.000E+00  0.000E+00  4.02412E+01  1.162E-01  2.000E+01  2.000E+04 -2.514E-02
   1    9   29     2     2    5.0503E+04 -8.0229E+02   5.1305E+04  0.000E+00  0.000E+00  0.000E+00  3.99921E+01  1.171E-01  2.000E+01  2.000E+04 -4.011E-02
   1    9   28     2     3    5.1305E+04 -1.0561E+03   5.2361E+04  0.000E+00  0.000E+00  0.000E+00  3.97434E+01  1.184E-01  2.000E+01  2.000E+04 -5.281E-02
   1    9   27     2     4    5.2361E+04 -2.2605E+03   5.4622E+04  0.000E+00  0.000E+00  0.000E+00  3.94957E+01  1.207E-01  2.000E+01  2.000E+04 -1.130E-01
   1   10   26     2     5    5.4622E+04 -1.4479E+03   5.6070E+04  0.000E+00  0.000E+00  0.000E+00  3.92481E+01  1.231E-01  2.000E+01  2.000E+04 -7.239E-02
   1   11   25     2     6    5.6070E+04 -1.2477E+03   5.7317E+04  0.000E+00  0.000E+00  0.000E+00  3.89999E+01  1.249E-01  2.000E+01  2.000E+04 -6.239E-02
   1   12   24     2     7    5.7317E+04 -1.3274E+03   5.8645E+04  0.000E+00  0.000E+00  0.000E+00  3.87516E+01  1.266E-01  2.000E+01  2.000E+04 -6.637E-02
   1   13   23     2     8    5.8645E+04 -1.8200E+02   5.8827E+04  0.000E+00  0.000E+00  0.000E+00  3.85026E+01  1.276E-01  2.000E+01  2.000E+04 -9.100E-03
   1   14   22     2     9    5.8827E+04  2.4629E+03   5.6364E+04  0.000E+00  0.000E+00  0.000E+00  3.82511E+01  1.261E-01  2.000E+01  2.000E+04  1.231E-01
   1   14   22     3     1    1.6517E+05 -8.1566E+03   1.7333E+05  0.000E+00  0.000E+00  0.000E+00  3.77201E+01  1.646E-01  2.000E+01  2.000E+04 -4.078E-01
   1   15   23     3     2    1.7333E+05  2.0926E+01   1.7331E+05  0.000E+00  0.000E+00  0.000E+00  3.68336E+01  1.670E-01  2.000E+01  2.000E+04  1.046E-03
   1   15   24     3     3    1.7331E+05 -6.6907E+01   1.7337E+05  0.000E+00  0.000E+00  0.000E+00  3.59447E+01  1.670E-01  2.000E+01  2.000E+04 -3.345E-03
   1   15   25     3     4    1.7337E+05 -1.0888E+02   1.7348E+05  0.000E+00  0.000E+00  0.000E+00  3.50559E+01  1.670E-01  2.000E+01  2.000E+04 -5.444E-03
   1   15   26     3     5    1.7348E+05 -1.9984E+02   1.7368E+05  0.000E+00  0.000E+00  0.000E+00  3.41671E+01  1.671E-01  2.000E+01  2.000E+04 -9.992E-03
   1   16   27     3     6    1.7368E+05 -1.7271E+02   1.7385E+05  0.000E+00  0.000E+00  0.000E+00  3.32783E+01  1.672E-01  2.000E+01  2.000E+04 -8.636E-03
   1   17   28     3     7    1.7385E+05 -8.5685E+02   1.7471E+05  0.000E+00  0.000E+00  0.000E+00  3.23897E+01  1.675E-01  2.000E+01  2.000E+04 -4.284E-02
   1   18   29     3     8    1.7471E+05 -1.5959E+03   1.7631E+05  0.000E+00  0.000E+00  0.000E+00  3.15016E+01  1.682E-01  2.000E+01  2.000E+04 -7.980E-02
   1   18   30     3     9    1.7631E+05 -2.3584E+03   1.7867E+05  0.000E+00  0.000E+00  0.000E+00  3.06138E+01  1.694E-01  2.000E+01  2.000E+04 -1.179E-01



1
              HEAD IN LAYER   1 AT END OF TIME STEP   1 IN STRESS PERIOD    7
  ---------------------------------------------------------------------------

          1      2      3      4      5      6      7      8      9     10
         11     12     13     14     15     16     17     18     19     20
         21     22     23     24     25     26     27     28     29     30
 .........................................................................
   1  ****** ****** ****** ****** ****** ****** ****** ****** ****** ******
      ****** ****** ****** ****** ****** ****** ****** ****** ****** ******
      ****** ****** ****** ****** ****** ****** ****** ****** ****** ******
   2  ****** ****** ****** ****** ****** ****** ****** ****** ****** ******
      ****** ****** ****** ****** ****** ****** ****** ****** ****** ******
      ****** ****** ****** ****** ****** ****** ****** ****** ****** ******
   3  ****** ****** ****** ****** ****** ****** ****** ****** ****** ******
      ****** ****** ****** ****** ****** ****** ****** ****** ****** ******
      ****** ****** ****** ****** ****** ****** ****** ****** ****** ******
   4  ****** ****** ****** ****** ****** ****** ****** ****** ****** ******
      ****** ****** ****** ****** ****** ****** ****** ****** ****** ******
      ****** ****** ****** ****** ****** ****** ****** ****** ****** ******
   5  ****** ****** ****** ****** ****** ****** ****** ****** ****** ******
      ****** ****** ****** ****** ****** ****** ****** ****** ****** ******
      ****** ****** ****** ****** ****** ****** ****** ****** ****** ******
   6  ****** ****** ****** ****** ****** ****** ****** ****** ****** ******
      ****** ****** ****** ****** ****** ****** ****** ****** ****** ******
      ****** ****** ****** ****** ****** ****** ****** ****** ****** ******
   7  ****** ****** ****** ****** ****** ****** ****** ****** ****** ******
      ****** ****** ****** ****** ****** ****** ****** ****** ****** ******
      ****** ****** ****** ****** ****** ****** ****** ****** ****** ******
   8  ****** ****** ****** ****** ****** ****** ****** ****** ****** ******
      ****** ****** ****** ****** ****** ****** ****** ****** ****** ******
      ****** ****** ****** ****** ****** ****** ****** ****** ****** ******
   9  ****** ****** ****** ****** ****** ****** ****** ****** ****** ******
      ****** ****** ****** ****** ****** ****** ****** ****** ****** ******
      ****** ****** ****** ****** ****** ****** ****** ****** ****** ******
  10  ****** ****** ****** ****** ****** ****** ****** ****** ****** ******
      ****** ****** ****** ****** ****** ****** ****** ****** ****** ******
      ****** ****** ****** ****** ****** ****** ****** ****** ****** ******
  11  ****** ****** ****** ****** ****** ****** ****** ****** ****** ******
      ****** ****** ****** ****** ****** ****** ****** ****** ****** ******
      ****** ****** ****** ****** ****** ****** ****** ****** ****** ******
  12  ****** ****** ****** ****** ****** ****** ****** ****** ****** ******
      ****** ****** ****** ****** ****** ****** ****** ****** ****** ******
      ****** ****** ****** ****** ****** ****** ****** ****** ****** ******
  13  ****** ****** ****** ****** ****** ****** ****** ****** ****** ******
      ****** ****** ****** ****** ****** ****** ****** ****** ****** ******
      ****** ****** ****** ****** ****** ****** ****** ****** ****** ******
  14  ****** ****** ****** ****** ****** ****** ****** ****** ****** ******
      ****** ****** ****** ****** ****** ****** ****** ****** ****** ******
      ****** ****** ****** ****** ****** ****** ****** ****** ****** ******
  15  ****** ****** ****** ****** ****** ****** ****** ****** ****** ******
      ****** ****** ****** ****** ****** ****** ****** ****** ****** ******
      ****** ****** ****** ****** ****** ****** ****** ****** ****** ******
  16  ****** ****** ****** ****** ****** ****** ****** ****** ****** ******
      ****** ****** ****** ****** ****** ****** ****** ****** ****** ******
      ****** ****** ****** ****** ****** ****** ****** ****** ****** ******
  17  ****** ****** ****** ****** ****** ****** ****** ****** ****** ******
      ****** ****** ****** ****** ****** ****** ****** ****** ****** ******
      ****** ****** ****** ****** ****** ****** ****** ****** ****** ******
  18  ****** ****** ****** ****** ****** ****** ****** ****** ****** ******
      ****** ****** ****** ****** ****** ****** ****** ****** ****** ******
      ****** ****** ****** ****** ****** ****** ****** ****** ****** ******
  19  ****** ****** ****** ****** ****** ****** ****** ****** ****** ******
      ****** ****** ****** ****** ****** ****** ****** ****** ****** ******
      ****** ****** ****** ****** ****** ****** ****** ****** ****** ******
  20  ****** ****** ****** ****** ****** ****** ****** ****** ****** ******
      ****** ****** ****** ****** ****** ****** ****** ****** ****** ******
      ****** ****** ****** ****** ****** ****** ****** ****** ****** ******
  21  ****** ****** ****** ****** ****** ****** ****** ****** ****** ******
      ****** ****** ****** ****** ****** ****** ****** ****** ****** ******
      ****** ****** ****** ****** ****** ****** ****** ****** ****** ******
  22  ****** ****** ****** ****** ****** ****** ****** ****** ****** ******
      ****** ****** ****** ****** ****** ****** ****** ****** ****** ******
      ****** ****** ****** ****** ****** ****** ****** ****** ****** ******
  23  ****** ****** ****** ****** ****** ****** ****** ****** ****** ******
      ****** ****** ****** ****** ****** ****** ****** ****** ****** ******
      ****** ****** ****** ****** ****** ****** ****** ****** ****** ******
  24  ****** ****** ****** ****** ****** ****** ****** ****** ****** ******
      ****** ****** ****** ****** ****** ****** ****** ****** ****** ******
      ****** ****** ****** ****** ****** ****** ****** ****** ****** ******
  25  ****** ****** ****** ****** ****** ****** ****** ****** ****** ******
      ****** ****** ****** ****** ****** ****** ****** ****** ****** ******
      ****** ****** ****** ****** ****** ****** ****** ****** ****** ******

 HEAD WILL BE SAVED ON UNIT   51 AT END OF TIME STEP    1, STRESS PERIOD    7
1
  VOLUMETRIC BUDGET FOR ENTIRE MODEL AT END OF TIME STEP    1, STRESS PERIOD   7
  ------------------------------------------------------------------------------

     CUMULATIVE VOLUMES      L**3       RATES FOR THIS TIME STEP      L**3/T
     ------------------                 ------------------------

           IN:                                      IN:
           ---                                      ---
             STORAGE =    35277687.9709               STORAGE =       23182.0119
       CONSTANT HEAD =    17975360.3537         CONSTANT HEAD =       36944.2751
               WELLS =           0.0000                 WELLS =           0.0000
            RECHARGE =    15097200.0000              RECHARGE =           0.0000
      STREAM LEAKAGE =     4583671.3299        STREAM LEAKAGE =        9279.7904

            TOTAL IN =    72933919.6545              TOTAL IN =       69406.0774

          OUT:                                     OUT:
          ----                                     ----
             STORAGE =      690337.3208               STORAGE =           0.0000
       CONSTANT HEAD =           0.0000         CONSTANT HEAD =           0.0000
               WELLS =    20103438.1245                 WELLS =       31460.7795
            RECHARGE =           0.0000              RECHARGE =           0.0000
      STREAM LEAKAGE =    52140146.7790        STREAM LEAKAGE =       37945.3034

           TOTAL OUT =    72933922.2243             TOTAL OUT =       69406.0829

            IN - OUT =          -2.5698              IN - OUT =      -5.5676E-03

 PERCENT DISCREPANCY =          -0.00     PERCENT DISCREPANCY =          -0.00






         TIME SUMMARY AT END OF TIME STEP    1 IN STRESS PERIOD    7
                    SECONDS     MINUTES      HOURS       DAYS        YEARS
                    -----------------------------------------------------------
   TIME STEP LENGTH 7.86240E+06 1.31040E+05  2184.0      91.000     0.24914    
 STRESS PERIOD TIME 7.86240E+06 1.31040E+05  2184.0      91.000     0.24914    
         TOTAL TIME 5.52096E+07 9.20160E+05  15336.      639.00      1.7495    
1
1
                            STRESS PERIOD NO.    8, LENGTH =   91.00000    
                            -----------------------------------------------

                              NUMBER OF TIME STEPS =     1

                               MULTIPLIER FOR DELT =     1.500

                            INITIAL TIME STEP SIZE =   91.00000    

 WELL NO.  LAYER   ROW   COL   STRESS RATE         
 --------------------------------------------------
      1      1     20     21     -0.1142E+05
      2      1     18     16      -7655.    
      3      1     20     18      -5517.    
      4      1      4      9      -6868.    

      4 WELLS

                 RECHARGE =  1.000000E-03

 REUSING STREAM SEGMENT DATA FROM LAST STRESS PERIOD
 
 SOLVING FOR HEAD 


     6 CALLS TO PCG ROUTINE FOR TIME STEP   1 IN STRESS PERIOD    8
    22 TOTAL ITERATIONS

 OUTPUT CONTROL FOR STRESS PERIOD    8   TIME STEP    1
    SAVE BUDGET
    SAVE HEAD FOR ALL LAYERS
    PRINT HEAD FOR ALL LAYERS
 UBDSV2 SAVING "STREAMFLOW OUT  " ON UNIT  50 AT TIME STEP  1, STRESS PERIOD   8



 STREAM LISTING     PERIOD      8   STEP        1

 LAYER ROW COL. STREAM  RCH.  FLOW INTO     FLOW TO   FLOW OUT OF   OVRLND.     DIRECT     STREAM       STREAM     STREAM     STREAM   STREAMBED  STREAMBED
                SEG.NO.  NO.  STRM. RCH.    AQUIFER    STRM. RCH.    RUNOFF     PRECIP       ET          HEAD       DEPTH      WIDTH   CONDCTNC.   GRADIENT

   1   13    1     1     1    1.0000E+05 -1.4140E+03   1.0141E+05  0.000E+00  0.000E+00  0.000E+00  4.84066E+01  1.453E-01  2.000E+01  2.000E+04 -7.070E-02
   1   13    2     1     2    1.0141E+05 -2.3478E+03   1.0376E+05  0.000E+00  0.000E+00  0.000E+00  4.79310E+01  1.469E-01  2.000E+01  2.000E+04 -1.174E-01
   1   14    3     1     3    1.0376E+05 -4.2340E+02   1.0419E+05  0.000E+00  0.000E+00  0.000E+00  4.74549E+01  1.481E-01  2.000E+01  2.000E+04 -2.117E-02
   1   15    4     1     4    1.0419E+05 -3.9763E+02   1.0458E+05  0.000E+00  0.000E+00  0.000E+00  4.69780E+01  1.484E-01  2.000E+01  2.000E+04 -1.988E-02
   1   16    5     1     5    1.0458E+05 -1.3910E+03   1.0597E+05  0.000E+00  0.000E+00  0.000E+00  4.65015E+01  1.492E-01  2.000E+01  2.000E+04 -6.955E-02
   1   16    6     1     6    1.0597E+05 -8.5758E+02   1.0683E+05  0.000E+00  0.000E+00  0.000E+00  4.60251E+01  1.501E-01  2.000E+01  2.000E+04 -4.288E-02
   1   16    7     1     7    1.0683E+05 -8.0287E+02   1.0763E+05  0.000E+00  0.000E+00  0.000E+00  4.55486E+01  1.508E-01  2.000E+01  2.000E+04 -4.014E-02
   1   16    8     1     8    1.0763E+05 -7.4085E+02   1.0838E+05  0.000E+00  0.000E+00  0.000E+00  4.50719E+01  1.515E-01  2.000E+01  2.000E+04 -3.704E-02
   1   16    9     1     9    1.0838E+05 -6.4879E+02   1.0902E+05  0.000E+00  0.000E+00  0.000E+00  4.45953E+01  1.521E-01  2.000E+01  2.000E+04 -3.244E-02
   1   16   10     1    10    1.0902E+05 -5.1122E+02   1.0954E+05  0.000E+00  0.000E+00  0.000E+00  4.41185E+01  1.526E-01  2.000E+01  2.000E+04 -2.556E-02
   1   16   11     1    11    1.0954E+05 -2.9681E+02   1.0983E+05  0.000E+00  0.000E+00  0.000E+00  4.36415E+01  1.529E-01  2.000E+01  2.000E+04 -1.484E-02
   1   16   12     1    12    1.0983E+05  1.5028E+02   1.0968E+05  0.000E+00  0.000E+00  0.000E+00  4.31643E+01  1.530E-01  2.000E+01  2.000E+04  7.514E-03
   1   15   13     1    13    1.0968E+05  1.1966E+02   1.0956E+05  0.000E+00  0.000E+00  0.000E+00  4.26869E+01  1.528E-01  2.000E+01  2.000E+04  5.983E-03
   1   14   14     1    14    1.0956E+05 -2.8580E+02   1.0985E+05  0.000E+00  0.000E+00  0.000E+00  4.22097E+01  1.529E-01  2.000E+01  2.000E+04 -1.429E-02
   1   13   15     1    15    1.0985E+05 -8.8899E+02   1.1074E+05  0.000E+00  0.000E+00  0.000E+00  4.17330E+01  1.534E-01  2.000E+01  2.000E+04 -4.445E-02
   1   12   16     1    16    1.1074E+05 -2.0410E+03   1.1278E+05  0.000E+00  0.000E+00  0.000E+00  4.12569E+01  1.546E-01  2.000E+01  2.000E+04 -1.020E-01
   1   12   17     1    17    1.1278E+05 -1.1265E+03   1.1390E+05  0.000E+00  0.000E+00  0.000E+00  4.07809E+01  1.559E-01  2.000E+01  2.000E+04 -5.632E-02
   1   12   18     1    18    1.1390E+05 -1.0810E+03   1.1499E+05  0.000E+00  0.000E+00  0.000E+00  4.03046E+01  1.568E-01  2.000E+01  2.000E+04 -5.405E-02
   1   12   19     1    19    1.1499E+05 -1.7703E+03   1.1676E+05  0.000E+00  0.000E+00  0.000E+00  3.98285E+01  1.580E-01  2.000E+01  2.000E+04 -8.851E-02
   1   13   20     1    20    1.1676E+05 -4.9832E+02   1.1725E+05  0.000E+00  0.000E+00  0.000E+00  3.93521E+01  1.589E-01  2.000E+01  2.000E+04 -2.492E-02
   1   14   21     1    21    1.1725E+05  7.6940E+02   1.1648E+05  0.000E+00  0.000E+00  0.000E+00  3.88747E+01  1.588E-01  2.000E+01  2.000E+04  3.847E-02
   1   14   22     1    22    1.1648E+05  5.2553E+03   1.1123E+05  0.000E+00  0.000E+00  0.000E+00  3.83950E+01  1.564E-01  2.000E+01  2.000E+04  2.628E-01
   1    9   30     2     1    5.0000E+04 -6.6546E+02   5.0665E+04  0.000E+00  0.000E+00  0.000E+00  4.02413E+01  1.163E-01  2.000E+01  2.000E+04 -3.327E-02
   1    9   29     2     2    5.0665E+04 -9.6203E+02   5.1627E+04  0.000E+00  0.000E+00  0.000E+00  3.99925E+01  1.175E-01  2.000E+01  2.000E+04 -4.810E-02
   1    9   28     2     3    5.1627E+04 -1.2101E+03   5.2838E+04  0.000E+00  0.000E+00  0.000E+00  3.97439E+01  1.189E-01  2.000E+01  2.000E+04 -6.050E-02
   1    9   27     2     4    5.2838E+04 -2.4363E+03   5.5274E+04  0.000E+00  0.000E+00  0.000E+00  3.94964E+01  1.214E-01  2.000E+01  2.000E+04 -1.218E-01
   1   10   26     2     5    5.5274E+04 -1.6509E+03   5.6925E+04  0.000E+00  0.000E+00  0.000E+00  3.92492E+01  1.242E-01  2.000E+01  2.000E+04 -8.255E-02
   1   11   25     2     6    5.6925E+04 -1.4492E+03   5.8374E+04  0.000E+00  0.000E+00  0.000E+00  3.90012E+01  1.262E-01  2.000E+01  2.000E+04 -7.246E-02
   1   12   24     2     7    5.8374E+04 -1.5100E+03   5.9884E+04  0.000E+00  0.000E+00  0.000E+00  3.87531E+01  1.281E-01  2.000E+01  2.000E+04 -7.550E-02
   1   13   23     2     8    5.9884E+04 -2.5588E+02   6.0140E+04  0.000E+00  0.000E+00  0.000E+00  3.85043E+01  1.293E-01  2.000E+01  2.000E+04 -1.279E-02
   1   14   22     2     9    6.0140E+04  2.4128E+03   5.7727E+04  0.000E+00  0.000E+00  0.000E+00  3.82529E+01  1.279E-01  2.000E+01  2.000E+04  1.206E-01
   1   14   22     3     1    1.6896E+05 -8.1975E+03   1.7715E+05  0.000E+00  0.000E+00  0.000E+00  3.77224E+01  1.668E-01  2.000E+01  2.000E+04 -4.099E-01
   1   15   23     3     2    1.7715E+05 -4.0566E+01   1.7719E+05  0.000E+00  0.000E+00  0.000E+00  3.68358E+01  1.692E-01  2.000E+01  2.000E+04 -2.028E-03
   1   15   24     3     3    1.7719E+05 -1.2584E+02   1.7732E+05  0.000E+00  0.000E+00  0.000E+00  3.59470E+01  1.692E-01  2.000E+01  2.000E+04 -6.292E-03
   1   15   25     3     4    1.7732E+05 -1.6971E+02   1.7749E+05  0.000E+00  0.000E+00  0.000E+00  3.50582E+01  1.693E-01  2.000E+01  2.000E+04 -8.486E-03
   1   15   26     3     5    1.7749E+05 -2.7359E+02   1.7776E+05  0.000E+00  0.000E+00  0.000E+00  3.41694E+01  1.694E-01  2.000E+01  2.000E+04 -1.368E-02
   1   16   27     3     6    1.7776E+05 -2.5286E+02   1.7802E+05  0.000E+00  0.000E+00  0.000E+00  3.32807E+01  1.696E-01  2.000E+01  2.000E+04 -1.264E-02
   1   17   28     3     7    1.7802E+05 -1.0548E+03   1.7907E+05  0.000E+00  0.000E+00  0.000E+00  3.23922E+01  1.700E-01  2.000E+01  2.000E+04 -5.274E-02
   1   18   29     3     8    1.7907E+05 -1.7490E+03   1.8082E+05  0.000E+00  0.000E+00  0.000E+00  3.15041E+01  1.708E-01  2.000E+01  2.000E+04 -8.745E-02
   1   18   30     3     9    1.8082E+05 -2.4976E+03   1.8332E+05  0.000E+00  0.000E+00  0.000E+00  3.06164E+01  1.720E-01  2.000E+01  2.000E+04 -1.249E-01



1
              HEAD IN LAYER   1 AT END OF TIME STEP   1 IN STRESS PERIOD    8
  ---------------------------------------------------------------------------

          1      2      3      4      5      6      7      8      9     10
         11     12     13     14     15     16     17     18     19     20
         21     22     23     24     25     26     27     28     29     30
 .........................................................................
   1  ****** ****** ****** ****** ****** ****** ****** ****** ****** ******
      ****** ****** ****** ****** ****** ****** ****** ****** ****** ******
      ****** ****** ****** ****** ****** ****** ****** ****** ****** ******
   2  ****** ****** ****** ****** ****** ****** ****** ****** ****** ******
      ****** ****** ****** ****** ****** ****** ****** ****** ****** ******
      ****** ****** ****** ****** ****** ****** ****** ****** ****** ******
   3  ****** ****** ****** ****** ****** ****** ****** ****** ****** ******
      ****** ****** ****** ****** ****** ****** ****** ****** ****** ******
      ****** ****** ****** ****** ****** ****** ****** ****** ****** ******
   4  ****** ****** ****** ****** ****** ****** ****** ****** ****** ******
      ****** ****** ****** ****** ****** ****** ****** ****** ****** ******
      ****** ****** ****** ****** ****** ****** ****** ****** ****** ******
   5  ****** ****** ****** ****** ****** ****** ****** ****** ****** ******
      ****** ****** ****** ****** ****** ****** ****** ****** ****** ******
      ****** ****** ****** ****** ****** ****** ****** ****** ****** ******
   6  ****** ****** ****** ****** ****** ****** ****** ****** ****** ******
      ****** ****** ****** ****** ****** ****** ****** ****** ****** ******
      ****** ****** ****** ****** ****** ****** ****** ****** ****** ******
   7  ****** ****** ****** ****** ****** ****** ****** ****** ****** ******
      ****** ****** ****** ****** ****** ****** ****** ****** ****** ******
      ****** ****** ****** ****** ****** ****** ****** ****** ****** ******
   8  ****** ****** ****** ****** ****** ****** ****** ****** ****** ******
      ****** ****** ****** ****** ****** ****** ****** ****** ****** ******
      ****** ****** ****** ****** ****** ****** ****** ****** ****** ******
   9  ****** ****** ****** ****** ****** ****** ****** ****** ****** ******
      ****** ****** ****** ****** ****** ****** ****** ****** ****** ******
      ****** ****** ****** ****** ****** ****** ****** ****** ****** ******
  10  ****** ****** ****** ****** ****** ****** ****** ****** ****** ******
      ****** ****** ****** ****** ****** ****** ****** ****** ****** ******
      ****** ****** ****** ****** ****** ****** ****** ****** ****** ******
  11  ****** ****** ****** ****** ****** ****** ****** ****** ****** ******
      ****** ****** ****** ****** ****** ****** ****** ****** ****** ******
      ****** ****** ****** ****** ****** ****** ****** ****** ****** ******
  12  ****** ****** ****** ****** ****** ****** ****** ****** ****** ******
      ****** ****** ****** ****** ****** ****** ****** ****** ****** ******
      ****** ****** ****** ****** ****** ****** ****** ****** ****** ******
  13  ****** ****** ****** ****** ****** ****** ****** ****** ****** ******
      ****** ****** ****** ****** ****** ****** ****** ****** ****** ******
      ****** ****** ****** ****** ****** ****** ****** ****** ****** ******
  14  ****** ****** ****** ****** ****** ****** ****** ****** ****** ******
      ****** ****** ****** ****** ****** ****** ****** ****** ****** ******
      ****** ****** ****** ****** ****** ****** ****** ****** ****** ******
  15  ****** ****** ****** ****** ****** ****** ****** ****** ****** ******
      ****** ****** ****** ****** ****** ****** ****** ****** ****** ******
      ****** ****** ****** ****** ****** ****** ****** ****** ****** ******
  16  ****** ****** ****** ****** ****** ****** ****** ****** ****** ******
      ****** ****** ****** ****** ****** ****** ****** ****** ****** ******
      ****** ****** ****** ****** ****** ****** ****** ****** ****** ******
  17  ****** ****** ****** ****** ****** ****** ****** ****** ****** ******
      ****** ****** ****** ****** ****** ****** ****** ****** ****** ******
      ****** ****** ****** ****** ****** ****** ****** ****** ****** ******
  18  ****** ****** ****** ****** ****** ****** ****** ****** ****** ******
      ****** ****** ****** ****** ****** ****** ****** ****** ****** ******
      ****** ****** ****** ****** ****** ****** ****** ****** ****** ******
  19  ****** ****** ****** ****** ****** ****** ****** ****** ****** ******
      ****** ****** ****** ****** ****** ****** ****** ****** ****** ******
      ****** ****** ****** ****** ****** ****** ****** ****** ****** ******
  20  ****** ****** ****** ****** ****** ****** ****** ****** ****** ******
      ****** ****** ****** ****** ****** ****** ****** ****** ****** ******
      ****** ****** ****** ****** ****** ****** ****** ****** ****** ******
  21  ****** ****** ****** ****** ****** ****** ****** ****** ****** ******
      ****** ****** ****** ****** ****** ****** ****** ****** ****** ******
      ****** ****** ****** ****** ****** ****** ****** ****** ****** ******
  22  ****** ****** ****** ****** ****** ****** ****** ****** ****** ******
      ****** ****** ****** ****** ****** ****** ****** ****** ****** ******
      ****** ****** ****** ****** ****** ****** ****** ****** ****** ******
  23  ****** ****** ****** ****** ****** ****** ****** ****** ****** ******
      ****** ****** ****** ****** ****** ****** ****** ****** ****** ******
      ****** ****** ****** ****** ****** ****** ****** ****** ****** ******
  24  ****** ****** ****** ****** ****** ****** ****** ****** ****** ******
      ****** ****** ****** ****** ****** ****** ****** ****** ****** ******
      ****** ****** ****** ****** ****** ****** ****** ****** ****** ******
  25  ****** ****** ****** ****** ****** ****** ****** ****** ****** ******
      ****** ****** ****** ****** ****** ****** ****** ****** ****** ******
      ****** ****** ****** ****** ****** ****** ****** ****** ****** ******

 HEAD WILL BE SAVED ON UNIT   51 AT END OF TIME STEP    1, STRESS PERIOD    8
1
  VOLUMETRIC BUDGET FOR ENTIRE MODEL AT END OF TIME STEP    1, STRESS PERIOD   8
  ------------------------------------------------------------------------------

     CUMULATIVE VOLUMES      L**3       RATES FOR THIS TIME STEP      L**3/T
     ------------------                 ------------------------

           IN:                                      IN:
           ---                                      ---
             STORAGE =    35442379.8218               STORAGE =        1809.8006
       CONSTANT HEAD =    21317205.7246         CONSTANT HEAD =       36723.5755
               WELLS =           0.0000                 WELLS =           0.0000
            RECHARGE =    17608800.0000              RECHARGE =       27600.0000
      STREAM LEAKAGE =     5376043.4847        STREAM LEAKAGE =        8707.3863

            TOTAL IN =    79744429.0310              TOTAL IN =       74840.7624

          OUT:                                     OUT:
          ----                                     ----
             STORAGE =      813627.3304               STORAGE =        1354.8353
       CONSTANT HEAD =           0.0000         CONSTANT HEAD =           0.0000
               WELLS =    22966369.0624                 WELLS =       31460.7795
            RECHARGE =           0.0000              RECHARGE =           0.0000
      STREAM LEAKAGE =    55964434.5143        STREAM LEAKAGE =       42025.1399

           TOTAL OUT =    79744430.9071             TOTAL OUT =       74840.7548

            IN - OUT =          -1.8762              IN - OUT =       7.6225E-03

 PERCENT DISCREPANCY =          -0.00     PERCENT DISCREPANCY =           0.00






         TIME SUMMARY AT END OF TIME STEP    1 IN STRESS PERIOD    8
                    SECONDS     MINUTES      HOURS       DAYS        YEARS
                    -----------------------------------------------------------
   TIME STEP LENGTH 7.86240E+06 1.31040E+05  2184.0      91.000     0.24914    
 STRESS PERIOD TIME 7.86240E+06 1.31040E+05  2184.0      91.000     0.24914    
         TOTAL TIME 6.30720E+07 1.05120E+06  17520.      730.00      1.9986    
1
1
                            STRESS PERIOD NO.    9, LENGTH =   92.00000    
                            -----------------------------------------------

                              NUMBER OF TIME STEPS =     1

                               MULTIPLIER FOR DELT =     1.500

                            INITIAL TIME STEP SIZE =   92.00000    

 WELL NO.  LAYER   ROW   COL   STRESS RATE         
 --------------------------------------------------
      1      1     20     21     -0.1142E+05
      2      1     18     16      -7655.    
      3      1     20     18      -5517.    
      4      1      4      9      -6868.    

      4 WELLS

                 RECHARGE =  5.000000E-04

 REUSING STREAM SEGMENT DATA FROM LAST STRESS PERIOD
 
 SOLVING FOR HEAD 


     6 CALLS TO PCG ROUTINE FOR TIME STEP   1 IN STRESS PERIOD    9
    23 TOTAL ITERATIONS

 OUTPUT CONTROL FOR STRESS PERIOD    9   TIME STEP    1
    SAVE BUDGET
    SAVE HEAD FOR ALL LAYERS
    PRINT HEAD FOR ALL LAYERS
 UBDSV2 SAVING "STREAMFLOW OUT  " ON UNIT  50 AT TIME STEP  1, STRESS PERIOD   9



 STREAM LISTING     PERIOD      9   STEP        1

 LAYER ROW COL. STREAM  RCH.  FLOW INTO     FLOW TO   FLOW OUT OF   OVRLND.     DIRECT     STREAM       STREAM     STREAM     STREAM   STREAMBED  STREAMBED
                SEG.NO.  NO.  STRM. RCH.    AQUIFER    STRM. RCH.    RUNOFF     PRECIP       ET          HEAD       DEPTH      WIDTH   CONDCTNC.   GRADIENT

   1   13    1     1     1    1.0000E+05 -1.1895E+03   1.0119E+05  0.000E+00  0.000E+00  0.000E+00  4.84065E+01  1.452E-01  2.000E+01  2.000E+04 -5.947E-02
   1   13    2     1     2    1.0119E+05 -2.0933E+03   1.0328E+05  0.000E+00  0.000E+00  0.000E+00  4.79307E+01  1.466E-01  2.000E+01  2.000E+04 -1.047E-01
   1   14    3     1     3    1.0328E+05 -3.5071E+02   1.0363E+05  0.000E+00  0.000E+00  0.000E+00  4.74545E+01  1.476E-01  2.000E+01  2.000E+04 -1.754E-02
   1   15    4     1     4    1.0363E+05 -3.2416E+02   1.0396E+05  0.000E+00  0.000E+00  0.000E+00  4.69775E+01  1.479E-01  2.000E+01  2.000E+04 -1.621E-02
   1   16    5     1     5    1.0396E+05 -1.1953E+03   1.0515E+05  0.000E+00  0.000E+00  0.000E+00  4.65008E+01  1.486E-01  2.000E+01  2.000E+04 -5.976E-02
   1   16    6     1     6    1.0515E+05 -7.3509E+02   1.0589E+05  0.000E+00  0.000E+00  0.000E+00  4.60244E+01  1.494E-01  2.000E+01  2.000E+04 -3.675E-02
   1   16    7     1     7    1.0589E+05 -6.8398E+02   1.0657E+05  0.000E+00  0.000E+00  0.000E+00  4.55477E+01  1.500E-01  2.000E+01  2.000E+04 -3.420E-02
   1   16    8     1     8    1.0657E+05 -6.2343E+02   1.0720E+05  0.000E+00  0.000E+00  0.000E+00  4.50710E+01  1.505E-01  2.000E+01  2.000E+04 -3.117E-02
   1   16    9     1     9    1.0720E+05 -5.3297E+02   1.0773E+05  0.000E+00  0.000E+00  0.000E+00  4.45942E+01  1.510E-01  2.000E+01  2.000E+04 -2.665E-02
   1   16   10     1    10    1.0773E+05 -3.9744E+02   1.0813E+05  0.000E+00  0.000E+00  0.000E+00  4.41173E+01  1.514E-01  2.000E+01  2.000E+04 -1.987E-02
   1   16   11     1    11    1.0813E+05 -1.8395E+02   1.0831E+05  0.000E+00  0.000E+00  0.000E+00  4.36403E+01  1.517E-01  2.000E+01  2.000E+04 -9.197E-03
   1   16   12     1    12    1.0831E+05  3.4446E+02   1.0797E+05  0.000E+00  0.000E+00  0.000E+00  4.31630E+01  1.516E-01  2.000E+01  2.000E+04  1.722E-02
   1   15   13     1    13    1.0797E+05  3.3586E+02   1.0763E+05  0.000E+00  0.000E+00  0.000E+00  4.26854E+01  1.513E-01  2.000E+01  2.000E+04  1.679E-02
   1   14   14     1    14    1.0763E+05 -5.5485E+01   1.0768E+05  0.000E+00  0.000E+00  0.000E+00  4.22080E+01  1.512E-01  2.000E+01  2.000E+04 -2.774E-03
   1   13   15     1    15    1.0768E+05 -6.5255E+02   1.0834E+05  0.000E+00  0.000E+00  0.000E+00  4.17310E+01  1.515E-01  2.000E+01  2.000E+04 -3.263E-02
   1   12   16     1    16    1.0834E+05 -1.7959E+03   1.1013E+05  0.000E+00  0.000E+00  0.000E+00  4.12548E+01  1.525E-01  2.000E+01  2.000E+04 -8.980E-02
   1   12   17     1    17    1.1013E+05 -9.5905E+02   1.1109E+05  0.000E+00  0.000E+00  0.000E+00  4.07787E+01  1.537E-01  2.000E+01  2.000E+04 -4.795E-02
   1   12   18     1    18    1.1109E+05 -9.2165E+02   1.1201E+05  0.000E+00  0.000E+00  0.000E+00  4.03022E+01  1.545E-01  2.000E+01  2.000E+04 -4.608E-02
   1   12   19     1    19    1.1201E+05 -1.5793E+03   1.1359E+05  0.000E+00  0.000E+00  0.000E+00  3.98260E+01  1.555E-01  2.000E+01  2.000E+04 -7.896E-02
   1   13   20     1    20    1.1359E+05 -3.2079E+02   1.1391E+05  0.000E+00  0.000E+00  0.000E+00  3.93495E+01  1.563E-01  2.000E+01  2.000E+04 -1.604E-02
   1   14   21     1    21    1.1391E+05  9.4674E+02   1.1297E+05  0.000E+00  0.000E+00  0.000E+00  3.88719E+01  1.560E-01  2.000E+01  2.000E+04  4.734E-02
   1   14   22     1    22    1.1297E+05  5.2932E+03   1.0767E+05  0.000E+00  0.000E+00  0.000E+00  3.83921E+01  1.534E-01  2.000E+01  2.000E+04  2.647E-01
   1    9   30     2     1    5.0000E+04 -5.4177E+02   5.0542E+04  0.000E+00  0.000E+00  0.000E+00  4.02412E+01  1.162E-01  2.000E+01  2.000E+04 -2.709E-02
   1    9   29     2     2    5.0542E+04 -8.3806E+02   5.1380E+04  0.000E+00  0.000E+00  0.000E+00  3.99922E+01  1.172E-01  2.000E+01  2.000E+04 -4.190E-02
   1    9   28     2     3    5.1380E+04 -1.0841E+03   5.2464E+04  0.000E+00  0.000E+00  0.000E+00  3.97435E+01  1.185E-01  2.000E+01  2.000E+04 -5.421E-02
   1    9   27     2     4    5.2464E+04 -2.2585E+03   5.4722E+04  0.000E+00  0.000E+00  0.000E+00  3.94958E+01  1.208E-01  2.000E+01  2.000E+04 -1.129E-01
   1   10   26     2     5    5.4722E+04 -1.4760E+03   5.6198E+04  0.000E+00  0.000E+00  0.000E+00  3.92483E+01  1.233E-01  2.000E+01  2.000E+04 -7.380E-02
   1   11   25     2     6    5.6198E+04 -1.2817E+03   5.7480E+04  0.000E+00  0.000E+00  0.000E+00  3.90001E+01  1.251E-01  2.000E+01  2.000E+04 -6.409E-02
   1   12   24     2     7    5.7480E+04 -1.3558E+03   5.8836E+04  0.000E+00  0.000E+00  0.000E+00  3.87519E+01  1.269E-01  2.000E+01  2.000E+04 -6.779E-02
   1   13   23     2     8    5.8836E+04 -2.0853E+02   5.9044E+04  0.000E+00  0.000E+00  0.000E+00  3.85029E+01  1.279E-01  2.000E+01  2.000E+04 -1.043E-02
   1   14   22     2     9    5.9044E+04  2.4799E+03   5.6565E+04  0.000E+00  0.000E+00  0.000E+00  3.82514E+01  1.264E-01  2.000E+01  2.000E+04  1.240E-01
   1   14   22     3     1    1.6424E+05 -8.1560E+03   1.7239E+05  0.000E+00  0.000E+00  0.000E+00  3.77196E+01  1.641E-01  2.000E+01  2.000E+04 -4.078E-01
   1   15   23     3     2    1.7239E+05  1.3426E+01   1.7238E+05  0.000E+00  0.000E+00  0.000E+00  3.68331E+01  1.664E-01  2.000E+01  2.000E+04  6.713E-04
   1   15   24     3     3    1.7238E+05 -8.1998E+01   1.7246E+05  0.000E+00  0.000E+00  0.000E+00  3.59442E+01  1.664E-01  2.000E+01  2.000E+04 -4.100E-03
   1   15   25     3     4    1.7246E+05 -1.2571E+02   1.7259E+05  0.000E+00  0.000E+00  0.000E+00  3.50554E+01  1.665E-01  2.000E+01  2.000E+04 -6.285E-03
   1   15   26     3     5    1.7259E+05 -2.2551E+02   1.7281E+05  0.000E+00  0.000E+00  0.000E+00  3.41666E+01  1.666E-01  2.000E+01  2.000E+04 -1.128E-02
   1   16   27     3     6    1.7281E+05 -1.9597E+02   1.7301E+05  0.000E+00  0.000E+00  0.000E+00  3.32778E+01  1.667E-01  2.000E+01  2.000E+04 -9.799E-03
   1   17   28     3     7    1.7301E+05 -8.9817E+02   1.7391E+05  0.000E+00  0.000E+00  0.000E+00  3.23893E+01  1.670E-01  2.000E+01  2.000E+04 -4.491E-02
   1   18   29     3     8    1.7391E+05 -1.5665E+03   1.7548E+05  0.000E+00  0.000E+00  0.000E+00  3.15011E+01  1.678E-01  2.000E+01  2.000E+04 -7.832E-02
   1   18   30     3     9    1.7548E+05 -2.3614E+03   1.7784E+05  0.000E+00  0.000E+00  0.000E+00  3.06133E+01  1.689E-01  2.000E+01  2.000E+04 -1.181E-01



1
              HEAD IN LAYER   1 AT END OF TIME STEP   1 IN STRESS PERIOD    9
  ---------------------------------------------------------------------------

          1      2      3      4      5      6      7      8      9     10
         11     12     13     14     15     16     17     18     19     20
         21     22     23     24     25     26     27     28     29     30
 .........................................................................
   1  ****** ****** ****** ****** ****** ****** ****** ****** ****** ******
      ****** ****** ****** ****** ****** ****** ****** ****** ****** ******
      ****** ****** ****** ****** ****** ****** ****** ****** ****** ******
   2  ****** ****** ****** ****** ****** ****** ****** ****** ****** ******
      ****** ****** ****** ****** ****** ****** ****** ****** ****** ******
      ****** ****** ****** ****** ****** ****** ****** ****** ****** ******
   3  ****** ****** ****** ****** ****** ****** ****** ****** ****** ******
      ****** ****** ****** ****** ****** ****** ****** ****** ****** ******
      ****** ****** ****** ****** ****** ****** ****** ****** ****** ******
   4  ****** ****** ****** ****** ****** ****** ****** ****** ****** ******
      ****** ****** ****** ****** ****** ****** ****** ****** ****** ******
      ****** ****** ****** ****** ****** ****** ****** ****** ****** ******
   5  ****** ****** ****** ****** ****** ****** ****** ****** ****** ******
      ****** ****** ****** ****** ****** ****** ****** ****** ****** ******
      ****** ****** ****** ****** ****** ****** ****** ****** ****** ******
   6  ****** ****** ****** ****** ****** ****** ****** ****** ****** ******
      ****** ****** ****** ****** ****** ****** ****** ****** ****** ******
      ****** ****** ****** ****** ****** ****** ****** ****** ****** ******
   7  ****** ****** ****** ****** ****** ****** ****** ****** ****** ******
      ****** ****** ****** ****** ****** ****** ****** ****** ****** ******
      ****** ****** ****** ****** ****** ****** ****** ****** ****** ******
   8  ****** ****** ****** ****** ****** ****** ****** ****** ****** ******
      ****** ****** ****** ****** ****** ****** ****** ****** ****** ******
      ****** ****** ****** ****** ****** ****** ****** ****** ****** ******
   9  ****** ****** ****** ****** ****** ****** ****** ****** ****** ******
      ****** ****** ****** ****** ****** ****** ****** ****** ****** ******
      ****** ****** ****** ****** ****** ****** ****** ****** ****** ******
  10  ****** ****** ****** ****** ****** ****** ****** ****** ****** ******
      ****** ****** ****** ****** ****** ****** ****** ****** ****** ******
      ****** ****** ****** ****** ****** ****** ****** ****** ****** ******
  11  ****** ****** ****** ****** ****** ****** ****** ****** ****** ******
      ****** ****** ****** ****** ****** ****** ****** ****** ****** ******
      ****** ****** ****** ****** ****** ****** ****** ****** ****** ******
  12  ****** ****** ****** ****** ****** ****** ****** ****** ****** ******
      ****** ****** ****** ****** ****** ****** ****** ****** ****** ******
      ****** ****** ****** ****** ****** ****** ****** ****** ****** ******
  13  ****** ****** ****** ****** ****** ****** ****** ****** ****** ******
      ****** ****** ****** ****** ****** ****** ****** ****** ****** ******
      ****** ****** ****** ****** ****** ****** ****** ****** ****** ******
  14  ****** ****** ****** ****** ****** ****** ****** ****** ****** ******
      ****** ****** ****** ****** ****** ****** ****** ****** ****** ******
      ****** ****** ****** ****** ****** ****** ****** ****** ****** ******
  15  ****** ****** ****** ****** ****** ****** ****** ****** ****** ******
      ****** ****** ****** ****** ****** ****** ****** ****** ****** ******
      ****** ****** ****** ****** ****** ****** ****** ****** ****** ******
  16  ****** ****** ****** ****** ****** ****** ****** ****** ****** ******
      ****** ****** ****** ****** ****** ****** ****** ****** ****** ******
      ****** ****** ****** ****** ****** ****** ****** ****** ****** ******
  17  ****** ****** ****** ****** ****** ****** ****** ****** ****** ******
      ****** ****** ****** ****** ****** ****** ****** ****** ****** ******
      ****** ****** ****** ****** ****** ****** ****** ****** ****** ******
  18  ****** ****** ****** ****** ****** ****** ****** ****** ****** ******
      ****** ****** ****** ****** ****** ****** ****** ****** ****** ******
      ****** ****** ****** ****** ****** ****** ****** ****** ****** ******
  19  ****** ****** ****** ****** ****** ****** ****** ****** ****** ******
      ****** ****** ****** ****** ****** ****** ****** ****** ****** ******
      ****** ****** ****** ****** ****** ****** ****** ****** ****** ******
  20  ****** ****** ****** ****** ****** ****** ****** ****** ****** ******
      ****** ****** ****** ****** ****** ****** ****** ****** ****** ******
      ****** ****** ****** ****** ****** ****** ****** ****** ****** ******
  21  ****** ****** ****** ****** ****** ****** ****** ****** ****** ******
      ****** ****** ****** ****** ****** ****** ****** ****** ****** ******
      ****** ****** ****** ****** ****** ****** ****** ****** ****** ******
  22  ****** ****** ****** ****** ****** ****** ****** ****** ****** ******
      ****** ****** ****** ****** ****** ****** ****** ****** ****** ******
      ****** ****** ****** ****** ****** ****** ****** ****** ****** ******
  23  ****** ****** ****** ****** ****** ****** ****** ****** ****** ******
      ****** ****** ****** ****** ****** ****** ****** ****** ****** ******
      ****** ****** ****** ****** ****** ****** ****** ****** ****** ******
  24  ****** ****** ****** ****** ****** ****** ****** ****** ****** ******
      ****** ****** ****** ****** ****** ****** ****** ****** ****** ******
      ****** ****** ****** ****** ****** ****** ****** ****** ****** ******
  25  ****** ****** ****** ****** ****** ****** ****** ****** ****** ******
      ****** ****** ****** ****** ****** ****** ****** ****** ****** ******
      ****** ****** ****** ****** ****** ****** ****** ****** ****** ******

 HEAD WILL BE SAVED ON UNIT   51 AT END OF TIME STEP    1, STRESS PERIOD    9
1
  VOLUMETRIC BUDGET FOR ENTIRE MODEL AT END OF TIME STEP    1, STRESS PERIOD   9
  ------------------------------------------------------------------------------

     CUMULATIVE VOLUMES      L**3       RATES FOR THIS TIME STEP      L**3/T
     ------------------                 ------------------------

           IN:                                      IN:
           ---                                      ---
             STORAGE =    36137850.8183               STORAGE =        7559.4674
       CONSTANT HEAD =    24807483.7472         CONSTANT HEAD =       37937.8046
               WELLS =           0.0000                 WELLS =           0.0000
            RECHARGE =    18878400.0000              RECHARGE =       13800.0000
      STREAM LEAKAGE =     6242095.3757        STREAM LEAKAGE =        9413.6075

            TOTAL IN =    86065829.9413              TOTAL IN =       68710.8795

          OUT:                                     OUT:
          ----                                     ----
             STORAGE =      813627.3304               STORAGE =           0.0000
       CONSTANT HEAD =           0.0000         CONSTANT HEAD =           0.0000
               WELLS =    25860760.7798                 WELLS =       31460.7795
            RECHARGE =           0.0000              RECHARGE =           0.0000
      STREAM LEAKAGE =    59391443.7813        STREAM LEAKAGE =       37250.1007

           TOTAL OUT =    86065831.8915             TOTAL OUT =       68710.8803

            IN - OUT =          -1.9503              IN - OUT =      -8.0551E-04

 PERCENT DISCREPANCY =          -0.00     PERCENT DISCREPANCY =          -0.00






         TIME SUMMARY AT END OF TIME STEP    1 IN STRESS PERIOD    9
                    SECONDS     MINUTES      HOURS       DAYS        YEARS
                    -----------------------------------------------------------
   TIME STEP LENGTH 7.94880E+06 1.32480E+05  2208.0      92.000     0.25188    
 STRESS PERIOD TIME 7.94880E+06 1.32480E+05  2208.0      92.000     0.25188    
         TOTAL TIME 7.10208E+07 1.18368E+06  19728.      822.00      2.2505    
1
1
                            STRESS PERIOD NO.   10, LENGTH =   91.00000    
                            -----------------------------------------------

                              NUMBER OF TIME STEPS =     1

                               MULTIPLIER FOR DELT =     1.500

                            INITIAL TIME STEP SIZE =   91.00000    

 WELL NO.  LAYER   ROW   COL   STRESS RATE         
 --------------------------------------------------
      1      1     20     21     -0.1142E+05
      2      1     18     16      -7655.    
      3      1     20     18      -5517.    
      4      1      4      9      -6868.    

      4 WELLS

                 RECHARGE =  2.000000E-03

 REUSING STREAM SEGMENT DATA FROM LAST STRESS PERIOD
 
 SOLVING FOR HEAD 


     7 CALLS TO PCG ROUTINE FOR TIME STEP   1 IN STRESS PERIOD   10
    26 TOTAL ITERATIONS

 OUTPUT CONTROL FOR STRESS PERIOD   10   TIME STEP    1
    SAVE BUDGET
    SAVE HEAD FOR ALL LAYERS
    PRINT HEAD FOR ALL LAYERS
 UBDSV2 SAVING "STREAMFLOW OUT  " ON UNIT  50 AT TIME STEP  1, STRESS PERIOD  10



 STREAM LISTING     PERIOD     10   STEP        1

 LAYER ROW COL. STREAM  RCH.  FLOW INTO     FLOW TO   FLOW OUT OF   OVRLND.     DIRECT     STREAM       STREAM     STREAM     STREAM   STREAMBED  STREAMBED
                SEG.NO.  NO.  STRM. RCH.    AQUIFER    STRM. RCH.    RUNOFF     PRECIP       ET          HEAD       DEPTH      WIDTH   CONDCTNC.   GRADIENT

   1   13    1     1     1    1.0000E+05 -1.6349E+03   1.0163E+05  0.000E+00  0.000E+00  0.000E+00  4.84067E+01  1.454E-01  2.000E+01  2.000E+04 -8.174E-02
   1   13    2     1     2    1.0163E+05 -2.5864E+03   1.0422E+05  0.000E+00  0.000E+00  0.000E+00  4.79313E+01  1.472E-01  2.000E+01  2.000E+04 -1.293E-01
   1   14    3     1     3    1.0422E+05 -5.3590E+02   1.0476E+05  0.000E+00  0.000E+00  0.000E+00  4.74553E+01  1.485E-01  2.000E+01  2.000E+04 -2.680E-02
   1   15    4     1     4    1.0476E+05 -5.2245E+02   1.0528E+05  0.000E+00  0.000E+00  0.000E+00  4.69785E+01  1.490E-01  2.000E+01  2.000E+04 -2.612E-02
   1   16    5     1     5    1.0528E+05 -1.8122E+03   1.0709E+05  0.000E+00  0.000E+00  0.000E+00  4.65022E+01  1.500E-01  2.000E+01  2.000E+04 -9.061E-02
   1   16    6     1     6    1.0709E+05 -1.0957E+03   1.0819E+05  0.000E+00  0.000E+00  0.000E+00  4.60262E+01  1.512E-01  2.000E+01  2.000E+04 -5.478E-02
   1   16    7     1     7    1.0819E+05 -1.0267E+03   1.0921E+05  0.000E+00  0.000E+00  0.000E+00  4.55498E+01  1.521E-01  2.000E+01  2.000E+04 -5.134E-02
   1   16    8     1     8    1.0921E+05 -9.6069E+02   1.1017E+05  0.000E+00  0.000E+00  0.000E+00  4.50734E+01  1.529E-01  2.000E+01  2.000E+04 -4.803E-02
   1   16    9     1     9    1.1017E+05 -8.6874E+02   1.1104E+05  0.000E+00  0.000E+00  0.000E+00  4.45969E+01  1.537E-01  2.000E+01  2.000E+04 -4.344E-02
   1   16   10     1    10    1.1104E+05 -7.3345E+02   1.1178E+05  0.000E+00  0.000E+00  0.000E+00  4.41202E+01  1.543E-01  2.000E+01  2.000E+04 -3.667E-02
   1   16   11     1    11    1.1178E+05 -5.2344E+02   1.1230E+05  0.000E+00  0.000E+00  0.000E+00  4.36435E+01  1.549E-01  2.000E+01  2.000E+04 -2.617E-02
   1   16   12     1    12    1.1230E+05 -2.2158E+02   1.1252E+05  0.000E+00  0.000E+00  0.000E+00  4.31665E+01  1.552E-01  2.000E+01  2.000E+04 -1.108E-02
   1   15   13     1    13    1.1252E+05 -2.4646E+02   1.1277E+05  0.000E+00  0.000E+00  0.000E+00  4.26895E+01  1.554E-01  2.000E+01  2.000E+04 -1.232E-02
   1   14   14     1    14    1.1277E+05 -6.4443E+02   1.1341E+05  0.000E+00  0.000E+00  0.000E+00  4.22126E+01  1.557E-01  2.000E+01  2.000E+04 -3.222E-02
   1   13   15     1    15    1.1341E+05 -1.2312E+03   1.1464E+05  0.000E+00  0.000E+00  0.000E+00  4.17361E+01  1.565E-01  2.000E+01  2.000E+04 -6.156E-02
   1   12   16     1    16    1.1464E+05 -2.3526E+03   1.1700E+05  0.000E+00  0.000E+00  0.000E+00  4.12603E+01  1.580E-01  2.000E+01  2.000E+04 -1.176E-01
   1   12   17     1    17    1.1700E+05 -1.3816E+03   1.1838E+05  0.000E+00  0.000E+00  0.000E+00  4.07845E+01  1.595E-01  2.000E+01  2.000E+04 -6.908E-02
   1   12   18     1    18    1.1838E+05 -1.3405E+03   1.1972E+05  0.000E+00  0.000E+00  0.000E+00  4.03083E+01  1.606E-01  2.000E+01  2.000E+04 -6.702E-02
   1   12   19     1    19    1.1972E+05 -2.0952E+03   1.2181E+05  0.000E+00  0.000E+00  0.000E+00  3.98324E+01  1.620E-01  2.000E+01  2.000E+04 -1.048E-01
   1   13   20     1    20    1.2181E+05 -8.3971E+02   1.2265E+05  0.000E+00  0.000E+00  0.000E+00  3.93564E+01  1.632E-01  2.000E+01  2.000E+04 -4.199E-02
   1   14   21     1    21    1.2265E+05  4.2503E+02   1.2223E+05  0.000E+00  0.000E+00  0.000E+00  3.88792E+01  1.633E-01  2.000E+01  2.000E+04  2.125E-02
   1   14   22     1    22    1.2223E+05  5.1695E+03   1.1706E+05  0.000E+00  0.000E+00  0.000E+00  3.83997E+01  1.611E-01  2.000E+01  2.000E+04  2.585E-01
   1    9   30     2     1    5.0000E+04 -9.5570E+02   5.0956E+04  0.000E+00  0.000E+00  0.000E+00  4.02415E+01  1.165E-01  2.000E+01  2.000E+04 -4.779E-02
   1    9   29     2     2    5.0956E+04 -1.2497E+03   5.2205E+04  0.000E+00  0.000E+00  0.000E+00  3.99930E+01  1.180E-01  2.000E+01  2.000E+04 -6.248E-02
   1    9   28     2     3    5.2205E+04 -1.4948E+03   5.3700E+04  0.000E+00  0.000E+00  0.000E+00  3.97449E+01  1.199E-01  2.000E+01  2.000E+04 -7.474E-02
   1    9   27     2     4    5.3700E+04 -2.8104E+03   5.6511E+04  0.000E+00  0.000E+00  0.000E+00  3.94978E+01  1.228E-01  2.000E+01  2.000E+04 -1.405E-01
   1   10   26     2     5    5.6511E+04 -2.0280E+03   5.8539E+04  0.000E+00  0.000E+00  0.000E+00  3.92510E+01  1.260E-01  2.000E+01  2.000E+04 -1.014E-01
   1   11   25     2     6    5.8539E+04 -1.8093E+03   6.0348E+04  0.000E+00  0.000E+00  0.000E+00  3.90035E+01  1.285E-01  2.000E+01  2.000E+04 -9.046E-02
   1   12   24     2     7    6.0348E+04 -1.8332E+03   6.2181E+04  0.000E+00  0.000E+00  0.000E+00  3.87559E+01  1.309E-01  2.000E+01  2.000E+04 -9.166E-02
   1   13   23     2     8    6.2181E+04 -3.5710E+02   6.2538E+04  0.000E+00  0.000E+00  0.000E+00  3.85073E+01  1.323E-01  2.000E+01  2.000E+04 -1.786E-02
   1   14   22     2     9    6.2538E+04  2.2960E+03   6.0242E+04  0.000E+00  0.000E+00  0.000E+00  3.82560E+01  1.310E-01  2.000E+01  2.000E+04  1.148E-01
   1   14   22     3     1    1.7730E+05 -8.2816E+03   1.8558E+05  0.000E+00  0.000E+00  0.000E+00  3.77272E+01  1.716E-01  2.000E+01  2.000E+04 -4.141E-01
   1   15   23     3     2    1.8558E+05 -1.4834E+02   1.8573E+05  0.000E+00  0.000E+00  0.000E+00  3.68407E+01  1.740E-01  2.000E+01  2.000E+04 -7.417E-03
   1   15   24     3     3    1.8573E+05 -2.1871E+02   1.8595E+05  0.000E+00  0.000E+00  0.000E+00  3.59519E+01  1.741E-01  2.000E+01  2.000E+04 -1.094E-02
   1   15   25     3     4    1.8595E+05 -2.6588E+02   1.8622E+05  0.000E+00  0.000E+00  0.000E+00  3.50631E+01  1.742E-01  2.000E+01  2.000E+04 -1.329E-02
   1   15   26     3     5    1.8622E+05 -3.8748E+02   1.8660E+05  0.000E+00  0.000E+00  0.000E+00  3.41744E+01  1.744E-01  2.000E+01  2.000E+04 -1.937E-02
   1   16   27     3     6    1.8660E+05 -3.8134E+02   1.8698E+05  0.000E+00  0.000E+00  0.000E+00  3.32857E+01  1.746E-01  2.000E+01  2.000E+04 -1.907E-02
   1   17   28     3     7    1.8698E+05 -1.4171E+03   1.8840E+05  0.000E+00  0.000E+00  0.000E+00  3.23974E+01  1.751E-01  2.000E+01  2.000E+04 -7.086E-02
   1   18   29     3     8    1.8840E+05 -2.1143E+03   1.9052E+05  0.000E+00  0.000E+00  0.000E+00  3.15095E+01  1.761E-01  2.000E+01  2.000E+04 -1.057E-01
   1   18   30     3     9    1.9052E+05 -2.7846E+03   1.9330E+05  0.000E+00  0.000E+00  0.000E+00  3.06219E+01  1.775E-01  2.000E+01  2.000E+04 -1.392E-01



1
              HEAD IN LAYER   1 AT END OF TIME STEP   1 IN STRESS PERIOD   10
  ---------------------------------------------------------------------------

          1      2      3      4      5      6      7      8      9     10
         11     12     13     14     15     16     17     18     19     20
         21     22     23     24     25     26     27     28     29     30
 .........................................................................
   1  ****** ****** ****** ****** ****** ****** ****** ****** ****** ******
      ****** ****** ****** ****** ****** ****** ****** ****** ****** ******
      ****** ****** ****** ****** ****** ****** ****** ****** ****** ******
   2  ****** ****** ****** ****** ****** ****** ****** ****** ****** ******
      ****** ****** ****** ****** ****** ****** ****** ****** ****** ******
      ****** ****** ****** ****** ****** ****** ****** ****** ****** ******
   3  ****** ****** ****** ****** ****** ****** ****** ****** ****** ******
      ****** ****** ****** ****** ****** ****** ****** ****** ****** ******
      ****** ****** ****** ****** ****** ****** ****** ****** ****** ******
   4  ****** ****** ****** ****** ****** ****** ****** ****** ****** ******
      ****** ****** ****** ****** ****** ****** ****** ****** ****** ******
      ****** ****** ****** ****** ****** ****** ****** ****** ****** ******
   5  ****** ****** ****** ****** ****** ****** ****** ****** ****** ******
      ****** ****** ****** ****** ****** ****** ****** ****** ****** ******
      ****** ****** ****** ****** ****** ****** ****** ****** ****** ******
   6  ****** ****** ****** ****** ****** ****** ****** ****** ****** ******
      ****** ****** ****** ****** ****** ****** ****** ****** ****** ******
      ****** ****** ****** ****** ****** ****** ****** ****** ****** ******
   7  ****** ****** ****** ****** ****** ****** ****** ****** ****** ******
      ****** ****** ****** ****** ****** ****** ****** ****** ****** ******
      ****** ****** ****** ****** ****** ****** ****** ****** ****** ******
   8  ****** ****** ****** ****** ****** ****** ****** ****** ****** ******
      ****** ****** ****** ****** ****** ****** ****** ****** ****** ******
      ****** ****** ****** ****** ****** ****** ****** ****** ****** ******
   9  ****** ****** ****** ****** ****** ****** ****** ****** ****** ******
      ****** ****** ****** ****** ****** ****** ****** ****** ****** ******
      ****** ****** ****** ****** ****** ****** ****** ****** ****** ******
  10  ****** ****** ****** ****** ****** ****** ****** ****** ****** ******
      ****** ****** ****** ****** ****** ****** ****** ****** ****** ******
      ****** ****** ****** ****** ****** ****** ****** ****** ****** ******
  11  ****** ****** ****** ****** ****** ****** ****** ****** ****** ******
      ****** ****** ****** ****** ****** ****** ****** ****** ****** ******
      ****** ****** ****** ****** ****** ****** ****** ****** ****** ******
  12  ****** ****** ****** ****** ****** ****** ****** ****** ****** ******
      ****** ****** ****** ****** ****** ****** ****** ****** ****** ******
      ****** ****** ****** ****** ****** ****** ****** ****** ****** ******
  13  ****** ****** ****** ****** ****** ****** ****** ****** ****** ******
      ****** ****** ****** ****** ****** ****** ****** ****** ****** ******
      ****** ****** ****** ****** ****** ****** ****** ****** ****** ******
  14  ****** ****** ****** ****** ****** ****** ****** ****** ****** ******
      ****** ****** ****** ****** ****** ****** ****** ****** ****** ******
      ****** ****** ****** ****** ****** ****** ****** ****** ****** ******
  15  ****** ****** ****** ****** ****** ****** ****** ****** ****** ******
      ****** ****** ****** ****** ****** ****** ****** ****** ****** ******
      ****** ****** ****** ****** ****** ****** ****** ****** ****** ******
  16  ****** ****** ****** ****** ****** ****** ****** ****** ****** ******
      ****** ****** ****** ****** ****** ****** ****** ****** ****** ******
      ****** ****** ****** ****** ****** ****** ****** ****** ****** ******
  17  ****** ****** ****** ****** ****** ****** ****** ****** ****** ******
      ****** ****** ****** ****** ****** ****** ****** ****** ****** ******
      ****** ****** ****** ****** ****** ****** ****** ****** ****** ******
  18  ****** ****** ****** ****** ****** ****** ****** ****** ****** ******
      ****** ****** ****** ****** ****** ****** ****** ****** ****** ******
      ****** ****** ****** ****** ****** ****** ****** ****** ****** ******
  19  ****** ****** ****** ****** ****** ****** ****** ****** ****** ******
      ****** ****** ****** ****** ****** ****** ****** ****** ****** ******
      ****** ****** ****** ****** ****** ****** ****** ****** ****** ******
  20  ****** ****** ****** ****** ****** ****** ****** ****** ****** ******
      ****** ****** ****** ****** ****** ****** ****** ****** ****** ******
      ****** ****** ****** ****** ****** ****** ****** ****** ****** ******
  21  ****** ****** ****** ****** ****** ****** ****** ****** ****** ******
      ****** ****** ****** ****** ****** ****** ****** ****** ****** ******
      ****** ****** ****** ****** ****** ****** ****** ****** ****** ******
  22  ****** ****** ****** ****** ****** ****** ****** ****** ****** ******
      ****** ****** ****** ****** ****** ****** ****** ****** ****** ******
      ****** ****** ****** ****** ****** ****** ****** ****** ****** ******
  23  ****** ****** ****** ****** ****** ****** ****** ****** ****** ******
      ****** ****** ****** ****** ****** ****** ****** ****** ****** ******
      ****** ****** ****** ****** ****** ****** ****** ****** ****** ******
  24  ****** ****** ****** ****** ****** ****** ****** ****** ****** ******
      ****** ****** ****** ****** ****** ****** ****** ****** ****** ******
      ****** ****** ****** ****** ****** ****** ****** ****** ****** ******
  25  ****** ****** ****** ****** ****** ****** ****** ****** ****** ******
      ****** ****** ****** ****** ****** ****** ****** ****** ****** ******
      ****** ****** ****** ****** ****** ****** ****** ****** ****** ******

 HEAD WILL BE SAVED ON UNIT   51 AT END OF TIME STEP    1, STRESS PERIOD   10
1
  VOLUMETRIC BUDGET FOR ENTIRE MODEL AT END OF TIME STEP    1, STRESS PERIOD  10
  ------------------------------------------------------------------------------

     CUMULATIVE VOLUMES      L**3       RATES FOR THIS TIME STEP      L**3/T
     ------------------                 ------------------------

           IN:                                      IN:
           ---                                      ---
             STORAGE =    36137850.8183               STORAGE =           0.0000
       CONSTANT HEAD =    27993865.8185         CONSTANT HEAD =       35015.1876
               WELLS =           0.0000                 WELLS =           0.0000
            RECHARGE =    23901600.0000              RECHARGE =       55200.0000
      STREAM LEAKAGE =     6960137.4229        STREAM LEAKAGE =        7890.5719

            TOTAL IN =    94993454.0598              TOTAL IN =       98105.7595

          OUT:                                     OUT:
          ----                                     ----
             STORAGE =     2219905.2933               STORAGE =       15453.6040
       CONSTANT HEAD =           0.0000         CONSTANT HEAD =           0.0000
               WELLS =    28723691.7178                 WELLS =       31460.7795
            RECHARGE =           0.0000              RECHARGE =           0.0000
      STREAM LEAKAGE =    64049858.6513        STREAM LEAKAGE =       51191.3722

           TOTAL OUT =    94993455.6623             TOTAL OUT =       98105.7557

            IN - OUT =          -1.6025              IN - OUT =       3.8211E-03

 PERCENT DISCREPANCY =          -0.00     PERCENT DISCREPANCY =           0.00






         TIME SUMMARY AT END OF TIME STEP    1 IN STRESS PERIOD   10
                    SECONDS     MINUTES      HOURS       DAYS        YEARS
                    -----------------------------------------------------------
   TIME STEP LENGTH 7.86240E+06 1.31040E+05  2184.0      91.000     0.24914    
 STRESS PERIOD TIME 7.86240E+06 1.31040E+05  2184.0      91.000     0.24914    
         TOTAL TIME 7.88832E+07 1.31472E+06  21912.      913.00      2.4997    
1
1
                            STRESS PERIOD NO.   11, LENGTH =   91.00000    
                            -----------------------------------------------

                              NUMBER OF TIME STEPS =     1

                               MULTIPLIER FOR DELT =     1.500

                            INITIAL TIME STEP SIZE =   91.00000    

 WELL NO.  LAYER   ROW   COL   STRESS RATE         
 --------------------------------------------------
      1      1     20     21     -0.1142E+05
      2      1     18     16      -7655.    
      3      1     20     18      -5517.    
      4      1      4      9      -6868.    

      4 WELLS

                 RECHARGE =   0.00000    

 REUSING STREAM SEGMENT DATA FROM LAST STRESS PERIOD
 
 SOLVING FOR HEAD 


     7 CALLS TO PCG ROUTINE FOR TIME STEP   1 IN STRESS PERIOD   11
    26 TOTAL ITERATIONS

 OUTPUT CONTROL FOR STRESS PERIOD   11   TIME STEP    1
    SAVE BUDGET
    SAVE HEAD FOR ALL LAYERS
    PRINT HEAD FOR ALL LAYERS
 UBDSV2 SAVING "STREAMFLOW OUT  " ON UNIT  50 AT TIME STEP  1, STRESS PERIOD  11



 STREAM LISTING     PERIOD     11   STEP        1

 LAYER ROW COL. STREAM  RCH.  FLOW INTO     FLOW TO   FLOW OUT OF   OVRLND.     DIRECT     STREAM       STREAM     STREAM     STREAM   STREAMBED  STREAMBED
                SEG.NO.  NO.  STRM. RCH.    AQUIFER    STRM. RCH.    RUNOFF     PRECIP       ET          HEAD       DEPTH      WIDTH   CONDCTNC.   GRADIENT

   1   13    1     1     1    1.0000E+05 -1.0622E+03   1.0106E+05  0.000E+00  0.000E+00  0.000E+00  4.84065E+01  1.451E-01  2.000E+01  2.000E+04 -5.311E-02
   1   13    2     1     2    1.0106E+05 -1.9483E+03   1.0301E+05  0.000E+00  0.000E+00  0.000E+00  4.79305E+01  1.464E-01  2.000E+01  2.000E+04 -9.742E-02
   1   14    3     1     3    1.0301E+05 -3.0405E+02   1.0331E+05  0.000E+00  0.000E+00  0.000E+00  4.74542E+01  1.474E-01  2.000E+01  2.000E+04 -1.520E-02
   1   15    4     1     4    1.0331E+05 -2.7973E+02   1.0359E+05  0.000E+00  0.000E+00  0.000E+00  4.69772E+01  1.476E-01  2.000E+01  2.000E+04 -1.399E-02
   1   16    5     1     5    1.0359E+05 -1.1231E+03   1.0472E+05  0.000E+00  0.000E+00  0.000E+00  4.65005E+01  1.482E-01  2.000E+01  2.000E+04 -5.616E-02
   1   16    6     1     6    1.0472E+05 -6.8036E+02   1.0540E+05  0.000E+00  0.000E+00  0.000E+00  4.60240E+01  1.490E-01  2.000E+01  2.000E+04 -3.402E-02
   1   16    7     1     7    1.0540E+05 -6.2893E+02   1.0603E+05  0.000E+00  0.000E+00  0.000E+00  4.55473E+01  1.496E-01  2.000E+01  2.000E+04 -3.145E-02
   1   16    8     1     8    1.0603E+05 -5.6841E+02   1.0660E+05  0.000E+00  0.000E+00  0.000E+00  4.50705E+01  1.501E-01  2.000E+01  2.000E+04 -2.842E-02
   1   16    9     1     9    1.0660E+05 -4.7873E+02   1.0707E+05  0.000E+00  0.000E+00  0.000E+00  4.45937E+01  1.505E-01  2.000E+01  2.000E+04 -2.394E-02
   1   16   10     1    10    1.0707E+05 -3.4459E+02   1.0742E+05  0.000E+00  0.000E+00  0.000E+00  4.41168E+01  1.509E-01  2.000E+01  2.000E+04 -1.723E-02
   1   16   11     1    11    1.0742E+05 -1.3283E+02   1.0755E+05  0.000E+00  0.000E+00  0.000E+00  4.36397E+01  1.511E-01  2.000E+01  2.000E+04 -6.642E-03
   1   16   12     1    12    1.0755E+05  4.2606E+02   1.0713E+05  0.000E+00  0.000E+00  0.000E+00  4.31623E+01  1.509E-01  2.000E+01  2.000E+04  2.130E-02
   1   15   13     1    13    1.0713E+05  4.4468E+02   1.0668E+05  0.000E+00  0.000E+00  0.000E+00  4.26847E+01  1.506E-01  2.000E+01  2.000E+04  2.223E-02
   1   14   14     1    14    1.0668E+05  6.4909E+01   1.0662E+05  0.000E+00  0.000E+00  0.000E+00  4.22072E+01  1.503E-01  2.000E+01  2.000E+04  3.245E-03
   1   13   15     1    15    1.0662E+05 -5.2713E+02   1.0714E+05  0.000E+00  0.000E+00  0.000E+00  4.17301E+01  1.505E-01  2.000E+01  2.000E+04 -2.636E-02
   1   12   16     1    16    1.0714E+05 -1.6715E+03   1.0881E+05  0.000E+00  0.000E+00  0.000E+00  4.12537E+01  1.515E-01  2.000E+01  2.000E+04 -8.358E-02
   1   12   17     1    17    1.0881E+05 -8.7284E+02   1.0969E+05  0.000E+00  0.000E+00  0.000E+00  4.07775E+01  1.525E-01  2.000E+01  2.000E+04 -4.364E-02
   1   12   18     1    18    1.0969E+05 -8.3973E+02   1.1053E+05  0.000E+00  0.000E+00  0.000E+00  4.03010E+01  1.533E-01  2.000E+01  2.000E+04 -4.199E-02
   1   12   19     1    19    1.1053E+05 -1.4808E+03   1.1201E+05  0.000E+00  0.000E+00  0.000E+00  3.98247E+01  1.542E-01  2.000E+01  2.000E+04 -7.404E-02
   1   13   20     1    20    1.1201E+05 -2.2604E+02   1.1223E+05  0.000E+00  0.000E+00  0.000E+00  3.93481E+01  1.549E-01  2.000E+01  2.000E+04 -1.130E-02
   1   14   21     1    21    1.1223E+05  1.0235E+03   1.1121E+05  0.000E+00  0.000E+00  0.000E+00  3.88705E+01  1.546E-01  2.000E+01  2.000E+04  5.118E-02
   1   14   22     1    22    1.1121E+05  5.3129E+03   1.0590E+05  0.000E+00  0.000E+00  0.000E+00  3.83906E+01  1.520E-01  2.000E+01  2.000E+04  2.656E-01
   1    9   30     2     1    5.0000E+04 -4.6745E+02   5.0467E+04  0.000E+00  0.000E+00  0.000E+00  4.02412E+01  1.162E-01  2.000E+01  2.000E+04 -2.337E-02
   1    9   29     2     2    5.0467E+04 -7.6445E+02   5.1232E+04  0.000E+00  0.000E+00  0.000E+00  3.99920E+01  1.170E-01  2.000E+01  2.000E+04 -3.822E-02
   1    9   28     2     3    5.1232E+04 -1.0117E+03   5.2244E+04  0.000E+00  0.000E+00  0.000E+00  3.97433E+01  1.183E-01  2.000E+01  2.000E+04 -5.059E-02
   1    9   27     2     4    5.2244E+04 -2.1700E+03   5.4414E+04  0.000E+00  0.000E+00  0.000E+00  3.94954E+01  1.204E-01  2.000E+01  2.000E+04 -1.085E-01
   1   10   26     2     5    5.4414E+04 -1.3732E+03   5.5787E+04  0.000E+00  0.000E+00  0.000E+00  3.92478E+01  1.228E-01  2.000E+01  2.000E+04 -6.866E-02
   1   11   25     2     6    5.5787E+04 -1.1783E+03   5.6965E+04  0.000E+00  0.000E+00  0.000E+00  3.89995E+01  1.245E-01  2.000E+01  2.000E+04 -5.891E-02
   1   12   24     2     7    5.6965E+04 -1.2590E+03   5.8224E+04  0.000E+00  0.000E+00  0.000E+00  3.87511E+01  1.261E-01  2.000E+01  2.000E+04 -6.295E-02
   1   13   23     2     8    5.8224E+04 -1.7109E+02   5.8395E+04  0.000E+00  0.000E+00  0.000E+00  3.85021E+01  1.271E-01  2.000E+01  2.000E+04 -8.554E-03
   1   14   22     2     9    5.8395E+04  2.5116E+03   5.5884E+04  0.000E+00  0.000E+00  0.000E+00  3.82505E+01  1.255E-01  2.000E+01  2.000E+04  1.256E-01
   1   14   22     3     1    1.6178E+05 -8.1358E+03   1.6992E+05  0.000E+00  0.000E+00  0.000E+00  3.77182E+01  1.626E-01  2.000E+01  2.000E+04 -4.068E-01
   1   15   23     3     2    1.6992E+05  4.4116E+01   1.6987E+05  0.000E+00  0.000E+00  0.000E+00  3.68316E+01  1.650E-01  2.000E+01  2.000E+04  2.206E-03
   1   15   24     3     3    1.6987E+05 -5.3349E+01   1.6993E+05  0.000E+00  0.000E+00  0.000E+00  3.59428E+01  1.650E-01  2.000E+01  2.000E+04 -2.667E-03
   1   15   25     3     4    1.6993E+05 -9.6708E+01   1.7002E+05  0.000E+00  0.000E+00  0.000E+00  3.50539E+01  1.650E-01  2.000E+01  2.000E+04 -4.835E-03
   1   15   26     3     5    1.7002E+05 -1.9165E+02   1.7021E+05  0.000E+00  0.000E+00  0.000E+00  3.41651E+01  1.651E-01  2.000E+01  2.000E+04 -9.583E-03
   1   16   27     3     6    1.7021E+05 -1.5807E+02   1.7037E+05  0.000E+00  0.000E+00  0.000E+00  3.32763E+01  1.652E-01  2.000E+01  2.000E+04 -7.904E-03
   1   17   28     3     7    1.7037E+05 -8.0650E+02   1.7118E+05  0.000E+00  0.000E+00  0.000E+00  3.23877E+01  1.655E-01  2.000E+01  2.000E+04 -4.033E-02
   1   18   29     3     8    1.7118E+05 -1.4905E+03   1.7267E+05  0.000E+00  0.000E+00  0.000E+00  3.14995E+01  1.662E-01  2.000E+01  2.000E+04 -7.452E-02
   1   18   30     3     9    1.7267E+05 -2.2943E+03   1.7496E+05  0.000E+00  0.000E+00  0.000E+00  3.06117E+01  1.672E-01  2.000E+01  2.000E+04 -1.147E-01



1
              HEAD IN LAYER   1 AT END OF TIME STEP   1 IN STRESS PERIOD   11
  ---------------------------------------------------------------------------

          1      2      3      4      5      6      7      8      9     10
         11     12     13     14     15     16     17     18     19     20
         21     22     23     24     25     26     27     28     29     30
 .........................................................................
   1  ****** ****** ****** ****** ****** ****** ****** ****** ****** ******
      ****** ****** ****** ****** ****** ****** ****** ****** ****** ******
      ****** ****** ****** ****** ****** ****** ****** ****** ****** ******
   2  ****** ****** ****** ****** ****** ****** ****** ****** ****** ******
      ****** ****** ****** ****** ****** ****** ****** ****** ****** ******
      ****** ****** ****** ****** ****** ****** ****** ****** ****** ******
   3  ****** ****** ****** ****** ****** ****** ****** ****** ****** ******
      ****** ****** ****** ****** ****** ****** ****** ****** ****** ******
      ****** ****** ****** ****** ****** ****** ****** ****** ****** ******
   4  ****** ****** ****** ****** ****** ****** ****** ****** ****** ******
      ****** ****** ****** ****** ****** ****** ****** ****** ****** ******
      ****** ****** ****** ****** ****** ****** ****** ****** ****** ******
   5  ****** ****** ****** ****** ****** ****** ****** ****** ****** ******
      ****** ****** ****** ****** ****** ****** ****** ****** ****** ******
      ****** ****** ****** ****** ****** ****** ****** ****** ****** ******
   6  ****** ****** ****** ****** ****** ****** ****** ****** ****** ******
      ****** ****** ****** ****** ****** ****** ****** ****** ****** ******
      ****** ****** ****** ****** ****** ****** ****** ****** ****** ******
   7  ****** ****** ****** ****** ****** ****** ****** ****** ****** ******
      ****** ****** ****** ****** ****** ****** ****** ****** ****** ******
      ****** ****** ****** ****** ****** ****** ****** ****** ****** ******
   8  ****** ****** ****** ****** ****** ****** ****** ****** ****** ******
      ****** ****** ****** ****** ****** ****** ****** ****** ****** ******
      ****** ****** ****** ****** ****** ****** ****** ****** ****** ******
   9  ****** ****** ****** ****** ****** ****** ****** ****** ****** ******
      ****** ****** ****** ****** ****** ****** ****** ****** ****** ******
      ****** ****** ****** ****** ****** ****** ****** ****** ****** ******
  10  ****** ****** ****** ****** ****** ****** ****** ****** ****** ******
      ****** ****** ****** ****** ****** ****** ****** ****** ****** ******
      ****** ****** ****** ****** ****** ****** ****** ****** ****** ******
  11  ****** ****** ****** ****** ****** ****** ****** ****** ****** ******
      ****** ****** ****** ****** ****** ****** ****** ****** ****** ******
      ****** ****** ****** ****** ****** ****** ****** ****** ****** ******
  12  ****** ****** ****** ****** ****** ****** ****** ****** ****** ******
      ****** ****** ****** ****** ****** ****** ****** ****** ****** ******
      ****** ****** ****** ****** ****** ****** ****** ****** ****** ******
  13  ****** ****** ****** ****** ****** ****** ****** ****** ****** ******
      ****** ****** ****** ****** ****** ****** ****** ****** ****** ******
      ****** ****** ****** ****** ****** ****** ****** ****** ****** ******
  14  ****** ****** ****** ****** ****** ****** ****** ****** ****** ******
      ****** ****** ****** ****** ****** ****** ****** ****** ****** ******
      ****** ****** ****** ****** ****** ****** ****** ****** ****** ******
  15  ****** ****** ****** ****** ****** ****** ****** ****** ****** ******
      ****** ****** ****** ****** ****** ****** ****** ****** ****** ******
      ****** ****** ****** ****** ****** ****** ****** ****** ****** ******
  16  ****** ****** ****** ****** ****** ****** ****** ****** ****** ******
      ****** ****** ****** ****** ****** ****** ****** ****** ****** ******
      ****** ****** ****** ****** ****** ****** ****** ****** ****** ******
  17  ****** ****** ****** ****** ****** ****** ****** ****** ****** ******
      ****** ****** ****** ****** ****** ****** ****** ****** ****** ******
      ****** ****** ****** ****** ****** ****** ****** ****** ****** ******
  18  ****** ****** ****** ****** ****** ****** ****** ****** ****** ******
      ****** ****** ****** ****** ****** ****** ****** ****** ****** ******
      ****** ****** ****** ****** ****** ****** ****** ****** ****** ******
  19  ****** ****** ****** ****** ****** ****** ****** ****** ****** ******
      ****** ****** ****** ****** ****** ****** ****** ****** ****** ******
      ****** ****** ****** ****** ****** ****** ****** ****** ****** ******
  20  ****** ****** ****** ****** ****** ****** ****** ****** ****** ******
      ****** ****** ****** ****** ****** ****** ****** ****** ****** ******
      ****** ****** ****** ****** ****** ****** ****** ****** ****** ******
  21  ****** ****** ****** ****** ****** ****** ****** ****** ****** ******
      ****** ****** ****** ****** ****** ****** ****** ****** ****** ******
      ****** ****** ****** ****** ****** ****** ****** ****** ****** ******
  22  ****** ****** ****** ****** ****** ****** ****** ****** ****** ******
      ****** ****** ****** ****** ****** ****** ****** ****** ****** ******
      ****** ****** ****** ****** ****** ****** ****** ****** ****** ******
  23  ****** ****** ****** ****** ****** ****** ****** ****** ****** ******
      ****** ****** ****** ****** ****** ****** ****** ****** ****** ******
      ****** ****** ****** ****** ****** ****** ****** ****** ****** ******
  24  ****** ****** ****** ****** ****** ****** ****** ****** ****** ******
      ****** ****** ****** ****** ****** ****** ****** ****** ****** ******
      ****** ****** ****** ****** ****** ****** ****** ****** ****** ******
  25  ****** ****** ****** ****** ****** ****** ****** ****** ****** ******
      ****** ****** ****** ****** ****** ****** ****** ****** ****** ******
      ****** ****** ****** ****** ****** ****** ****** ****** ****** ******

 HEAD WILL BE SAVED ON UNIT   51 AT END OF TIME STEP    1, STRESS PERIOD   11
1
  VOLUMETRIC BUDGET FOR ENTIRE MODEL AT END OF TIME STEP    1, STRESS PERIOD  11
  ------------------------------------------------------------------------------

     CUMULATIVE VOLUMES      L**3       RATES FOR THIS TIME STEP      L**3/T
     ------------------                 ------------------------

           IN:                                      IN:
           ---                                      ---
             STORAGE =    37785234.4937               STORAGE =       18103.1173
       CONSTANT HEAD =    31481094.3532         CONSTANT HEAD =       38321.1927
               WELLS =           0.0000                 WELLS =           0.0000
            RECHARGE =    23901600.0000              RECHARGE =           0.0000
      STREAM LEAKAGE =     7854461.9210        STREAM LEAKAGE =        9827.7417

            TOTAL IN =   101022390.7680              TOTAL IN =       66252.0517

          OUT:                                     OUT:
          ----                                     ----
             STORAGE =     2219905.2933               STORAGE =           0.0000
       CONSTANT HEAD =           0.0000         CONSTANT HEAD =           0.0000
               WELLS =    31586622.6557                 WELLS =       31460.7795
            RECHARGE =           0.0000              RECHARGE =           0.0000
      STREAM LEAKAGE =    67215864.8711        STREAM LEAKAGE =       34791.2771

           TOTAL OUT =   101022392.8201             TOTAL OUT =       66252.0567

            IN - OUT =          -2.0521              IN - OUT =      -4.9398E-03

 PERCENT DISCREPANCY =          -0.00     PERCENT DISCREPANCY =          -0.00






         TIME SUMMARY AT END OF TIME STEP    1 IN STRESS PERIOD   11
                    SECONDS     MINUTES      HOURS       DAYS        YEARS
                    -----------------------------------------------------------
   TIME STEP LENGTH 7.86240E+06 1.31040E+05  2184.0      91.000     0.24914    
 STRESS PERIOD TIME 7.86240E+06 1.31040E+05  2184.0      91.000     0.24914    
         TOTAL TIME 8.67456E+07 1.44576E+06  24096.      1004.0      2.7488    
1
1
                            STRESS PERIOD NO.   12, LENGTH =   91.00000    
                            -----------------------------------------------

                              NUMBER OF TIME STEPS =     1

                               MULTIPLIER FOR DELT =     1.500

                            INITIAL TIME STEP SIZE =   91.00000    

 WELL NO.  LAYER   ROW   COL   STRESS RATE         
 --------------------------------------------------
      1      1     20     21     -0.1142E+05
      2      1     18     16      -7655.    
      3      1     20     18      -5517.    
      4      1      4      9      -6868.    

      4 WELLS

                 RECHARGE =  1.000000E-03

 REUSING STREAM SEGMENT DATA FROM LAST STRESS PERIOD
 
 SOLVING FOR HEAD 


     7 CALLS TO PCG ROUTINE FOR TIME STEP   1 IN STRESS PERIOD   12
    24 TOTAL ITERATIONS

 OUTPUT CONTROL FOR STRESS PERIOD   12   TIME STEP    1
    SAVE BUDGET
    SAVE HEAD FOR ALL LAYERS
    PRINT HEAD FOR ALL LAYERS
 UBDSV2 SAVING "STREAMFLOW OUT  " ON UNIT  50 AT TIME STEP  1, STRESS PERIOD  12



 STREAM LISTING     PERIOD     12   STEP        1

 LAYER ROW COL. STREAM  RCH.  FLOW INTO     FLOW TO   FLOW OUT OF   OVRLND.     DIRECT     STREAM       STREAM     STREAM     STREAM   STREAMBED  STREAMBED
                SEG.NO.  NO.  STRM. RCH.    AQUIFER    STRM. RCH.    RUNOFF     PRECIP       ET          HEAD       DEPTH      WIDTH   CONDCTNC.   GRADIENT

   1   13    1     1     1    1.0000E+05 -1.2028E+03   1.0120E+05  0.000E+00  0.000E+00  0.000E+00  4.84065E+01  1.452E-01  2.000E+01  2.000E+04 -6.014E-02
   1   13    2     1     2    1.0120E+05 -2.0992E+03   1.0330E+05  0.000E+00  0.000E+00  0.000E+00  4.79307E+01  1.466E-01  2.000E+01  2.000E+04 -1.050E-01
   1   14    3     1     3    1.0330E+05 -3.8191E+02   1.0368E+05  0.000E+00  0.000E+00  0.000E+00  4.74545E+01  1.477E-01  2.000E+01  2.000E+04 -1.910E-02
   1   15    4     1     4    1.0368E+05 -3.6150E+02   1.0405E+05  0.000E+00  0.000E+00  0.000E+00  4.69775E+01  1.480E-01  2.000E+01  2.000E+04 -1.808E-02
   1   16    5     1     5    1.0405E+05 -1.3321E+03   1.0538E+05  0.000E+00  0.000E+00  0.000E+00  4.65010E+01  1.487E-01  2.000E+01  2.000E+04 -6.661E-02
   1   16    6     1     6    1.0538E+05 -8.1011E+02   1.0619E+05  0.000E+00  0.000E+00  0.000E+00  4.60246E+01  1.496E-01  2.000E+01  2.000E+04 -4.051E-02
   1   16    7     1     7    1.0619E+05 -7.5356E+02   1.0694E+05  0.000E+00  0.000E+00  0.000E+00  4.55480E+01  1.503E-01  2.000E+01  2.000E+04 -3.768E-02
   1   16    8     1     8    1.0694E+05 -6.9200E+02   1.0763E+05  0.000E+00  0.000E+00  0.000E+00  4.50713E+01  1.509E-01  2.000E+01  2.000E+04 -3.460E-02
   1   16    9     1     9    1.0763E+05 -6.0278E+02   1.0824E+05  0.000E+00  0.000E+00  0.000E+00  4.45946E+01  1.514E-01  2.000E+01  2.000E+04 -3.014E-02
   1   16   10     1    10    1.0824E+05 -4.7004E+02   1.0871E+05  0.000E+00  0.000E+00  0.000E+00  4.41178E+01  1.519E-01  2.000E+01  2.000E+04 -2.350E-02
   1   16   11     1    11    1.0871E+05 -2.6056E+02   1.0897E+05  0.000E+00  0.000E+00  0.000E+00  4.36408E+01  1.522E-01  2.000E+01  2.000E+04 -1.303E-02
   1   16   12     1    12    1.0897E+05  2.2559E+02   1.0874E+05  0.000E+00  0.000E+00  0.000E+00  4.31636E+01  1.522E-01  2.000E+01  2.000E+04  1.128E-02
   1   15   13     1    13    1.0874E+05  2.2947E+02   1.0851E+05  0.000E+00  0.000E+00  0.000E+00  4.26861E+01  1.520E-01  2.000E+01  2.000E+04  1.147E-02
   1   14   14     1    14    1.0851E+05 -1.5051E+02   1.0866E+05  0.000E+00  0.000E+00  0.000E+00  4.22088E+01  1.520E-01  2.000E+01  2.000E+04 -7.526E-03
   1   13   15     1    15    1.0866E+05 -7.3501E+02   1.0940E+05  0.000E+00  0.000E+00  0.000E+00  4.17319E+01  1.524E-01  2.000E+01  2.000E+04 -3.675E-02
   1   12   16     1    16    1.0940E+05 -1.8525E+03   1.1125E+05  0.000E+00  0.000E+00  0.000E+00  4.12557E+01  1.534E-01  2.000E+01  2.000E+04 -9.263E-02
   1   12   17     1    17    1.1125E+05 -1.0250E+03   1.1227E+05  0.000E+00  0.000E+00  0.000E+00  4.07796E+01  1.546E-01  2.000E+01  2.000E+04 -5.125E-02
   1   12   18     1    18    1.1227E+05 -9.9426E+02   1.1327E+05  0.000E+00  0.000E+00  0.000E+00  4.03032E+01  1.555E-01  2.000E+01  2.000E+04 -4.971E-02
   1   12   19     1    19    1.1327E+05 -1.6720E+03   1.1494E+05  0.000E+00  0.000E+00  0.000E+00  3.98270E+01  1.566E-01  2.000E+01  2.000E+04 -8.360E-02
   1   13   20     1    20    1.1494E+05 -4.3555E+02   1.1538E+05  0.000E+00  0.000E+00  0.000E+00  3.93506E+01  1.574E-01  2.000E+01  2.000E+04 -2.178E-02
   1   14   21     1    21    1.1538E+05  8.3048E+02   1.1455E+05  0.000E+00  0.000E+00  0.000E+00  3.88732E+01  1.573E-01  2.000E+01  2.000E+04  4.152E-02
   1   14   22     1    22    1.1455E+05  5.2611E+03   1.0928E+05  0.000E+00  0.000E+00  0.000E+00  3.83934E+01  1.548E-01  2.000E+01  2.000E+04  2.631E-01
   1    9   30     2     1    5.0000E+04 -6.4370E+02   5.0644E+04  0.000E+00  0.000E+00  0.000E+00  4.02413E+01  1.163E-01  2.000E+01  2.000E+04 -3.219E-02
   1    9   29     2     2    5.0644E+04 -9.3864E+02   5.1582E+04  0.000E+00  0.000E+00  0.000E+00  3.99924E+01  1.174E-01  2.000E+01  2.000E+04 -4.693E-02
   1    9   28     2     3    5.1582E+04 -1.1823E+03   5.2765E+04  0.000E+00  0.000E+00  0.000E+00  3.97439E+01  1.189E-01  2.000E+01  2.000E+04 -5.912E-02
   1    9   27     2     4    5.2765E+04 -2.3786E+03   5.5143E+04  0.000E+00  0.000E+00  0.000E+00  3.94963E+01  1.213E-01  2.000E+01  2.000E+04 -1.189E-01
   1   10   26     2     5    5.5143E+04 -1.6026E+03   5.6746E+04  0.000E+00  0.000E+00  0.000E+00  3.92489E+01  1.239E-01  2.000E+01  2.000E+04 -8.013E-02
   1   11   25     2     6    5.6746E+04 -1.4037E+03   5.8150E+04  0.000E+00  0.000E+00  0.000E+00  3.90009E+01  1.259E-01  2.000E+01  2.000E+04 -7.019E-02
   1   12   24     2     7    5.8150E+04 -1.4648E+03   5.9614E+04  0.000E+00  0.000E+00  0.000E+00  3.87528E+01  1.278E-01  2.000E+01  2.000E+04 -7.324E-02
   1   13   23     2     8    5.9614E+04 -2.4866E+02   5.9863E+04  0.000E+00  0.000E+00  0.000E+00  3.85039E+01  1.289E-01  2.000E+01  2.000E+04 -1.243E-02
   1   14   22     2     9    5.9863E+04  2.4431E+03   5.7420E+04  0.000E+00  0.000E+00  0.000E+00  3.82525E+01  1.275E-01  2.000E+01  2.000E+04  1.222E-01
   1   14   22     3     1    1.6670E+05 -8.1858E+03   1.7489E+05  0.000E+00  0.000E+00  0.000E+00  3.77211E+01  1.655E-01  2.000E+01  2.000E+04 -4.093E-01
   1   15   23     3     2    1.7489E+05 -2.7687E+01   1.7492E+05  0.000E+00  0.000E+00  0.000E+00  3.68345E+01  1.679E-01  2.000E+01  2.000E+04 -1.384E-03
   1   15   24     3     3    1.7492E+05 -1.1830E+02   1.7504E+05  0.000E+00  0.000E+00  0.000E+00  3.59457E+01  1.679E-01  2.000E+01  2.000E+04 -5.915E-03
   1   15   25     3     4    1.7504E+05 -1.6295E+02   1.7520E+05  0.000E+00  0.000E+00  0.000E+00  3.50569E+01  1.680E-01  2.000E+01  2.000E+04 -8.147E-03
   1   15   26     3     5    1.7520E+05 -2.6906E+02   1.7547E+05  0.000E+00  0.000E+00  0.000E+00  3.41681E+01  1.681E-01  2.000E+01  2.000E+04 -1.345E-02
   1   16   27     3     6    1.7547E+05 -2.4471E+02   1.7571E+05  0.000E+00  0.000E+00  0.000E+00  3.32794E+01  1.683E-01  2.000E+01  2.000E+04 -1.224E-02
   1   17   28     3     7    1.7571E+05 -1.0267E+03   1.7674E+05  0.000E+00  0.000E+00  0.000E+00  3.23909E+01  1.686E-01  2.000E+01  2.000E+04 -5.134E-02
   1   18   29     3     8    1.7674E+05 -1.6900E+03   1.7843E+05  0.000E+00  0.000E+00  0.000E+00  3.15027E+01  1.694E-01  2.000E+01  2.000E+04 -8.450E-02
   1   18   30     3     9    1.7843E+05 -2.4618E+03   1.8089E+05  0.000E+00  0.000E+00  0.000E+00  3.06150E+01  1.706E-01  2.000E+01  2.000E+04 -1.231E-01



1
              HEAD IN LAYER   1 AT END OF TIME STEP   1 IN STRESS PERIOD   12
  ---------------------------------------------------------------------------

          1      2      3      4      5      6      7      8      9     10
         11     12     13     14     15     16     17     18     19     20
         21     22     23     24     25     26     27     28     29     30
 .........................................................................
   1  ****** ****** ****** ****** ****** ****** ****** ****** ****** ******
      ****** ****** ****** ****** ****** ****** ****** ****** ****** ******
      ****** ****** ****** ****** ****** ****** ****** ****** ****** ******
   2  ****** ****** ****** ****** ****** ****** ****** ****** ****** ******
      ****** ****** ****** ****** ****** ****** ****** ****** ****** ******
      ****** ****** ****** ****** ****** ****** ****** ****** ****** ******
   3  ****** ****** ****** ****** ****** ****** ****** ****** ****** ******
      ****** ****** ****** ****** ****** ****** ****** ****** ****** ******
      ****** ****** ****** ****** ****** ****** ****** ****** ****** ******
   4  ****** ****** ****** ****** ****** ****** ****** ****** ****** ******
      ****** ****** ****** ****** ****** ****** ****** ****** ****** ******
      ****** ****** ****** ****** ****** ****** ****** ****** ****** ******
   5  ****** ****** ****** ****** ****** ****** ****** ****** ****** ******
      ****** ****** ****** ****** ****** ****** ****** ****** ****** ******
      ****** ****** ****** ****** ****** ****** ****** ****** ****** ******
   6  ****** ****** ****** ****** ****** ****** ****** ****** ****** ******
      ****** ****** ****** ****** ****** ****** ****** ****** ****** ******
      ****** ****** ****** ****** ****** ****** ****** ****** ****** ******
   7  ****** ****** ****** ****** ****** ****** ****** ****** ****** ******
      ****** ****** ****** ****** ****** ****** ****** ****** ****** ******
      ****** ****** ****** ****** ****** ****** ****** ****** ****** ******
   8  ****** ****** ****** ****** ****** ****** ****** ****** ****** ******
      ****** ****** ****** ****** ****** ****** ****** ****** ****** ******
      ****** ****** ****** ****** ****** ****** ****** ****** ****** ******
   9  ****** ****** ****** ****** ****** ****** ****** ****** ****** ******
      ****** ****** ****** ****** ****** ****** ****** ****** ****** ******
      ****** ****** ****** ****** ****** ****** ****** ****** ****** ******
  10  ****** ****** ****** ****** ****** ****** ****** ****** ****** ******
      ****** ****** ****** ****** ****** ****** ****** ****** ****** ******
      ****** ****** ****** ****** ****** ****** ****** ****** ****** ******
  11  ****** ****** ****** ****** ****** ****** ****** ****** ****** ******
      ****** ****** ****** ****** ****** ****** ****** ****** ****** ******
      ****** ****** ****** ****** ****** ****** ****** ****** ****** ******
  12  ****** ****** ****** ****** ****** ****** ****** ****** ****** ******
      ****** ****** ****** ****** ****** ****** ****** ****** ****** ******
      ****** ****** ****** ****** ****** ****** ****** ****** ****** ******
  13  ****** ****** ****** ****** ****** ****** ****** ****** ****** ******
      ****** ****** ****** ****** ****** ****** ****** ****** ****** ******
      ****** ****** ****** ****** ****** ****** ****** ****** ****** ******
  14  ****** ****** ****** ****** ****** ****** ****** ****** ****** ******
      ****** ****** ****** ****** ****** ****** ****** ****** ****** ******
      ****** ****** ****** ****** ****** ****** ****** ****** ****** ******
  15  ****** ****** ****** ****** ****** ****** ****** ****** ****** ******
      ****** ****** ****** ****** ****** ****** ****** ****** ****** ******
      ****** ****** ****** ****** ****** ****** ****** ****** ****** ******
  16  ****** ****** ****** ****** ****** ****** ****** ****** ****** ******
      ****** ****** ****** ****** ****** ****** ****** ****** ****** ******
      ****** ****** ****** ****** ****** ****** ****** ****** ****** ******
  17  ****** ****** ****** ****** ****** ****** ****** ****** ****** ******
      ****** ****** ****** ****** ****** ****** ****** ****** ****** ******
      ****** ****** ****** ****** ****** ****** ****** ****** ****** ******
  18  ****** ****** ****** ****** ****** ****** ****** ****** ****** ******
      ****** ****** ****** ****** ****** ****** ****** ****** ****** ******
      ****** ****** ****** ****** ****** ****** ****** ****** ****** ******
  19  ****** ****** ****** ****** ****** ****** ****** ****** ****** ******
      ****** ****** ****** ****** ****** ****** ****** ****** ****** ******
      ****** ****** ****** ****** ****** ****** ****** ****** ****** ******
  20  ****** ****** ****** ****** ****** ****** ****** ****** ****** ******
      ****** ****** ****** ****** ****** ****** ****** ****** ****** ******
      ****** ****** ****** ****** ****** ****** ****** ****** ****** ******
  21  ****** ****** ****** ****** ****** ****** ****** ****** ****** ******
      ****** ****** ****** ****** ****** ****** ****** ****** ****** ******
      ****** ****** ****** ****** ****** ****** ****** ****** ****** ******
  22  ****** ****** ****** ****** ****** ****** ****** ****** ****** ******
      ****** ****** ****** ****** ****** ****** ****** ****** ****** ******
      ****** ****** ****** ****** ****** ****** ****** ****** ****** ******
  23  ****** ****** ****** ****** ****** ****** ****** ****** ****** ******
      ****** ****** ****** ****** ****** ****** ****** ****** ****** ******
      ****** ****** ****** ****** ****** ****** ****** ****** ****** ******
  24  ****** ****** ****** ****** ****** ****** ****** ****** ****** ******
      ****** ****** ****** ****** ****** ****** ****** ****** ****** ******
      ****** ****** ****** ****** ****** ****** ****** ****** ****** ******
  25  ****** ****** ****** ****** ****** ****** ****** ****** ****** ******
      ****** ****** ****** ****** ****** ****** ****** ****** ****** ******
      ****** ****** ****** ****** ****** ****** ****** ****** ****** ******

 HEAD WILL BE SAVED ON UNIT   51 AT END OF TIME STEP    1, STRESS PERIOD   12
1
  VOLUMETRIC BUDGET FOR ENTIRE MODEL AT END OF TIME STEP    1, STRESS PERIOD  12
  ------------------------------------------------------------------------------

     CUMULATIVE VOLUMES      L**3       RATES FOR THIS TIME STEP      L**3/T
     ------------------                 ------------------------

           IN:                                      IN:
           ---                                      ---
             STORAGE =    37788284.4660               STORAGE =          33.5162
       CONSTANT HEAD =    34906225.9000         CONSTANT HEAD =       37638.8082
               WELLS =           0.0000                 WELLS =           0.0000
            RECHARGE =    26413200.0000              RECHARGE =       27600.0000
      STREAM LEAKAGE =     8672520.7521        STREAM LEAKAGE =        8989.6575

            TOTAL IN =   107780231.1181              TOTAL IN =       74261.9819

          OUT:                                     OUT:
          ----                                     ----
             STORAGE =     2485586.6496               STORAGE =        2919.5753
       CONSTANT HEAD =           0.0000         CONSTANT HEAD =           0.0000
               WELLS =    34449553.5936                 WELLS =       31460.7795
            RECHARGE =           0.0000              RECHARGE =           0.0000
      STREAM LEAKAGE =    70845092.8412        STREAM LEAKAGE =       39881.6260

           TOTAL OUT =   107780233.0845             TOTAL OUT =       74261.9809

            IN - OUT =          -1.9664              IN - OUT =       9.4147E-04

 PERCENT DISCREPANCY =          -0.00     PERCENT DISCREPANCY =           0.00






         TIME SUMMARY AT END OF TIME STEP    1 IN STRESS PERIOD   12
                    SECONDS     MINUTES      HOURS       DAYS        YEARS
                    -----------------------------------------------------------
   TIME STEP LENGTH 7.86240E+06 1.31040E+05  2184.0      91.000     0.24914    
 STRESS PERIOD TIME 7.86240E+06 1.31040E+05  2184.0      91.000     0.24914    
         TOTAL TIME 9.46080E+07 1.57680E+06  26280.      1095.0      2.9979    
1

 Run end date and time (yyyy/mm/dd hh:mm:ss): 2019/08/27 21:01:18
 Elapsed run time:  0.046 Seconds

