                                  MODFLOW-2005     
      U.S. GEOLOGICAL SURVEY MODULAR FINITE-DIFFERENCE GROUND-WATER FLOW MODEL
                            VERSION 1.11.00 8/8/2013

 LIST FILE: supply2.lst
                         UNIT   10

 OPENING ..\data\supply.dis
 FILE TYPE:DIS   UNIT   11   STATUS:OLD    
 FORMAT:FORMATTED              ACCESS:SEQUENTIAL          

 OPENING ..\data\supply.ba6
 FILE TYPE:BAS6   UNIT   12   STATUS:OLD    
 FORMAT:FORMATTED              ACCESS:SEQUENTIAL          

 OPENING ..\data\supply_het.bc6
 FILE TYPE:BCF6   UNIT   13   STATUS:OLD    
 FORMAT:FORMATTED              ACCESS:SEQUENTIAL          

 OPENING ..\data\supply.rch
 FILE TYPE:RCH   UNIT   15   STATUS:OLD    
 FORMAT:FORMATTED              ACCESS:SEQUENTIAL          

 OPENING ..\data\supply2.sfr
 FILE TYPE:SFR   UNIT   16   STATUS:OLD    
 FORMAT:FORMATTED              ACCESS:SEQUENTIAL          

 OPENING ..\data\supply.oc
 FILE TYPE:OC   UNIT   17   STATUS:OLD    
 FORMAT:FORMATTED              ACCESS:SEQUENTIAL          

 OPENING ..\data\supply.pcg
 FILE TYPE:PCG   UNIT   18   STATUS:OLD    
 FORMAT:FORMATTED              ACCESS:SEQUENTIAL          

 OPENING supply2.wel
 FILE TYPE:WEL   UNIT   19   STATUS:OLD    
 FORMAT:FORMATTED              ACCESS:SEQUENTIAL          

 OPENING supply2sf.cbc
 FILE TYPE:DATA(BINARY)   UNIT   50   STATUS:UNKNOWN
 FORMAT:BINARY                 ACCESS:SEQUENTIAL          

 OPENING supply2hd.bhd
 FILE TYPE:DATA(BINARY)   UNIT   51   STATUS:UNKNOWN
 FORMAT:BINARY                 ACCESS:SEQUENTIAL          

 BAS -- BASIC PACKAGE, VERSION 7, 5/2/2005 INPUT READ FROM UNIT   12
 
 MODFLOW was compiled using uniform precision
 Precision of REAL and DOUBLE PRECISION variables:          15

 DISCRETIZATION INPUT DATA READ FROM UNIT   11
    1 LAYERS        25 ROWS        30 COLUMNS
   12 STRESS PERIOD(S) IN SIMULATION
 MODEL TIME UNIT IS DAYS
 MODEL LENGTH UNIT IS UNDEFINED
  Confining bed flag for each layer:
   0

                     DELR =   200.000    

                     DELC =   200.000    

 TOP ELEVATION OF LAYER 1 =  100.0000    

   MODEL LAYER BOTTOM EL. =   0.00000     FOR LAYER   1


 STRESS PERIOD     LENGTH       TIME STEPS     MULTIPLIER FOR DELT    SS FLAG
 ----------------------------------------------------------------------------
        1         92.00000          1                    1.500         TR
        2         91.00000          1                    1.500         TR
        3         91.00000          1                    1.500         TR
        4         91.00000          1                    1.500         TR
        5         92.00000          1                    1.500         TR
        6         91.00000          1                    1.500         TR
        7         91.00000          1                    1.500         TR
        8         91.00000          1                    1.500         TR
        9         92.00000          1                    1.500         TR
       10         91.00000          1                    1.500         TR
       11         91.00000          1                    1.500         TR
       12         91.00000          1                    1.500         TR

 TRANSIENT SIMULATION



 
 #MODOFC transient water supply sample problem                                   
 #                                                                               
 THE FREE FORMAT OPTION HAS BEEN SELECTED



                     BOUNDARY ARRAY FOR LAYER   1
 READING ON UNIT   12 WITH FORMAT: (20I4)              

 AQUIFER HEAD WILL BE SET TO   0.0000     AT ALL NO-FLOW NODES (IBOUND=0).



                       INITIAL HEAD FOR LAYER   1
 READING ON UNIT   12 WITH FORMAT: (10F13.0)           

 OUTPUT CONTROL IS SPECIFIED ONLY AT TIME STEPS FOR WHICH OUTPUT IS DESIRED
 COMPACT CELL-BY-CELL BUDGET FILES WILL BE WRITTEN
 HEAD PRINT FORMAT CODE IS  18    DRAWDOWN PRINT FORMAT CODE IS   0
 HEADS WILL BE SAVED ON UNIT   51    DRAWDOWNS WILL BE SAVED ON UNIT    0

 BCF -- BLOCK-CENTERED FLOW PACKAGE, VERSION 7, 5/2/2005
         INPUT READ FROM UNIT 13
 TRANSIENT SIMULATION
 HEAD AT CELLS THAT CONVERT TO DRY=   0.0000    
 WETTING CAPABILITY IS NOT ACTIVE
      LAYER  LAYER-TYPE CODE     INTERBLOCK T
      --------------------------------------------
         1            0          0 -- HARMONIC    

 COLUMN TO ROW ANISOTROPY =  1.000000    

     PRIMARY STORAGE COEF =  5.000000E-02 FOR LAYER   1



               TRANSMIS. ALONG ROWS FOR LAYER   1
 READING ON UNIT   13 WITH FORMAT: (FREE)              

 WEL -- WELL PACKAGE, VERSION 7, 5/2/2005 INPUT READ FROM UNIT   19
 # Well package input file written by MMProc
 No named parameters
 MAXIMUM OF      4 ACTIVE WELLS AT ONE TIME


     0 Well parameters

 RCH -- RECHARGE PACKAGE, VERSION 7, 5/2/2005 INPUT READ FROM UNIT   15
 No named parameters
 OPTION 1 -- RECHARGE TO TOP LAYER


     0 Recharge parameters

 SFR7 -- STREAMFLOW ROUTING PACKAGE, VERSION 1.0.7, 2013-01-15
         INPUT READ FROM UNIT  16
 #  Supply2 test problem for GWM-VI
 #  The eighth entry in the first data line is ISTCB2 -
 #    Setting this to a negative number indicates that
 #    streamflows out of the reach will be saved to a
 #    binary file.  The absolute value of ISTCB2 is the
 #    unit to which unformatted flows will be written.
 #
 No named parameters
 Segment information will not be 
 read by reach
 No named parameters
 No specifed inflow files


 NUMBER OF STREAM REACHES IS   40

 NUMBER OF STREAM SEGMENTS IS    3

 NUMBER OF STREAM PARAMETERS IS    0

 NUMBER OF STREAM SEGMENTS DEFINED USING PARAMETERS IS              0

 MAXIMUM ERROR FOR STREAM LEAKAGE RATES IS  1.00E-04

 CONSTANT FOR MANNINGS EQUATION IS  1.2839E+05





   STREAM NETWORK DESCRIPTION: 

   LAYER    ROW    COL   SEGMENT   REACH     LENGTH
                          NUMBER   NUMBER    IN CELL        
   --------------------------------------------------
      1     13      1       1        1    2.0000E+02
      1     13      2       1        2    2.0000E+02
      1     14      3       1        3    2.0000E+02
      1     15      4       1        4    2.0000E+02
      1     16      5       1        5    2.0000E+02
      1     16      6       1        6    2.0000E+02
      1     16      7       1        7    2.0000E+02
      1     16      8       1        8    2.0000E+02
      1     16      9       1        9    2.0000E+02
      1     16     10       1       10    2.0000E+02
      1     16     11       1       11    2.0000E+02
      1     16     12       1       12    2.0000E+02
      1     15     13       1       13    2.0000E+02
      1     14     14       1       14    2.0000E+02
      1     13     15       1       15    2.0000E+02
      1     12     16       1       16    2.0000E+02
      1     12     17       1       17    2.0000E+02
      1     12     18       1       18    2.0000E+02
      1     12     19       1       19    2.0000E+02
      1     13     20       1       20    2.0000E+02
      1     14     21       1       21    2.0000E+02
      1     14     22       1       22    2.0000E+02
      1      9     30       2        1    2.0000E+02
      1      9     29       2        2    2.0000E+02
      1      9     28       2        3    2.0000E+02
      1      9     27       2        4    2.0000E+02
      1     10     26       2        5    2.0000E+02
      1     11     25       2        6    2.0000E+02
      1     12     24       2        7    2.0000E+02
      1     13     23       2        8    2.0000E+02
      1     14     22       2        9    2.0000E+02
      1     14     22       3        1    2.0000E+02
      1     15     23       3        2    2.0000E+02
      1     15     24       3        3    2.0000E+02
      1     15     25       3        4    2.0000E+02
      1     15     26       3        5    2.0000E+02
      1     16     27       3        6    2.0000E+02
      1     17     28       3        7    2.0000E+02
      1     18     29       3        8    2.0000E+02
      1     18     30       3        9    2.0000E+02




 PCG -- CONJUGATE-GRADIENT SOLUTION PACKAGE, VERSION 7, 5/2/2005
 MAXIMUM OF    500 CALLS OF SOLUTION ROUTINE
 MAXIMUM OF      5 INTERNAL ITERATIONS PER CALL TO SOLUTION ROUTINE
 MATRIX PRECONDITIONING TYPE :    1



                                    SOLUTION BY THE CONJUGATE-GRADIENT METHOD
                                   -------------------------------------------
                    MAXIMUM NUMBER OF CALLS TO PCG ROUTINE =      500
                        MAXIMUM ITERATIONS PER CALL TO PCG =        5
                               MATRIX PRECONDITIONING TYPE =        1
        RELAXATION FACTOR (ONLY USED WITH PRECOND. TYPE 1) =    0.10000E+01
 PARAMETER OF POLYNOMIAL PRECOND. = 2 (2) OR IS CALCULATED :        0
                         HEAD CHANGE CRITERION FOR CLOSURE =    0.10000E-05
                     RESIDUAL CHANGE CRITERION FOR CLOSURE =    0.10000E+01
            PCG HEAD AND RESIDUAL CHANGE PRINTOUT INTERVAL =        1
     PRINTING FROM SOLVER IS LIMITED(1) OR SUPPRESSED (>1) =        1
                            STEADY-STATE DAMPING PARAMETER =    0.10000E+01
                               TRANSIENT DAMPING PARAMETER =    0.10000E+01
1
                            STRESS PERIOD NO.    1, LENGTH =   92.00000    
                            -----------------------------------------------

                              NUMBER OF TIME STEPS =     1

                               MULTIPLIER FOR DELT =     1.500

                            INITIAL TIME STEP SIZE =   92.00000    

 WELL NO.  LAYER   ROW   COL   STRESS RATE         
 --------------------------------------------------
      1      1      5     13      -7278.    
      2      1      9     16      -9144.    
      3      1     16     19      -7533.    
      4      1     18     19      -8028.    

      4 WELLS

                 RECHARGE =  5.000000E-04



 CLASSIFICATION & COUNT OF STREAM SEGMENTS BASED ON SOURCE OF INFLOW:

                HEADWATER     DIVERSION     RECEIVES TRIBUTARY FLOW
                ---------     ---------     -----------------------
                     2              0               1



                    INPUT DATA FOR EACH STREAM SEGMENT
 ---------------------------------------------------------------------------------------------

 SEGMENT    SEG.     INFLOW   OVERLAND   STREAM    STREAM   ICALC  OUTFLOW  DIVERSION PRIORITY
    NO.    LENGTH     RATE     RUNOFF      ET       PPT.    METH.  TO SEG.  FROM SEG.    NO.

      1  4.400E+03 1.000E+05 0.000E+00 0.000E+00 0.000E+00    1        3        0        0
      2  1.800E+03 5.000E+04 0.000E+00 0.000E+00 0.000E+00    1        3        0        0
      3  1.800E+03 0.000E+00 0.000E+00 0.000E+00 0.000E+00    1        0        0        0


         STREAMBED PROPERTIES AND STREAM DIMENSIONS

 SEGMENT     BED HYD. COND.      BED THICKNESS     ELEV.-TOP OF BED     WIDTH OF STREAM     DEPTH OF STREAM    STREAM ROUGHNESS
    No.     UPPER     LOWER     UPPER     LOWER     UPPER     LOWER     UPPER     LOWER     UPPER     LOWER   CHANNEL      BANK

     1  5.000E+00 5.000E+00 1.000E+00 1.000E+00 4.850E+01 3.800E+01 2.000E+01 2.000E+01                     5.000E-02
     2  5.000E+00 5.000E+00 1.000E+00 1.000E+00 4.025E+01 3.800E+01 2.000E+01 2.000E+01                     5.000E-02
     3  5.000E+00 5.000E+00 1.000E+00 1.000E+00 3.800E+01 3.000E+01 2.000E+01 2.000E+01                     5.000E-02



 
 SOLVING FOR HEAD 


     9 CALLS TO PCG ROUTINE FOR TIME STEP   1 IN STRESS PERIOD    1
    36 TOTAL ITERATIONS

 OUTPUT CONTROL FOR STRESS PERIOD    1   TIME STEP    1
    SAVE BUDGET
    SAVE HEAD FOR ALL LAYERS
    PRINT HEAD FOR ALL LAYERS
 UBDSV2 SAVING "STREAMFLOW OUT  " ON UNIT  50 AT TIME STEP  1, STRESS PERIOD   1



 STREAM LISTING     PERIOD      1   STEP        1

 LAYER ROW COL. STREAM  RCH.  FLOW INTO     FLOW TO   FLOW OUT OF   OVRLND.     DIRECT     STREAM       STREAM     STREAM     STREAM   STREAMBED  STREAMBED
                SEG.NO.  NO.  STRM. RCH.    AQUIFER    STRM. RCH.    RUNOFF     PRECIP       ET          HEAD       DEPTH      WIDTH   CONDCTNC.   GRADIENT

   1   13    1     1     1    1.0000E+05 -6.0895E+03   1.0609E+05  0.000E+00  0.000E+00  0.000E+00  4.84086E+01  1.473E-01  2.000E+01  2.000E+04 -3.045E-01
   1   13    2     1     2    1.0609E+05 -7.5578E+03   1.1365E+05  0.000E+00  0.000E+00  0.000E+00  4.79371E+01  1.531E-01  2.000E+01  2.000E+04 -3.779E-01
   1   14    3     1     3    1.1365E+05 -2.1966E+03   1.1584E+05  0.000E+00  0.000E+00  0.000E+00  4.74639E+01  1.571E-01  2.000E+01  2.000E+04 -1.098E-01
   1   15    4     1     4    1.1584E+05 -2.2680E+03   1.1811E+05  0.000E+00  0.000E+00  0.000E+00  4.69885E+01  1.589E-01  2.000E+01  2.000E+04 -1.134E-01
   1   16    5     1     5    1.1811E+05 -7.1678E+03   1.2528E+05  0.000E+00  0.000E+00  0.000E+00  4.65150E+01  1.627E-01  2.000E+01  2.000E+04 -3.584E-01
   1   16    6     1     6    1.2528E+05 -4.2879E+03   1.2957E+05  0.000E+00  0.000E+00  0.000E+00  4.60423E+01  1.673E-01  2.000E+01  2.000E+04 -2.144E-01
   1   16    7     1     7    1.2957E+05 -4.1169E+03   1.3368E+05  0.000E+00  0.000E+00  0.000E+00  4.55683E+01  1.706E-01  2.000E+01  2.000E+04 -2.058E-01
   1   16    8     1     8    1.3368E+05 -4.0664E+03   1.3775E+05  0.000E+00  0.000E+00  0.000E+00  4.50942E+01  1.737E-01  2.000E+01  2.000E+04 -2.033E-01
   1   16    9     1     9    1.3775E+05 -4.0407E+03   1.4179E+05  0.000E+00  0.000E+00  0.000E+00  4.46200E+01  1.768E-01  2.000E+01  2.000E+04 -2.020E-01
   1   16   10     1    10    1.4179E+05 -4.0133E+03   1.4580E+05  0.000E+00  0.000E+00  0.000E+00  4.41458E+01  1.799E-01  2.000E+01  2.000E+04 -2.007E-01
   1   16   11     1    11    1.4580E+05 -4.0009E+03   1.4981E+05  0.000E+00  0.000E+00  0.000E+00  4.36715E+01  1.829E-01  2.000E+01  2.000E+04 -2.000E-01
   1   16   12     1    12    1.4981E+05 -6.5840E+03   1.5639E+05  0.000E+00  0.000E+00  0.000E+00  4.31981E+01  1.868E-01  2.000E+01  2.000E+04 -3.292E-01
   1   15   13     1    13    1.5639E+05 -6.7202E+03   1.6311E+05  0.000E+00  0.000E+00  0.000E+00  4.27257E+01  1.916E-01  2.000E+01  2.000E+04 -3.360E-01
   1   14   14     1    14    1.6311E+05 -6.9917E+03   1.7010E+05  0.000E+00  0.000E+00  0.000E+00  4.22533E+01  1.965E-01  2.000E+01  2.000E+04 -3.496E-01
   1   13   15     1    15    1.7010E+05 -7.0733E+03   1.7718E+05  0.000E+00  0.000E+00  0.000E+00  4.17810E+01  2.014E-01  2.000E+01  2.000E+04 -3.537E-01
   1   12   16     1    16    1.7718E+05 -7.2026E+03   1.8438E+05  0.000E+00  0.000E+00  0.000E+00  4.13086E+01  2.064E-01  2.000E+01  2.000E+04 -3.601E-01
   1   12   17     1    17    1.8438E+05 -5.1083E+03   1.8949E+05  0.000E+00  0.000E+00  0.000E+00  4.08355E+01  2.105E-01  2.000E+01  2.000E+04 -2.554E-01
   1   12   18     1    18    1.8949E+05 -5.1247E+03   1.9461E+05  0.000E+00  0.000E+00  0.000E+00  4.03617E+01  2.140E-01  2.000E+01  2.000E+04 -2.562E-01
   1   12   19     1    19    1.9461E+05 -6.8466E+03   2.0146E+05  0.000E+00  0.000E+00  0.000E+00  3.98884E+01  2.180E-01  2.000E+01  2.000E+04 -3.423E-01
   1   13   20     1    20    2.0146E+05 -5.6405E+03   2.0710E+05  0.000E+00  0.000E+00  0.000E+00  3.94152E+01  2.221E-01  2.000E+01  2.000E+04 -2.820E-01
   1   14   21     1    21    2.0710E+05 -4.7014E+03   2.1180E+05  0.000E+00  0.000E+00  0.000E+00  3.89413E+01  2.254E-01  2.000E+01  2.000E+04 -2.351E-01
   1   14   22     1    22    2.1180E+05  3.8741E+03   2.0793E+05  0.000E+00  0.000E+00  0.000E+00  3.84643E+01  2.257E-01  2.000E+01  2.000E+04  1.937E-01
   1    9   30     2     1    5.0000E+04 -4.8406E+03   5.4841E+04  0.000E+00  0.000E+00  0.000E+00  4.02442E+01  1.192E-01  2.000E+01  2.000E+04 -2.420E-01
   1    9   29     2     2    5.4841E+04 -5.1332E+03   5.9974E+04  0.000E+00  0.000E+00  0.000E+00  4.00009E+01  1.259E-01  2.000E+01  2.000E+04 -2.567E-01
   1    9   28     2     3    5.9974E+04 -5.4106E+03   6.5384E+04  0.000E+00  0.000E+00  0.000E+00  3.97577E+01  1.327E-01  2.000E+01  2.000E+04 -2.705E-01
   1    9   27     2     4    6.5384E+04 -8.2186E+03   7.3603E+04  0.000E+00  0.000E+00  0.000E+00  3.95162E+01  1.412E-01  2.000E+01  2.000E+04 -4.109E-01
   1   10   26     2     5    7.3603E+04 -7.2499E+03   8.0853E+04  0.000E+00  0.000E+00  0.000E+00  3.92754E+01  1.504E-01  2.000E+01  2.000E+04 -3.625E-01
   1   11   25     2     6    8.0853E+04 -6.6914E+03   8.7544E+04  0.000E+00  0.000E+00  0.000E+00  3.90334E+01  1.584E-01  2.000E+01  2.000E+04 -3.346E-01
   1   12   24     2     7    8.7544E+04 -6.1841E+03   9.3729E+04  0.000E+00  0.000E+00  0.000E+00  3.87906E+01  1.656E-01  2.000E+01  2.000E+04 -3.092E-01
   1   13   23     2     8    9.3729E+04 -1.6302E+03   9.5359E+04  0.000E+00  0.000E+00  0.000E+00  3.85448E+01  1.698E-01  2.000E+01  2.000E+04 -8.151E-02
   1   14   22     2     9    9.5359E+04  4.9613E+02   9.4863E+04  0.000E+00  0.000E+00  0.000E+00  3.82954E+01  1.704E-01  2.000E+01  2.000E+04  2.481E-02
   1   14   22     3     1    3.0279E+05 -9.5901E+03   3.1238E+05  0.000E+00  0.000E+00  0.000E+00  3.77911E+01  2.355E-01  2.000E+01  2.000E+04 -4.795E-01
   1   15   23     3     2    3.1238E+05 -1.7710E+03   3.1415E+05  0.000E+00  0.000E+00  0.000E+00  3.69048E+01  2.381E-01  2.000E+01  2.000E+04 -8.855E-02
   1   15   24     3     3    3.1415E+05 -1.4979E+03   3.1565E+05  0.000E+00  0.000E+00  0.000E+00  3.60167E+01  2.389E-01  2.000E+01  2.000E+04 -7.490E-02
   1   15   25     3     4    3.1565E+05 -1.5656E+03   3.1721E+05  0.000E+00  0.000E+00  0.000E+00  3.51285E+01  2.396E-01  2.000E+01  2.000E+04 -7.828E-02
   1   15   26     3     5    3.1721E+05 -1.8772E+03   3.1909E+05  0.000E+00  0.000E+00  0.000E+00  3.42404E+01  2.404E-01  2.000E+01  2.000E+04 -9.386E-02
   1   16   27     3     6    3.1909E+05 -2.1550E+03   3.2124E+05  0.000E+00  0.000E+00  0.000E+00  3.33524E+01  2.413E-01  2.000E+01  2.000E+04 -1.077E-01
   1   17   28     3     7    3.2124E+05 -6.5410E+03   3.2779E+05  0.000E+00  0.000E+00  0.000E+00  3.24655E+01  2.432E-01  2.000E+01  2.000E+04 -3.270E-01
   1   18   29     3     8    3.2779E+05 -7.9031E+03   3.3569E+05  0.000E+00  0.000E+00  0.000E+00  3.15798E+01  2.465E-01  2.000E+01  2.000E+04 -3.952E-01
   1   18   30     3     9    3.3569E+05 -7.1228E+03   3.4281E+05  0.000E+00  0.000E+00  0.000E+00  3.06943E+01  2.498E-01  2.000E+01  2.000E+04 -3.561E-01



1
              HEAD IN LAYER   1 AT END OF TIME STEP   1 IN STRESS PERIOD    1
  ---------------------------------------------------------------------------

          1      2      3      4      5      6      7      8      9     10
         11     12     13     14     15     16     17     18     19     20
         21     22     23     24     25     26     27     28     29     30
 .........................................................................
   1  ****** ****** ****** ****** ****** ****** ****** ****** ****** ******
      ****** ****** ****** ****** ****** ****** ****** ****** ****** ******
      ****** ****** ****** ****** ****** ****** ****** ****** ****** ******
   2  ****** ****** ****** ****** ****** ****** ****** ****** ****** ******
      ****** ****** ****** ****** ****** ****** ****** ****** ****** ******
      ****** ****** ****** ****** ****** ****** ****** ****** ****** ******
   3  ****** ****** ****** ****** ****** ****** ****** ****** ****** ******
      ****** ****** ****** ****** ****** ****** ****** ****** ****** ******
      ****** ****** ****** ****** ****** ****** ****** ****** ****** ******
   4  ****** ****** ****** ****** ****** ****** ****** ****** ****** ******
      ****** ****** ****** ****** ****** ****** ****** ****** ****** ******
      ****** ****** ****** ****** ****** ****** ****** ****** ****** ******
   5  ****** ****** ****** ****** ****** ****** ****** ****** ****** ******
      ****** ****** ****** ****** ****** ****** ****** ****** ****** ******
      ****** ****** ****** ****** ****** ****** ****** ****** ****** ******
   6  ****** ****** ****** ****** ****** ****** ****** ****** ****** ******
      ****** ****** ****** ****** ****** ****** ****** ****** ****** ******
      ****** ****** ****** ****** ****** ****** ****** ****** ****** ******
   7  ****** ****** ****** ****** ****** ****** ****** ****** ****** ******
      ****** ****** ****** ****** ****** ****** ****** ****** ****** ******
      ****** ****** ****** ****** ****** ****** ****** ****** ****** ******
   8  ****** ****** ****** ****** ****** ****** ****** ****** ****** ******
      ****** ****** ****** ****** ****** ****** ****** ****** ****** ******
      ****** ****** ****** ****** ****** ****** ****** ****** ****** ******
   9  ****** ****** ****** ****** ****** ****** ****** ****** ****** ******
      ****** ****** ****** ****** ****** ****** ****** ****** ****** ******
      ****** ****** ****** ****** ****** ****** ****** ****** ****** ******
  10  ****** ****** ****** ****** ****** ****** ****** ****** ****** ******
      ****** ****** ****** ****** ****** ****** ****** ****** ****** ******
      ****** ****** ****** ****** ****** ****** ****** ****** ****** ******
  11  ****** ****** ****** ****** ****** ****** ****** ****** ****** ******
      ****** ****** ****** ****** ****** ****** ****** ****** ****** ******
      ****** ****** ****** ****** ****** ****** ****** ****** ****** ******
  12  ****** ****** ****** ****** ****** ****** ****** ****** ****** ******
      ****** ****** ****** ****** ****** ****** ****** ****** ****** ******
      ****** ****** ****** ****** ****** ****** ****** ****** ****** ******
  13  ****** ****** ****** ****** ****** ****** ****** ****** ****** ******
      ****** ****** ****** ****** ****** ****** ****** ****** ****** ******
      ****** ****** ****** ****** ****** ****** ****** ****** ****** ******
  14  ****** ****** ****** ****** ****** ****** ****** ****** ****** ******
      ****** ****** ****** ****** ****** ****** ****** ****** ****** ******
      ****** ****** ****** ****** ****** ****** ****** ****** ****** ******
  15  ****** ****** ****** ****** ****** ****** ****** ****** ****** ******
      ****** ****** ****** ****** ****** ****** ****** ****** ****** ******
      ****** ****** ****** ****** ****** ****** ****** ****** ****** ******
  16  ****** ****** ****** ****** ****** ****** ****** ****** ****** ******
      ****** ****** ****** ****** ****** ****** ****** ****** ****** ******
      ****** ****** ****** ****** ****** ****** ****** ****** ****** ******
  17  ****** ****** ****** ****** ****** ****** ****** ****** ****** ******
      ****** ****** ****** ****** ****** ****** ****** ****** ****** ******
      ****** ****** ****** ****** ****** ****** ****** ****** ****** ******
  18  ****** ****** ****** ****** ****** ****** ****** ****** ****** ******
      ****** ****** ****** ****** ****** ****** ****** ****** ****** ******
      ****** ****** ****** ****** ****** ****** ****** ****** ****** ******
  19  ****** ****** ****** ****** ****** ****** ****** ****** ****** ******
      ****** ****** ****** ****** ****** ****** ****** ****** ****** ******
      ****** ****** ****** ****** ****** ****** ****** ****** ****** ******
  20  ****** ****** ****** ****** ****** ****** ****** ****** ****** ******
      ****** ****** ****** ****** ****** ****** ****** ****** ****** ******
      ****** ****** ****** ****** ****** ****** ****** ****** ****** ******
  21  ****** ****** ****** ****** ****** ****** ****** ****** ****** ******
      ****** ****** ****** ****** ****** ****** ****** ****** ****** ******
      ****** ****** ****** ****** ****** ****** ****** ****** ****** ******
  22  ****** ****** ****** ****** ****** ****** ****** ****** ****** ******
      ****** ****** ****** ****** ****** ****** ****** ****** ****** ******
      ****** ****** ****** ****** ****** ****** ****** ****** ****** ******
  23  ****** ****** ****** ****** ****** ****** ****** ****** ****** ******
      ****** ****** ****** ****** ****** ****** ****** ****** ****** ******
      ****** ****** ****** ****** ****** ****** ****** ****** ****** ******
  24  ****** ****** ****** ****** ****** ****** ****** ****** ****** ******
      ****** ****** ****** ****** ****** ****** ****** ****** ****** ******
      ****** ****** ****** ****** ****** ****** ****** ****** ****** ******
  25  ****** ****** ****** ****** ****** ****** ****** ****** ****** ******
      ****** ****** ****** ****** ****** ****** ****** ****** ****** ******
      ****** ****** ****** ****** ****** ****** ****** ****** ****** ******

 HEAD WILL BE SAVED ON UNIT   51 AT END OF TIME STEP    1, STRESS PERIOD    1
1
  VOLUMETRIC BUDGET FOR ENTIRE MODEL AT END OF TIME STEP    1, STRESS PERIOD   1
  ------------------------------------------------------------------------------

     CUMULATIVE VOLUMES      L**3       RATES FOR THIS TIME STEP      L**3/T
     ------------------                 ------------------------

           IN:                                      IN:
           ---                                      ---
             STORAGE =    18220245.1228               STORAGE =      198046.1426
       CONSTANT HEAD =     1191167.3386         CONSTANT HEAD =       12947.4711
               WELLS =           0.0000                 WELLS =           0.0000
            RECHARGE =     1269600.0000              RECHARGE =       13800.0000
      STREAM LEAKAGE =      402056.8940        STREAM LEAKAGE =        4370.1836

            TOTAL IN =    21083069.3555              TOTAL IN =      229163.7973

          OUT:                                     OUT:
          ----                                     ----
             STORAGE =           0.0000               STORAGE =           0.0000
       CONSTANT HEAD =           0.0000         CONSTANT HEAD =           0.0000
               WELLS =     2942366.9397                 WELLS =       31982.2493
            RECHARGE =           0.0000              RECHARGE =           0.0000
      STREAM LEAKAGE =    18140702.7206        STREAM LEAKAGE =      197181.5513

           TOTAL OUT =    21083069.6603             TOTAL OUT =      229163.8007

            IN - OUT =          -0.3048              IN - OUT =      -3.3130E-03

 PERCENT DISCREPANCY =          -0.00     PERCENT DISCREPANCY =          -0.00






         TIME SUMMARY AT END OF TIME STEP    1 IN STRESS PERIOD    1
                    SECONDS     MINUTES      HOURS       DAYS        YEARS
                    -----------------------------------------------------------
   TIME STEP LENGTH 7.94880E+06 1.32480E+05  2208.0      92.000     0.25188    
 STRESS PERIOD TIME 7.94880E+06 1.32480E+05  2208.0      92.000     0.25188    
         TOTAL TIME 7.94880E+06 1.32480E+05  2208.0      92.000     0.25188    
1
1
                            STRESS PERIOD NO.    2, LENGTH =   91.00000    
                            -----------------------------------------------

                              NUMBER OF TIME STEPS =     1

                               MULTIPLIER FOR DELT =     1.500

                            INITIAL TIME STEP SIZE =   91.00000    

 WELL NO.  LAYER   ROW   COL   STRESS RATE         
 --------------------------------------------------
      1      1      5     13      -7278.    
      2      1      9     16      -9144.    
      3      1     16     19      -7533.    
      4      1     18     19      -8028.    

      4 WELLS

                 RECHARGE =  2.000000E-03

 REUSING STREAM SEGMENT DATA FROM LAST STRESS PERIOD
 
 SOLVING FOR HEAD 


     7 CALLS TO PCG ROUTINE FOR TIME STEP   1 IN STRESS PERIOD    2
    27 TOTAL ITERATIONS

 OUTPUT CONTROL FOR STRESS PERIOD    2   TIME STEP    1
    SAVE BUDGET
    SAVE HEAD FOR ALL LAYERS
    PRINT HEAD FOR ALL LAYERS
 UBDSV2 SAVING "STREAMFLOW OUT  " ON UNIT  50 AT TIME STEP  1, STRESS PERIOD   2



 STREAM LISTING     PERIOD      2   STEP        1

 LAYER ROW COL. STREAM  RCH.  FLOW INTO     FLOW TO   FLOW OUT OF   OVRLND.     DIRECT     STREAM       STREAM     STREAM     STREAM   STREAMBED  STREAMBED
                SEG.NO.  NO.  STRM. RCH.    AQUIFER    STRM. RCH.    RUNOFF     PRECIP       ET          HEAD       DEPTH      WIDTH   CONDCTNC.   GRADIENT

   1   13    1     1     1    1.0000E+05 -3.9208E+03   1.0392E+05  0.000E+00  0.000E+00  0.000E+00  4.84077E+01  1.463E-01  2.000E+01  2.000E+04 -1.960E-01
   1   13    2     1     2    1.0392E+05 -5.1783E+03   1.0910E+05  0.000E+00  0.000E+00  0.000E+00  4.79343E+01  1.502E-01  2.000E+01  2.000E+04 -2.589E-01
   1   14    3     1     3    1.0910E+05 -1.1092E+03   1.1021E+05  0.000E+00  0.000E+00  0.000E+00  4.74597E+01  1.529E-01  2.000E+01  2.000E+04 -5.546E-02
   1   15    4     1     4    1.1021E+05 -1.1374E+03   1.1135E+05  0.000E+00  0.000E+00  0.000E+00  4.69834E+01  1.538E-01  2.000E+01  2.000E+04 -5.687E-02
   1   16    5     1     5    1.1135E+05 -4.2134E+03   1.1556E+05  0.000E+00  0.000E+00  0.000E+00  4.65083E+01  1.560E-01  2.000E+01  2.000E+04 -2.107E-01
   1   16    6     1     6    1.1556E+05 -2.4729E+03   1.1803E+05  0.000E+00  0.000E+00  0.000E+00  4.60338E+01  1.588E-01  2.000E+01  2.000E+04 -1.236E-01
   1   16    7     1     7    1.1803E+05 -2.3674E+03   1.2040E+05  0.000E+00  0.000E+00  0.000E+00  4.55585E+01  1.607E-01  2.000E+01  2.000E+04 -1.184E-01
   1   16    8     1     8    1.2040E+05 -2.3207E+03   1.2272E+05  0.000E+00  0.000E+00  0.000E+00  4.50831E+01  1.626E-01  2.000E+01  2.000E+04 -1.160E-01
   1   16    9     1     9    1.2272E+05 -2.2736E+03   1.2499E+05  0.000E+00  0.000E+00  0.000E+00  4.46076E+01  1.645E-01  2.000E+01  2.000E+04 -1.137E-01
   1   16   10     1    10    1.2499E+05 -2.2081E+03   1.2720E+05  0.000E+00  0.000E+00  0.000E+00  4.41322E+01  1.662E-01  2.000E+01  2.000E+04 -1.104E-01
   1   16   11     1    11    1.2720E+05 -2.1387E+03   1.2934E+05  0.000E+00  0.000E+00  0.000E+00  4.36566E+01  1.680E-01  2.000E+01  2.000E+04 -1.069E-01
   1   16   12     1    12    1.2934E+05 -3.4579E+03   1.3280E+05  0.000E+00  0.000E+00  0.000E+00  4.31815E+01  1.701E-01  2.000E+01  2.000E+04 -1.729E-01
   1   15   13     1    13    1.3280E+05 -3.1886E+03   1.3599E+05  0.000E+00  0.000E+00  0.000E+00  4.27068E+01  1.727E-01  2.000E+01  2.000E+04 -1.594E-01
   1   14   14     1    14    1.3599E+05 -3.2745E+03   1.3926E+05  0.000E+00  0.000E+00  0.000E+00  4.22320E+01  1.752E-01  2.000E+01  2.000E+04 -1.637E-01
   1   13   15     1    15    1.3926E+05 -3.3065E+03   1.4257E+05  0.000E+00  0.000E+00  0.000E+00  4.17572E+01  1.777E-01  2.000E+01  2.000E+04 -1.653E-01
   1   12   16     1    16    1.4257E+05 -3.5617E+03   1.4613E+05  0.000E+00  0.000E+00  0.000E+00  4.12826E+01  1.803E-01  2.000E+01  2.000E+04 -1.781E-01
   1   12   17     1    17    1.4613E+05 -2.2709E+03   1.4840E+05  0.000E+00  0.000E+00  0.000E+00  4.08075E+01  1.825E-01  2.000E+01  2.000E+04 -1.135E-01
   1   12   18     1    18    1.4840E+05 -2.3193E+03   1.5072E+05  0.000E+00  0.000E+00  0.000E+00  4.03319E+01  1.842E-01  2.000E+01  2.000E+04 -1.160E-01
   1   12   19     1    19    1.5072E+05 -3.4432E+03   1.5416E+05  0.000E+00  0.000E+00  0.000E+00  3.98567E+01  1.863E-01  2.000E+01  2.000E+04 -1.722E-01
   1   13   20     1    20    1.5416E+05 -2.2090E+03   1.5637E+05  0.000E+00  0.000E+00  0.000E+00  3.93815E+01  1.884E-01  2.000E+01  2.000E+04 -1.104E-01
   1   14   21     1    21    1.5637E+05 -1.5093E+03   1.5788E+05  0.000E+00  0.000E+00  0.000E+00  3.89056E+01  1.897E-01  2.000E+01  2.000E+04 -7.546E-02
   1   14   22     1    22    1.5788E+05  4.6974E+03   1.5318E+05  0.000E+00  0.000E+00  0.000E+00  3.84272E+01  1.885E-01  2.000E+01  2.000E+04  2.349E-01
   1    9   30     2     1    5.0000E+04 -2.1148E+03   5.2115E+04  0.000E+00  0.000E+00  0.000E+00  4.02423E+01  1.173E-01  2.000E+01  2.000E+04 -1.057E-01
   1    9   29     2     2    5.2115E+04 -2.4191E+03   5.4534E+04  0.000E+00  0.000E+00  0.000E+00  3.99954E+01  1.204E-01  2.000E+01  2.000E+04 -1.210E-01
   1    9   28     2     3    5.4534E+04 -2.7089E+03   5.7243E+04  0.000E+00  0.000E+00  0.000E+00  3.97489E+01  1.239E-01  2.000E+01  2.000E+04 -1.354E-01
   1    9   27     2     4    5.7243E+04 -4.7158E+03   6.1959E+04  0.000E+00  0.000E+00  0.000E+00  3.95037E+01  1.287E-01  2.000E+01  2.000E+04 -2.358E-01
   1   10   26     2     5    6.1959E+04 -3.6087E+03   6.5567E+04  0.000E+00  0.000E+00  0.000E+00  3.92591E+01  1.341E-01  2.000E+01  2.000E+04 -1.804E-01
   1   11   25     2     6    6.5567E+04 -3.2019E+03   6.8769E+04  0.000E+00  0.000E+00  0.000E+00  3.90133E+01  1.383E-01  2.000E+01  2.000E+04 -1.601E-01
   1   12   24     2     7    6.8769E+04 -3.0418E+03   7.1811E+04  0.000E+00  0.000E+00  0.000E+00  3.87671E+01  1.421E-01  2.000E+01  2.000E+04 -1.521E-01
   1   13   23     2     8    7.1811E+04 -5.7789E+02   7.2389E+04  0.000E+00  0.000E+00  0.000E+00  3.85193E+01  1.443E-01  2.000E+01  2.000E+04 -2.889E-02
   1   14   22     2     9    7.2389E+04  1.5287E+03   7.0860E+04  0.000E+00  0.000E+00  0.000E+00  3.82688E+01  1.438E-01  2.000E+01  2.000E+04  7.644E-02
   1   14   22     3     1    2.2404E+05 -8.7943E+03   2.3284E+05  0.000E+00  0.000E+00  0.000E+00  3.77526E+01  1.970E-01  2.000E+01  2.000E+04 -4.397E-01
   1   15   23     3     2    2.3284E+05 -7.4447E+02   2.3358E+05  0.000E+00  0.000E+00  0.000E+00  3.68662E+01  1.995E-01  2.000E+01  2.000E+04 -3.722E-02
   1   15   24     3     3    2.3358E+05 -6.0765E+02   2.3419E+05  0.000E+00  0.000E+00  0.000E+00  3.59776E+01  1.998E-01  2.000E+01  2.000E+04 -3.038E-02
   1   15   25     3     4    2.3419E+05 -6.4275E+02   2.3483E+05  0.000E+00  0.000E+00  0.000E+00  3.50891E+01  2.002E-01  2.000E+01  2.000E+04 -3.214E-02
   1   15   26     3     5    2.3483E+05 -7.6016E+02   2.3559E+05  0.000E+00  0.000E+00  0.000E+00  3.42005E+01  2.005E-01  2.000E+01  2.000E+04 -3.801E-02
   1   16   27     3     6    2.3559E+05 -8.7640E+02   2.3647E+05  0.000E+00  0.000E+00  0.000E+00  3.33121E+01  2.009E-01  2.000E+01  2.000E+04 -4.382E-02
   1   17   28     3     7    2.3647E+05 -3.1714E+03   2.3964E+05  0.000E+00  0.000E+00  0.000E+00  3.24242E+01  2.020E-01  2.000E+01  2.000E+04 -1.586E-01
   1   18   29     3     8    2.3964E+05 -4.8562E+03   2.4450E+05  0.000E+00  0.000E+00  0.000E+00  3.15373E+01  2.040E-01  2.000E+01  2.000E+04 -2.428E-01
   1   18   30     3     9    2.4450E+05 -4.5697E+03   2.4907E+05  0.000E+00  0.000E+00  0.000E+00  3.06508E+01  2.064E-01  2.000E+01  2.000E+04 -2.285E-01



1
              HEAD IN LAYER   1 AT END OF TIME STEP   1 IN STRESS PERIOD    2
  ---------------------------------------------------------------------------

          1      2      3      4      5      6      7      8      9     10
         11     12     13     14     15     16     17     18     19     20
         21     22     23     24     25     26     27     28     29     30
 .........................................................................
   1  ****** ****** ****** ****** ****** ****** ****** ****** ****** ******
      ****** ****** ****** ****** ****** ****** ****** ****** ****** ******
      ****** ****** ****** ****** ****** ****** ****** ****** ****** ******
   2  ****** ****** ****** ****** ****** ****** ****** ****** ****** ******
      ****** ****** ****** ****** ****** ****** ****** ****** ****** ******
      ****** ****** ****** ****** ****** ****** ****** ****** ****** ******
   3  ****** ****** ****** ****** ****** ****** ****** ****** ****** ******
      ****** ****** ****** ****** ****** ****** ****** ****** ****** ******
      ****** ****** ****** ****** ****** ****** ****** ****** ****** ******
   4  ****** ****** ****** ****** ****** ****** ****** ****** ****** ******
      ****** ****** ****** ****** ****** ****** ****** ****** ****** ******
      ****** ****** ****** ****** ****** ****** ****** ****** ****** ******
   5  ****** ****** ****** ****** ****** ****** ****** ****** ****** ******
      ****** ****** ****** ****** ****** ****** ****** ****** ****** ******
      ****** ****** ****** ****** ****** ****** ****** ****** ****** ******
   6  ****** ****** ****** ****** ****** ****** ****** ****** ****** ******
      ****** ****** ****** ****** ****** ****** ****** ****** ****** ******
      ****** ****** ****** ****** ****** ****** ****** ****** ****** ******
   7  ****** ****** ****** ****** ****** ****** ****** ****** ****** ******
      ****** ****** ****** ****** ****** ****** ****** ****** ****** ******
      ****** ****** ****** ****** ****** ****** ****** ****** ****** ******
   8  ****** ****** ****** ****** ****** ****** ****** ****** ****** ******
      ****** ****** ****** ****** ****** ****** ****** ****** ****** ******
      ****** ****** ****** ****** ****** ****** ****** ****** ****** ******
   9  ****** ****** ****** ****** ****** ****** ****** ****** ****** ******
      ****** ****** ****** ****** ****** ****** ****** ****** ****** ******
      ****** ****** ****** ****** ****** ****** ****** ****** ****** ******
  10  ****** ****** ****** ****** ****** ****** ****** ****** ****** ******
      ****** ****** ****** ****** ****** ****** ****** ****** ****** ******
      ****** ****** ****** ****** ****** ****** ****** ****** ****** ******
  11  ****** ****** ****** ****** ****** ****** ****** ****** ****** ******
      ****** ****** ****** ****** ****** ****** ****** ****** ****** ******
      ****** ****** ****** ****** ****** ****** ****** ****** ****** ******
  12  ****** ****** ****** ****** ****** ****** ****** ****** ****** ******
      ****** ****** ****** ****** ****** ****** ****** ****** ****** ******
      ****** ****** ****** ****** ****** ****** ****** ****** ****** ******
  13  ****** ****** ****** ****** ****** ****** ****** ****** ****** ******
      ****** ****** ****** ****** ****** ****** ****** ****** ****** ******
      ****** ****** ****** ****** ****** ****** ****** ****** ****** ******
  14  ****** ****** ****** ****** ****** ****** ****** ****** ****** ******
      ****** ****** ****** ****** ****** ****** ****** ****** ****** ******
      ****** ****** ****** ****** ****** ****** ****** ****** ****** ******
  15  ****** ****** ****** ****** ****** ****** ****** ****** ****** ******
      ****** ****** ****** ****** ****** ****** ****** ****** ****** ******
      ****** ****** ****** ****** ****** ****** ****** ****** ****** ******
  16  ****** ****** ****** ****** ****** ****** ****** ****** ****** ******
      ****** ****** ****** ****** ****** ****** ****** ****** ****** ******
      ****** ****** ****** ****** ****** ****** ****** ****** ****** ******
  17  ****** ****** ****** ****** ****** ****** ****** ****** ****** ******
      ****** ****** ****** ****** ****** ****** ****** ****** ****** ******
      ****** ****** ****** ****** ****** ****** ****** ****** ****** ******
  18  ****** ****** ****** ****** ****** ****** ****** ****** ****** ******
      ****** ****** ****** ****** ****** ****** ****** ****** ****** ******
      ****** ****** ****** ****** ****** ****** ****** ****** ****** ******
  19  ****** ****** ****** ****** ****** ****** ****** ****** ****** ******
      ****** ****** ****** ****** ****** ****** ****** ****** ****** ******
      ****** ****** ****** ****** ****** ****** ****** ****** ****** ******
  20  ****** ****** ****** ****** ****** ****** ****** ****** ****** ******
      ****** ****** ****** ****** ****** ****** ****** ****** ****** ******
      ****** ****** ****** ****** ****** ****** ****** ****** ****** ******
  21  ****** ****** ****** ****** ****** ****** ****** ****** ****** ******
      ****** ****** ****** ****** ****** ****** ****** ****** ****** ******
      ****** ****** ****** ****** ****** ****** ****** ****** ****** ******
  22  ****** ****** ****** ****** ****** ****** ****** ****** ****** ******
      ****** ****** ****** ****** ****** ****** ****** ****** ****** ******
      ****** ****** ****** ****** ****** ****** ****** ****** ****** ******
  23  ****** ****** ****** ****** ****** ****** ****** ****** ****** ******
      ****** ****** ****** ****** ****** ****** ****** ****** ****** ******
      ****** ****** ****** ****** ****** ****** ****** ****** ****** ******
  24  ****** ****** ****** ****** ****** ****** ****** ****** ****** ******
      ****** ****** ****** ****** ****** ****** ****** ****** ****** ******
      ****** ****** ****** ****** ****** ****** ****** ****** ****** ******
  25  ****** ****** ****** ****** ****** ****** ****** ****** ****** ******
      ****** ****** ****** ****** ****** ****** ****** ****** ****** ******
      ****** ****** ****** ****** ****** ****** ****** ****** ****** ******

 HEAD WILL BE SAVED ON UNIT   51 AT END OF TIME STEP    1, STRESS PERIOD    2
1
  VOLUMETRIC BUDGET FOR ENTIRE MODEL AT END OF TIME STEP    1, STRESS PERIOD   2
  ------------------------------------------------------------------------------

     CUMULATIVE VOLUMES      L**3       RATES FOR THIS TIME STEP      L**3/T
     ------------------                 ------------------------

           IN:                                      IN:
           ---                                      ---
             STORAGE =    23491614.5432               STORAGE =       57927.1365
       CONSTANT HEAD =     2822088.0226         CONSTANT HEAD =       17922.2053
               WELLS =           0.0000                 WELLS =           0.0000
            RECHARGE =     6292800.0000              RECHARGE =       55200.0000
      STREAM LEAKAGE =      968629.6503        STREAM LEAKAGE =        6226.0742

            TOTAL IN =    33575132.2161              TOTAL IN =      137275.4161

          OUT:                                     OUT:
          ----                                     ----
             STORAGE =           0.0000               STORAGE =           0.0000
       CONSTANT HEAD =           0.0000         CONSTANT HEAD =           0.0000
               WELLS =     5852751.6301                 WELLS =       31982.2493
            RECHARGE =           0.0000              RECHARGE =           0.0000
      STREAM LEAKAGE =    27722381.8480        STREAM LEAKAGE =      105293.1772

           TOTAL OUT =    33575133.4781             TOTAL OUT =      137275.4266

            IN - OUT =          -1.2620              IN - OUT =      -1.0519E-02

 PERCENT DISCREPANCY =          -0.00     PERCENT DISCREPANCY =          -0.00






         TIME SUMMARY AT END OF TIME STEP    1 IN STRESS PERIOD    2
                    SECONDS     MINUTES      HOURS       DAYS        YEARS
                    -----------------------------------------------------------
   TIME STEP LENGTH 7.86240E+06 1.31040E+05  2184.0      91.000     0.24914    
 STRESS PERIOD TIME 7.86240E+06 1.31040E+05  2184.0      91.000     0.24914    
         TOTAL TIME 1.58112E+07 2.63520E+05  4392.0      183.00     0.50103    
1
1
                            STRESS PERIOD NO.    3, LENGTH =   91.00000    
                            -----------------------------------------------

                              NUMBER OF TIME STEPS =     1

                               MULTIPLIER FOR DELT =     1.500

                            INITIAL TIME STEP SIZE =   91.00000    

 WELL NO.  LAYER   ROW   COL   STRESS RATE         
 --------------------------------------------------
      1      1      5     13      -7278.    
      2      1      9     16      -9144.    
      3      1     16     19      -7533.    
      4      1     18     19      -8028.    

      4 WELLS

                 RECHARGE =   0.00000    

 REUSING STREAM SEGMENT DATA FROM LAST STRESS PERIOD
 
 SOLVING FOR HEAD 


     7 CALLS TO PCG ROUTINE FOR TIME STEP   1 IN STRESS PERIOD    3
    27 TOTAL ITERATIONS

 OUTPUT CONTROL FOR STRESS PERIOD    3   TIME STEP    1
    SAVE BUDGET
    SAVE HEAD FOR ALL LAYERS
    PRINT HEAD FOR ALL LAYERS
 UBDSV2 SAVING "STREAMFLOW OUT  " ON UNIT  50 AT TIME STEP  1, STRESS PERIOD   3



 STREAM LISTING     PERIOD      3   STEP        1

 LAYER ROW COL. STREAM  RCH.  FLOW INTO     FLOW TO   FLOW OUT OF   OVRLND.     DIRECT     STREAM       STREAM     STREAM     STREAM   STREAMBED  STREAMBED
                SEG.NO.  NO.  STRM. RCH.    AQUIFER    STRM. RCH.    RUNOFF     PRECIP       ET          HEAD       DEPTH      WIDTH   CONDCTNC.   GRADIENT

   1   13    1     1     1    1.0000E+05 -2.6172E+03   1.0262E+05  0.000E+00  0.000E+00  0.000E+00  4.84071E+01  1.458E-01  2.000E+01  2.000E+04 -1.309E-01
   1   13    2     1     2    1.0262E+05 -3.7167E+03   1.0633E+05  0.000E+00  0.000E+00  0.000E+00  4.79326E+01  1.485E-01  2.000E+01  2.000E+04 -1.858E-01
   1   14    3     1     3    1.0633E+05 -6.4278E+02   1.0698E+05  0.000E+00  0.000E+00  0.000E+00  4.74572E+01  1.504E-01  2.000E+01  2.000E+04 -3.214E-02
   1   15    4     1     4    1.0698E+05 -6.2754E+02   1.0760E+05  0.000E+00  0.000E+00  0.000E+00  4.69804E+01  1.509E-01  2.000E+01  2.000E+04 -3.138E-02
   1   16    5     1     5    1.0760E+05 -2.3995E+03   1.1000E+05  0.000E+00  0.000E+00  0.000E+00  4.65044E+01  1.522E-01  2.000E+01  2.000E+04 -1.200E-01
   1   16    6     1     6    1.1000E+05 -1.4548E+03   1.1146E+05  0.000E+00  0.000E+00  0.000E+00  4.60288E+01  1.538E-01  2.000E+01  2.000E+04 -7.274E-02
   1   16    7     1     7    1.1146E+05 -1.4042E+03   1.1286E+05  0.000E+00  0.000E+00  0.000E+00  4.55527E+01  1.550E-01  2.000E+01  2.000E+04 -7.021E-02
   1   16    8     1     8    1.1286E+05 -1.3709E+03   1.1423E+05  0.000E+00  0.000E+00  0.000E+00  4.50766E+01  1.561E-01  2.000E+01  2.000E+04 -6.855E-02
   1   16    9     1     9    1.1423E+05 -1.3223E+03   1.1556E+05  0.000E+00  0.000E+00  0.000E+00  4.46004E+01  1.572E-01  2.000E+01  2.000E+04 -6.611E-02
   1   16   10     1    10    1.1556E+05 -1.2494E+03   1.1681E+05  0.000E+00  0.000E+00  0.000E+00  4.41242E+01  1.583E-01  2.000E+01  2.000E+04 -6.247E-02
   1   16   11     1    11    1.1681E+05 -1.1625E+03   1.1797E+05  0.000E+00  0.000E+00  0.000E+00  4.36479E+01  1.593E-01  2.000E+01  2.000E+04 -5.812E-02
   1   16   12     1    12    1.1797E+05 -1.7249E+03   1.1969E+05  0.000E+00  0.000E+00  0.000E+00  4.31718E+01  1.604E-01  2.000E+01  2.000E+04 -8.625E-02
   1   15   13     1    13    1.1969E+05 -1.3955E+03   1.2109E+05  0.000E+00  0.000E+00  0.000E+00  4.26958E+01  1.617E-01  2.000E+01  2.000E+04 -6.977E-02
   1   14   14     1    14    1.2109E+05 -1.4106E+03   1.2250E+05  0.000E+00  0.000E+00  0.000E+00  4.22196E+01  1.628E-01  2.000E+01  2.000E+04 -7.053E-02
   1   13   15     1    15    1.2250E+05 -1.4211E+03   1.2392E+05  0.000E+00  0.000E+00  0.000E+00  4.17435E+01  1.639E-01  2.000E+01  2.000E+04 -7.105E-02
   1   12   16     1    16    1.2392E+05 -1.5912E+03   1.2551E+05  0.000E+00  0.000E+00  0.000E+00  4.12674E+01  1.651E-01  2.000E+01  2.000E+04 -7.956E-02
   1   12   17     1    17    1.2551E+05 -8.6243E+02   1.2637E+05  0.000E+00  0.000E+00  0.000E+00  4.07911E+01  1.661E-01  2.000E+01  2.000E+04 -4.312E-02
   1   12   18     1    18    1.2637E+05 -9.4325E+02   1.2732E+05  0.000E+00  0.000E+00  0.000E+00  4.03146E+01  1.668E-01  2.000E+01  2.000E+04 -4.716E-02
   1   12   19     1    19    1.2732E+05 -1.7411E+03   1.2906E+05  0.000E+00  0.000E+00  0.000E+00  3.98383E+01  1.679E-01  2.000E+01  2.000E+04 -8.705E-02
   1   13   20     1    20    1.2906E+05 -6.4378E+02   1.2970E+05  0.000E+00  0.000E+00  0.000E+00  3.93620E+01  1.688E-01  2.000E+01  2.000E+04 -3.219E-02
   1   14   21     1    21    1.2970E+05  1.2010E+02   1.2958E+05  0.000E+00  0.000E+00  0.000E+00  3.88849E+01  1.690E-01  2.000E+01  2.000E+04  6.005E-03
   1   14   22     1    22    1.2958E+05  5.0717E+03   1.2451E+05  0.000E+00  0.000E+00  0.000E+00  3.84056E+01  1.670E-01  2.000E+01  2.000E+04  2.536E-01
   1    9   30     2     1    5.0000E+04 -9.0776E+02   5.0908E+04  0.000E+00  0.000E+00  0.000E+00  4.02415E+01  1.165E-01  2.000E+01  2.000E+04 -4.539E-02
   1    9   29     2     2    5.0908E+04 -1.2123E+03   5.2120E+04  0.000E+00  0.000E+00  0.000E+00  3.99930E+01  1.180E-01  2.000E+01  2.000E+04 -6.062E-02
   1    9   28     2     3    5.2120E+04 -1.4852E+03   5.3605E+04  0.000E+00  0.000E+00  0.000E+00  3.97448E+01  1.198E-01  2.000E+01  2.000E+04 -7.426E-02
   1    9   27     2     4    5.3605E+04 -2.9384E+03   5.6544E+04  0.000E+00  0.000E+00  0.000E+00  3.94978E+01  1.228E-01  2.000E+01  2.000E+04 -1.469E-01
   1   10   26     2     5    5.6544E+04 -1.9487E+03   5.8492E+04  0.000E+00  0.000E+00  0.000E+00  3.92510E+01  1.260E-01  2.000E+01  2.000E+04 -9.744E-02
   1   11   25     2     6    5.8492E+04 -1.6520E+03   6.0144E+04  0.000E+00  0.000E+00  0.000E+00  3.90034E+01  1.284E-01  2.000E+01  2.000E+04 -8.260E-02
   1   12   24     2     7    6.0144E+04 -1.6492E+03   6.1794E+04  0.000E+00  0.000E+00  0.000E+00  3.87555E+01  1.305E-01  2.000E+01  2.000E+04 -8.246E-02
   1   13   23     2     8    6.1794E+04 -2.3564E+02   6.2029E+04  0.000E+00  0.000E+00  0.000E+00  3.85067E+01  1.317E-01  2.000E+01  2.000E+04 -1.178E-02
   1   14   22     2     9    6.2029E+04  2.0699E+03   5.9959E+04  0.000E+00  0.000E+00  0.000E+00  3.82555E+01  1.305E-01  2.000E+01  2.000E+04  1.035E-01
   1   14   22     3     1    1.8447E+05 -8.4161E+03   1.9289E+05  0.000E+00  0.000E+00  0.000E+00  3.77312E+01  1.757E-01  2.000E+01  2.000E+04 -4.208E-01
   1   15   23     3     2    1.9289E+05 -3.1918E+02   1.9320E+05  0.000E+00  0.000E+00  0.000E+00  3.68448E+01  1.781E-01  2.000E+01  2.000E+04 -1.596E-02
   1   15   24     3     3    1.9320E+05 -2.7198E+02   1.9348E+05  0.000E+00  0.000E+00  0.000E+00  3.59561E+01  1.783E-01  2.000E+01  2.000E+04 -1.360E-02
   1   15   25     3     4    1.9348E+05 -2.9473E+02   1.9377E+05  0.000E+00  0.000E+00  0.000E+00  3.50673E+01  1.784E-01  2.000E+01  2.000E+04 -1.474E-02
   1   15   26     3     5    1.9377E+05 -3.5153E+02   1.9412E+05  0.000E+00  0.000E+00  0.000E+00  3.41786E+01  1.786E-01  2.000E+01  2.000E+04 -1.758E-02
   1   16   27     3     6    1.9412E+05 -4.0208E+02   1.9452E+05  0.000E+00  0.000E+00  0.000E+00  3.32899E+01  1.788E-01  2.000E+01  2.000E+04 -2.010E-02
   1   17   28     3     7    1.9452E+05 -1.7270E+03   1.9625E+05  0.000E+00  0.000E+00  0.000E+00  3.24016E+01  1.794E-01  2.000E+01  2.000E+04 -8.635E-02
   1   18   29     3     8    1.9625E+05 -3.2666E+03   1.9952E+05  0.000E+00  0.000E+00  0.000E+00  3.15141E+01  1.808E-01  2.000E+01  2.000E+04 -1.633E-01
   1   18   30     3     9    1.9952E+05 -3.3904E+03   2.0291E+05  0.000E+00  0.000E+00  0.000E+00  3.06270E+01  1.826E-01  2.000E+01  2.000E+04 -1.695E-01



1
              HEAD IN LAYER   1 AT END OF TIME STEP   1 IN STRESS PERIOD    3
  ---------------------------------------------------------------------------

          1      2      3      4      5      6      7      8      9     10
         11     12     13     14     15     16     17     18     19     20
         21     22     23     24     25     26     27     28     29     30
 .........................................................................
   1  ****** ****** ****** ****** ****** ****** ****** ****** ****** ******
      ****** ****** ****** ****** ****** ****** ****** ****** ****** ******
      ****** ****** ****** ****** ****** ****** ****** ****** ****** ******
   2  ****** ****** ****** ****** ****** ****** ****** ****** ****** ******
      ****** ****** ****** ****** ****** ****** ****** ****** ****** ******
      ****** ****** ****** ****** ****** ****** ****** ****** ****** ******
   3  ****** ****** ****** ****** ****** ****** ****** ****** ****** ******
      ****** ****** ****** ****** ****** ****** ****** ****** ****** ******
      ****** ****** ****** ****** ****** ****** ****** ****** ****** ******
   4  ****** ****** ****** ****** ****** ****** ****** ****** ****** ******
      ****** ****** ****** ****** ****** ****** ****** ****** ****** ******
      ****** ****** ****** ****** ****** ****** ****** ****** ****** ******
   5  ****** ****** ****** ****** ****** ****** ****** ****** ****** ******
      ****** ****** ****** ****** ****** ****** ****** ****** ****** ******
      ****** ****** ****** ****** ****** ****** ****** ****** ****** ******
   6  ****** ****** ****** ****** ****** ****** ****** ****** ****** ******
      ****** ****** ****** ****** ****** ****** ****** ****** ****** ******
      ****** ****** ****** ****** ****** ****** ****** ****** ****** ******
   7  ****** ****** ****** ****** ****** ****** ****** ****** ****** ******
      ****** ****** ****** ****** ****** ****** ****** ****** ****** ******
      ****** ****** ****** ****** ****** ****** ****** ****** ****** ******
   8  ****** ****** ****** ****** ****** ****** ****** ****** ****** ******
      ****** ****** ****** ****** ****** ****** ****** ****** ****** ******
      ****** ****** ****** ****** ****** ****** ****** ****** ****** ******
   9  ****** ****** ****** ****** ****** ****** ****** ****** ****** ******
      ****** ****** ****** ****** ****** ****** ****** ****** ****** ******
      ****** ****** ****** ****** ****** ****** ****** ****** ****** ******
  10  ****** ****** ****** ****** ****** ****** ****** ****** ****** ******
      ****** ****** ****** ****** ****** ****** ****** ****** ****** ******
      ****** ****** ****** ****** ****** ****** ****** ****** ****** ******
  11  ****** ****** ****** ****** ****** ****** ****** ****** ****** ******
      ****** ****** ****** ****** ****** ****** ****** ****** ****** ******
      ****** ****** ****** ****** ****** ****** ****** ****** ****** ******
  12  ****** ****** ****** ****** ****** ****** ****** ****** ****** ******
      ****** ****** ****** ****** ****** ****** ****** ****** ****** ******
      ****** ****** ****** ****** ****** ****** ****** ****** ****** ******
  13  ****** ****** ****** ****** ****** ****** ****** ****** ****** ******
      ****** ****** ****** ****** ****** ****** ****** ****** ****** ******
      ****** ****** ****** ****** ****** ****** ****** ****** ****** ******
  14  ****** ****** ****** ****** ****** ****** ****** ****** ****** ******
      ****** ****** ****** ****** ****** ****** ****** ****** ****** ******
      ****** ****** ****** ****** ****** ****** ****** ****** ****** ******
  15  ****** ****** ****** ****** ****** ****** ****** ****** ****** ******
      ****** ****** ****** ****** ****** ****** ****** ****** ****** ******
      ****** ****** ****** ****** ****** ****** ****** ****** ****** ******
  16  ****** ****** ****** ****** ****** ****** ****** ****** ****** ******
      ****** ****** ****** ****** ****** ****** ****** ****** ****** ******
      ****** ****** ****** ****** ****** ****** ****** ****** ****** ******
  17  ****** ****** ****** ****** ****** ****** ****** ****** ****** ******
      ****** ****** ****** ****** ****** ****** ****** ****** ****** ******
      ****** ****** ****** ****** ****** ****** ****** ****** ****** ******
  18  ****** ****** ****** ****** ****** ****** ****** ****** ****** ******
      ****** ****** ****** ****** ****** ****** ****** ****** ****** ******
      ****** ****** ****** ****** ****** ****** ****** ****** ****** ******
  19  ****** ****** ****** ****** ****** ****** ****** ****** ****** ******
      ****** ****** ****** ****** ****** ****** ****** ****** ****** ******
      ****** ****** ****** ****** ****** ****** ****** ****** ****** ******
  20  ****** ****** ****** ****** ****** ****** ****** ****** ****** ******
      ****** ****** ****** ****** ****** ****** ****** ****** ****** ******
      ****** ****** ****** ****** ****** ****** ****** ****** ****** ******
  21  ****** ****** ****** ****** ****** ****** ****** ****** ****** ******
      ****** ****** ****** ****** ****** ****** ****** ****** ****** ******
      ****** ****** ****** ****** ****** ****** ****** ****** ****** ******
  22  ****** ****** ****** ****** ****** ****** ****** ****** ****** ******
      ****** ****** ****** ****** ****** ****** ****** ****** ****** ******
      ****** ****** ****** ****** ****** ****** ****** ****** ****** ******
  23  ****** ****** ****** ****** ****** ****** ****** ****** ****** ******
      ****** ****** ****** ****** ****** ****** ****** ****** ****** ******
      ****** ****** ****** ****** ****** ****** ****** ****** ****** ******
  24  ****** ****** ****** ****** ****** ****** ****** ****** ****** ******
      ****** ****** ****** ****** ****** ****** ****** ****** ****** ******
      ****** ****** ****** ****** ****** ****** ****** ****** ****** ******
  25  ****** ****** ****** ****** ****** ****** ****** ****** ****** ******
      ****** ****** ****** ****** ****** ****** ****** ****** ****** ******
      ****** ****** ****** ****** ****** ****** ****** ****** ****** ******

 HEAD WILL BE SAVED ON UNIT   51 AT END OF TIME STEP    1, STRESS PERIOD    3
1
  VOLUMETRIC BUDGET FOR ENTIRE MODEL AT END OF TIME STEP    1, STRESS PERIOD   3
  ------------------------------------------------------------------------------

     CUMULATIVE VOLUMES      L**3       RATES FOR THIS TIME STEP      L**3/T
     ------------------                 ------------------------

           IN:                                      IN:
           ---                                      ---
             STORAGE =    28772716.9895               STORAGE =       58034.0928
       CONSTANT HEAD =     5266063.4111         CONSTANT HEAD =       26856.8724
               WELLS =           0.0000                 WELLS =           0.0000
            RECHARGE =     6292800.0000              RECHARGE =           0.0000
      STREAM LEAKAGE =     1629447.6379        STREAM LEAKAGE =        7261.7361

            TOTAL IN =    41961028.0386              TOTAL IN =       92152.7013

          OUT:                                     OUT:
          ----                                     ----
             STORAGE =           0.0000               STORAGE =           0.0000
       CONSTANT HEAD =           0.0000         CONSTANT HEAD =           0.0000
               WELLS =     8763136.3205                 WELLS =       31982.2493
            RECHARGE =           0.0000              RECHARGE =           0.0000
      STREAM LEAKAGE =    33197893.6638        STREAM LEAKAGE =       60170.4595

           TOTAL OUT =    41961029.9843             TOTAL OUT =       92152.7089

            IN - OUT =          -1.9457              IN - OUT =      -7.5138E-03

 PERCENT DISCREPANCY =          -0.00     PERCENT DISCREPANCY =          -0.00






         TIME SUMMARY AT END OF TIME STEP    1 IN STRESS PERIOD    3
                    SECONDS     MINUTES      HOURS       DAYS        YEARS
                    -----------------------------------------------------------
   TIME STEP LENGTH 7.86240E+06 1.31040E+05  2184.0      91.000     0.24914    
 STRESS PERIOD TIME 7.86240E+06 1.31040E+05  2184.0      91.000     0.24914    
         TOTAL TIME 2.36736E+07 3.94560E+05  6576.0      274.00     0.75017    
1
1
                            STRESS PERIOD NO.    4, LENGTH =   91.00000    
                            -----------------------------------------------

                              NUMBER OF TIME STEPS =     1

                               MULTIPLIER FOR DELT =     1.500

                            INITIAL TIME STEP SIZE =   91.00000    

 WELL NO.  LAYER   ROW   COL   STRESS RATE         
 --------------------------------------------------
      1      1      5     13      -7278.    
      2      1      9     16      -9144.    
      3      1     16     19      -7533.    
      4      1     18     19      -8028.    

      4 WELLS

                 RECHARGE =  1.000000E-03

 REUSING STREAM SEGMENT DATA FROM LAST STRESS PERIOD
 
 SOLVING FOR HEAD 


     6 CALLS TO PCG ROUTINE FOR TIME STEP   1 IN STRESS PERIOD    4
    23 TOTAL ITERATIONS

 OUTPUT CONTROL FOR STRESS PERIOD    4   TIME STEP    1
    SAVE BUDGET
    SAVE HEAD FOR ALL LAYERS
    PRINT HEAD FOR ALL LAYERS
 UBDSV2 SAVING "STREAMFLOW OUT  " ON UNIT  50 AT TIME STEP  1, STRESS PERIOD   4



 STREAM LISTING     PERIOD      4   STEP        1

 LAYER ROW COL. STREAM  RCH.  FLOW INTO     FLOW TO   FLOW OUT OF   OVRLND.     DIRECT     STREAM       STREAM     STREAM     STREAM   STREAMBED  STREAMBED
                SEG.NO.  NO.  STRM. RCH.    AQUIFER    STRM. RCH.    RUNOFF     PRECIP       ET          HEAD       DEPTH      WIDTH   CONDCTNC.   GRADIENT

   1   13    1     1     1    1.0000E+05 -2.3360E+03   1.0234E+05  0.000E+00  0.000E+00  0.000E+00  4.84070E+01  1.457E-01  2.000E+01  2.000E+04 -1.168E-01
   1   13    2     1     2    1.0234E+05 -3.3926E+03   1.0573E+05  0.000E+00  0.000E+00  0.000E+00  4.79322E+01  1.481E-01  2.000E+01  2.000E+04 -1.696E-01
   1   14    3     1     3    1.0573E+05 -6.0886E+02   1.0634E+05  0.000E+00  0.000E+00  0.000E+00  4.74566E+01  1.498E-01  2.000E+01  2.000E+04 -3.044E-02
   1   15    4     1     4    1.0634E+05 -5.8475E+02   1.0692E+05  0.000E+00  0.000E+00  0.000E+00  4.69799E+01  1.503E-01  2.000E+01  2.000E+04 -2.924E-02
   1   16    5     1     5    1.0692E+05 -2.0851E+03   1.0901E+05  0.000E+00  0.000E+00  0.000E+00  4.65037E+01  1.515E-01  2.000E+01  2.000E+04 -1.043E-01
   1   16    6     1     6    1.0901E+05 -1.2964E+03   1.1030E+05  0.000E+00  0.000E+00  0.000E+00  4.60279E+01  1.529E-01  2.000E+01  2.000E+04 -6.482E-02
   1   16    7     1     7    1.1030E+05 -1.2555E+03   1.1156E+05  0.000E+00  0.000E+00  0.000E+00  4.55517E+01  1.539E-01  2.000E+01  2.000E+04 -6.277E-02
   1   16    8     1     8    1.1156E+05 -1.2244E+03   1.1278E+05  0.000E+00  0.000E+00  0.000E+00  4.50754E+01  1.550E-01  2.000E+01  2.000E+04 -6.122E-02
   1   16    9     1     9    1.1278E+05 -1.1762E+03   1.1396E+05  0.000E+00  0.000E+00  0.000E+00  4.45991E+01  1.560E-01  2.000E+01  2.000E+04 -5.881E-02
   1   16   10     1    10    1.1396E+05 -1.1041E+03   1.1506E+05  0.000E+00  0.000E+00  0.000E+00  4.41228E+01  1.569E-01  2.000E+01  2.000E+04 -5.520E-02
   1   16   11     1    11    1.1506E+05 -1.0132E+03   1.1608E+05  0.000E+00  0.000E+00  0.000E+00  4.36464E+01  1.578E-01  2.000E+01  2.000E+04 -5.066E-02
   1   16   12     1    12    1.1608E+05 -1.4054E+03   1.1748E+05  0.000E+00  0.000E+00  0.000E+00  4.31701E+01  1.588E-01  2.000E+01  2.000E+04 -7.027E-02
   1   15   13     1    13    1.1748E+05 -1.0844E+03   1.1857E+05  0.000E+00  0.000E+00  0.000E+00  4.26939E+01  1.598E-01  2.000E+01  2.000E+04 -5.422E-02
   1   14   14     1    14    1.1857E+05 -1.0664E+03   1.1963E+05  0.000E+00  0.000E+00  0.000E+00  4.22175E+01  1.606E-01  2.000E+01  2.000E+04 -5.332E-02
   1   13   15     1    15    1.1963E+05 -1.0438E+03   1.2068E+05  0.000E+00  0.000E+00  0.000E+00  4.17410E+01  1.615E-01  2.000E+01  2.000E+04 -5.219E-02
   1   12   16     1    16    1.2068E+05 -1.1043E+03   1.2178E+05  0.000E+00  0.000E+00  0.000E+00  4.12646E+01  1.624E-01  2.000E+01  2.000E+04 -5.521E-02
   1   12   17     1    17    1.2178E+05 -5.7083E+02   1.2235E+05  0.000E+00  0.000E+00  0.000E+00  4.07880E+01  1.630E-01  2.000E+01  2.000E+04 -2.854E-02
   1   12   18     1    18    1.2235E+05 -6.7505E+02   1.2303E+05  0.000E+00  0.000E+00  0.000E+00  4.03113E+01  1.635E-01  2.000E+01  2.000E+04 -3.375E-02
   1   12   19     1    19    1.2303E+05 -1.4165E+03   1.2444E+05  0.000E+00  0.000E+00  0.000E+00  3.98348E+01  1.644E-01  2.000E+01  2.000E+04 -7.083E-02
   1   13   20     1    20    1.2444E+05 -4.2536E+02   1.2487E+05  0.000E+00  0.000E+00  0.000E+00  3.93583E+01  1.651E-01  2.000E+01  2.000E+04 -2.127E-02
   1   14   21     1    21    1.2487E+05  4.1091E+02   1.2446E+05  0.000E+00  0.000E+00  0.000E+00  3.88810E+01  1.651E-01  2.000E+01  2.000E+04  2.055E-02
   1   14   22     1    22    1.2446E+05  5.1152E+03   1.1934E+05  0.000E+00  0.000E+00  0.000E+00  3.84015E+01  1.629E-01  2.000E+01  2.000E+04  2.558E-01
   1    9   30     2     1    5.0000E+04 -8.1368E+02   5.0814E+04  0.000E+00  0.000E+00  0.000E+00  4.02414E+01  1.164E-01  2.000E+01  2.000E+04 -4.068E-02
   1    9   29     2     2    5.0814E+04 -1.1102E+03   5.1924E+04  0.000E+00  0.000E+00  0.000E+00  3.99928E+01  1.178E-01  2.000E+01  2.000E+04 -5.551E-02
   1    9   28     2     3    5.1924E+04 -1.3604E+03   5.3284E+04  0.000E+00  0.000E+00  0.000E+00  3.97444E+01  1.194E-01  2.000E+01  2.000E+04 -6.802E-02
   1    9   27     2     4    5.3284E+04 -2.6487E+03   5.5933E+04  0.000E+00  0.000E+00  0.000E+00  3.94972E+01  1.222E-01  2.000E+01  2.000E+04 -1.324E-01
   1   10   26     2     5    5.5933E+04 -1.7718E+03   5.7705E+04  0.000E+00  0.000E+00  0.000E+00  3.92501E+01  1.251E-01  2.000E+01  2.000E+04 -8.859E-02
   1   11   25     2     6    5.7705E+04 -1.5150E+03   5.9220E+04  0.000E+00  0.000E+00  0.000E+00  3.90023E+01  1.273E-01  2.000E+01  2.000E+04 -7.575E-02
   1   12   24     2     7    5.9220E+04 -1.5281E+03   6.0748E+04  0.000E+00  0.000E+00  0.000E+00  3.87542E+01  1.292E-01  2.000E+01  2.000E+04 -7.641E-02
   1   13   23     2     8    6.0748E+04 -2.5744E+02   6.1005E+04  0.000E+00  0.000E+00  0.000E+00  3.85054E+01  1.304E-01  2.000E+01  2.000E+04 -1.287E-02
   1   14   22     2     9    6.1005E+04  2.1676E+03   5.8838E+04  0.000E+00  0.000E+00  0.000E+00  3.82542E+01  1.292E-01  2.000E+01  2.000E+04  1.084E-01
   1   14   22     3     1    1.7818E+05 -8.3618E+03   1.8654E+05  0.000E+00  0.000E+00  0.000E+00  3.77277E+01  1.721E-01  2.000E+01  2.000E+04 -4.181E-01
   1   15   23     3     2    1.8654E+05 -2.8181E+02   1.8682E+05  0.000E+00  0.000E+00  0.000E+00  3.68412E+01  1.746E-01  2.000E+01  2.000E+04 -1.409E-02
   1   15   24     3     3    1.8682E+05 -2.6465E+02   1.8709E+05  0.000E+00  0.000E+00  0.000E+00  3.59525E+01  1.747E-01  2.000E+01  2.000E+04 -1.323E-02
   1   15   25     3     4    1.8709E+05 -2.8885E+02   1.8738E+05  0.000E+00  0.000E+00  0.000E+00  3.50638E+01  1.749E-01  2.000E+01  2.000E+04 -1.444E-02
   1   15   26     3     5    1.8738E+05 -3.5764E+02   1.8774E+05  0.000E+00  0.000E+00  0.000E+00  3.41751E+01  1.751E-01  2.000E+01  2.000E+04 -1.788E-02
   1   16   27     3     6    1.8774E+05 -3.9698E+02   1.8813E+05  0.000E+00  0.000E+00  0.000E+00  3.32864E+01  1.753E-01  2.000E+01  2.000E+04 -1.985E-02
   1   17   28     3     7    1.8813E+05 -1.6444E+03   1.8978E+05  0.000E+00  0.000E+00  0.000E+00  3.23981E+01  1.758E-01  2.000E+01  2.000E+04 -8.222E-02
   1   18   29     3     8    1.8978E+05 -3.0074E+03   1.9278E+05  0.000E+00  0.000E+00  0.000E+00  3.15105E+01  1.771E-01  2.000E+01  2.000E+04 -1.504E-01
   1   18   30     3     9    1.9278E+05 -3.2576E+03   1.9604E+05  0.000E+00  0.000E+00  0.000E+00  3.06233E+01  1.789E-01  2.000E+01  2.000E+04 -1.629E-01



1
              HEAD IN LAYER   1 AT END OF TIME STEP   1 IN STRESS PERIOD    4
  ---------------------------------------------------------------------------

          1      2      3      4      5      6      7      8      9     10
         11     12     13     14     15     16     17     18     19     20
         21     22     23     24     25     26     27     28     29     30
 .........................................................................
   1  ****** ****** ****** ****** ****** ****** ****** ****** ****** ******
      ****** ****** ****** ****** ****** ****** ****** ****** ****** ******
      ****** ****** ****** ****** ****** ****** ****** ****** ****** ******
   2  ****** ****** ****** ****** ****** ****** ****** ****** ****** ******
      ****** ****** ****** ****** ****** ****** ****** ****** ****** ******
      ****** ****** ****** ****** ****** ****** ****** ****** ****** ******
   3  ****** ****** ****** ****** ****** ****** ****** ****** ****** ******
      ****** ****** ****** ****** ****** ****** ****** ****** ****** ******
      ****** ****** ****** ****** ****** ****** ****** ****** ****** ******
   4  ****** ****** ****** ****** ****** ****** ****** ****** ****** ******
      ****** ****** ****** ****** ****** ****** ****** ****** ****** ******
      ****** ****** ****** ****** ****** ****** ****** ****** ****** ******
   5  ****** ****** ****** ****** ****** ****** ****** ****** ****** ******
      ****** ****** ****** ****** ****** ****** ****** ****** ****** ******
      ****** ****** ****** ****** ****** ****** ****** ****** ****** ******
   6  ****** ****** ****** ****** ****** ****** ****** ****** ****** ******
      ****** ****** ****** ****** ****** ****** ****** ****** ****** ******
      ****** ****** ****** ****** ****** ****** ****** ****** ****** ******
   7  ****** ****** ****** ****** ****** ****** ****** ****** ****** ******
      ****** ****** ****** ****** ****** ****** ****** ****** ****** ******
      ****** ****** ****** ****** ****** ****** ****** ****** ****** ******
   8  ****** ****** ****** ****** ****** ****** ****** ****** ****** ******
      ****** ****** ****** ****** ****** ****** ****** ****** ****** ******
      ****** ****** ****** ****** ****** ****** ****** ****** ****** ******
   9  ****** ****** ****** ****** ****** ****** ****** ****** ****** ******
      ****** ****** ****** ****** ****** ****** ****** ****** ****** ******
      ****** ****** ****** ****** ****** ****** ****** ****** ****** ******
  10  ****** ****** ****** ****** ****** ****** ****** ****** ****** ******
      ****** ****** ****** ****** ****** ****** ****** ****** ****** ******
      ****** ****** ****** ****** ****** ****** ****** ****** ****** ******
  11  ****** ****** ****** ****** ****** ****** ****** ****** ****** ******
      ****** ****** ****** ****** ****** ****** ****** ****** ****** ******
      ****** ****** ****** ****** ****** ****** ****** ****** ****** ******
  12  ****** ****** ****** ****** ****** ****** ****** ****** ****** ******
      ****** ****** ****** ****** ****** ****** ****** ****** ****** ******
      ****** ****** ****** ****** ****** ****** ****** ****** ****** ******
  13  ****** ****** ****** ****** ****** ****** ****** ****** ****** ******
      ****** ****** ****** ****** ****** ****** ****** ****** ****** ******
      ****** ****** ****** ****** ****** ****** ****** ****** ****** ******
  14  ****** ****** ****** ****** ****** ****** ****** ****** ****** ******
      ****** ****** ****** ****** ****** ****** ****** ****** ****** ******
      ****** ****** ****** ****** ****** ****** ****** ****** ****** ******
  15  ****** ****** ****** ****** ****** ****** ****** ****** ****** ******
      ****** ****** ****** ****** ****** ****** ****** ****** ****** ******
      ****** ****** ****** ****** ****** ****** ****** ****** ****** ******
  16  ****** ****** ****** ****** ****** ****** ****** ****** ****** ******
      ****** ****** ****** ****** ****** ****** ****** ****** ****** ******
      ****** ****** ****** ****** ****** ****** ****** ****** ****** ******
  17  ****** ****** ****** ****** ****** ****** ****** ****** ****** ******
      ****** ****** ****** ****** ****** ****** ****** ****** ****** ******
      ****** ****** ****** ****** ****** ****** ****** ****** ****** ******
  18  ****** ****** ****** ****** ****** ****** ****** ****** ****** ******
      ****** ****** ****** ****** ****** ****** ****** ****** ****** ******
      ****** ****** ****** ****** ****** ****** ****** ****** ****** ******
  19  ****** ****** ****** ****** ****** ****** ****** ****** ****** ******
      ****** ****** ****** ****** ****** ****** ****** ****** ****** ******
      ****** ****** ****** ****** ****** ****** ****** ****** ****** ******
  20  ****** ****** ****** ****** ****** ****** ****** ****** ****** ******
      ****** ****** ****** ****** ****** ****** ****** ****** ****** ******
      ****** ****** ****** ****** ****** ****** ****** ****** ****** ******
  21  ****** ****** ****** ****** ****** ****** ****** ****** ****** ******
      ****** ****** ****** ****** ****** ****** ****** ****** ****** ******
      ****** ****** ****** ****** ****** ****** ****** ****** ****** ******
  22  ****** ****** ****** ****** ****** ****** ****** ****** ****** ******
      ****** ****** ****** ****** ****** ****** ****** ****** ****** ******
      ****** ****** ****** ****** ****** ****** ****** ****** ****** ******
  23  ****** ****** ****** ****** ****** ****** ****** ****** ****** ******
      ****** ****** ****** ****** ****** ****** ****** ****** ****** ******
      ****** ****** ****** ****** ****** ****** ****** ****** ****** ******
  24  ****** ****** ****** ****** ****** ****** ****** ****** ****** ******
      ****** ****** ****** ****** ****** ****** ****** ****** ****** ******
      ****** ****** ****** ****** ****** ****** ****** ****** ****** ******
  25  ****** ****** ****** ****** ****** ****** ****** ****** ****** ******
      ****** ****** ****** ****** ****** ****** ****** ****** ****** ******
      ****** ****** ****** ****** ****** ****** ****** ****** ****** ******

 HEAD WILL BE SAVED ON UNIT   51 AT END OF TIME STEP    1, STRESS PERIOD    4
1
  VOLUMETRIC BUDGET FOR ENTIRE MODEL AT END OF TIME STEP    1, STRESS PERIOD   4
  ------------------------------------------------------------------------------

     CUMULATIVE VOLUMES      L**3       RATES FOR THIS TIME STEP      L**3/T
     ------------------                 ------------------------

           IN:                                      IN:
           ---                                      ---
             STORAGE =    30655679.4084               STORAGE =       20691.8947
       CONSTANT HEAD =     7972876.5992         CONSTANT HEAD =       29745.1999
               WELLS =           0.0000                 WELLS =           0.0000
            RECHARGE =     8804400.0000              RECHARGE =       27600.0000
      STREAM LEAKAGE =     2329574.8807        STREAM LEAKAGE =        7693.7060

            TOTAL IN =    49762530.8883              TOTAL IN =       85730.8005

          OUT:                                     OUT:
          ----                                     ----
             STORAGE =        1182.6808               STORAGE =          12.9965
       CONSTANT HEAD =           0.0000         CONSTANT HEAD =           0.0000
               WELLS =    11673521.0109                 WELLS =       31982.2493
            RECHARGE =           0.0000              RECHARGE =           0.0000
      STREAM LEAKAGE =    38087829.2256        STREAM LEAKAGE =       53735.5556

           TOTAL OUT =    49762532.9172             TOTAL OUT =       85730.8015

            IN - OUT =          -2.0290              IN - OUT =      -9.1433E-04

 PERCENT DISCREPANCY =          -0.00     PERCENT DISCREPANCY =          -0.00






         TIME SUMMARY AT END OF TIME STEP    1 IN STRESS PERIOD    4
                    SECONDS     MINUTES      HOURS       DAYS        YEARS
                    -----------------------------------------------------------
   TIME STEP LENGTH 7.86240E+06 1.31040E+05  2184.0      91.000     0.24914    
 STRESS PERIOD TIME 7.86240E+06 1.31040E+05  2184.0      91.000     0.24914    
         TOTAL TIME 3.15360E+07 5.25600E+05  8760.0      365.00     0.99932    
1
1
                            STRESS PERIOD NO.    5, LENGTH =   92.00000    
                            -----------------------------------------------

                              NUMBER OF TIME STEPS =     1

                               MULTIPLIER FOR DELT =     1.500

                            INITIAL TIME STEP SIZE =   92.00000    

 WELL NO.  LAYER   ROW   COL   STRESS RATE         
 --------------------------------------------------
      1      1      5     13      -7278.    
      2      1      9     16      -9144.    
      3      1     16     19      -7533.    
      4      1     18     19      -8028.    

      4 WELLS

                 RECHARGE =  5.000000E-04

 REUSING STREAM SEGMENT DATA FROM LAST STRESS PERIOD
 
 SOLVING FOR HEAD 


     7 CALLS TO PCG ROUTINE FOR TIME STEP   1 IN STRESS PERIOD    5
    26 TOTAL ITERATIONS

 OUTPUT CONTROL FOR STRESS PERIOD    5   TIME STEP    1
    SAVE BUDGET
    SAVE HEAD FOR ALL LAYERS
    PRINT HEAD FOR ALL LAYERS
 UBDSV2 SAVING "STREAMFLOW OUT  " ON UNIT  50 AT TIME STEP  1, STRESS PERIOD   5



 STREAM LISTING     PERIOD      5   STEP        1

 LAYER ROW COL. STREAM  RCH.  FLOW INTO     FLOW TO   FLOW OUT OF   OVRLND.     DIRECT     STREAM       STREAM     STREAM     STREAM   STREAMBED  STREAMBED
                SEG.NO.  NO.  STRM. RCH.    AQUIFER    STRM. RCH.    RUNOFF     PRECIP       ET          HEAD       DEPTH      WIDTH   CONDCTNC.   GRADIENT

   1   13    1     1     1    1.0000E+05 -1.8841E+03   1.0188E+05  0.000E+00  0.000E+00  0.000E+00  4.84068E+01  1.455E-01  2.000E+01  2.000E+04 -9.420E-02
   1   13    2     1     2    1.0188E+05 -2.8820E+03   1.0477E+05  0.000E+00  0.000E+00  0.000E+00  4.79316E+01  1.475E-01  2.000E+01  2.000E+04 -1.441E-01
   1   14    3     1     3    1.0477E+05 -4.8172E+02   1.0525E+05  0.000E+00  0.000E+00  0.000E+00  4.74558E+01  1.490E-01  2.000E+01  2.000E+04 -2.409E-02
   1   15    4     1     4    1.0525E+05 -4.5198E+02   1.0570E+05  0.000E+00  0.000E+00  0.000E+00  4.69789E+01  1.494E-01  2.000E+01  2.000E+04 -2.260E-02
   1   16    5     1     5    1.0570E+05 -1.6458E+03   1.0735E+05  0.000E+00  0.000E+00  0.000E+00  4.65025E+01  1.502E-01  2.000E+01  2.000E+04 -8.229E-02
   1   16    6     1     6    1.0735E+05 -1.0373E+03   1.0838E+05  0.000E+00  0.000E+00  0.000E+00  4.60264E+01  1.514E-01  2.000E+01  2.000E+04 -5.187E-02
   1   16    7     1     7    1.0838E+05 -1.0059E+03   1.0939E+05  0.000E+00  0.000E+00  0.000E+00  4.55500E+01  1.522E-01  2.000E+01  2.000E+04 -5.029E-02
   1   16    8     1     8    1.0939E+05 -9.7757E+02   1.1037E+05  0.000E+00  0.000E+00  0.000E+00  4.50735E+01  1.531E-01  2.000E+01  2.000E+04 -4.888E-02
   1   16    9     1     9    1.1037E+05 -9.3146E+02   1.1130E+05  0.000E+00  0.000E+00  0.000E+00  4.45970E+01  1.539E-01  2.000E+01  2.000E+04 -4.657E-02
   1   16   10     1    10    1.1130E+05 -8.6187E+02   1.1216E+05  0.000E+00  0.000E+00  0.000E+00  4.41205E+01  1.546E-01  2.000E+01  2.000E+04 -4.309E-02
   1   16   11     1    11    1.1216E+05 -7.6931E+02   1.1293E+05  0.000E+00  0.000E+00  0.000E+00  4.36439E+01  1.553E-01  2.000E+01  2.000E+04 -3.847E-02
   1   16   12     1    12    1.1293E+05 -9.6279E+02   1.1389E+05  0.000E+00  0.000E+00  0.000E+00  4.31674E+01  1.560E-01  2.000E+01  2.000E+04 -4.814E-02
   1   15   13     1    13    1.1389E+05 -6.1248E+02   1.1450E+05  0.000E+00  0.000E+00  0.000E+00  4.26907E+01  1.566E-01  2.000E+01  2.000E+04 -3.062E-02
   1   14   14     1    14    1.1450E+05 -5.6007E+02   1.1506E+05  0.000E+00  0.000E+00  0.000E+00  4.22139E+01  1.571E-01  2.000E+01  2.000E+04 -2.800E-02
   1   13   15     1    15    1.1506E+05 -5.1488E+02   1.1558E+05  0.000E+00  0.000E+00  0.000E+00  4.17371E+01  1.576E-01  2.000E+01  2.000E+04 -2.574E-02
   1   12   16     1    16    1.1558E+05 -5.2013E+02   1.1610E+05  0.000E+00  0.000E+00  0.000E+00  4.12603E+01  1.580E-01  2.000E+01  2.000E+04 -2.601E-02
   1   12   17     1    17    1.1610E+05 -1.8390E+02   1.1628E+05  0.000E+00  0.000E+00  0.000E+00  4.07833E+01  1.583E-01  2.000E+01  2.000E+04 -9.195E-03
   1   12   18     1    18    1.1628E+05 -3.0922E+02   1.1659E+05  0.000E+00  0.000E+00  0.000E+00  4.03062E+01  1.585E-01  2.000E+01  2.000E+04 -1.546E-02
   1   12   19     1    19    1.1659E+05 -9.7613E+02   1.1757E+05  0.000E+00  0.000E+00  0.000E+00  3.98295E+01  1.590E-01  2.000E+01  2.000E+04 -4.881E-02
   1   13   20     1    20    1.1757E+05 -4.5538E+01   1.1761E+05  0.000E+00  0.000E+00  0.000E+00  3.93526E+01  1.594E-01  2.000E+01  2.000E+04 -2.277E-03
   1   14   21     1    21    1.1761E+05  8.1887E+02   1.1680E+05  0.000E+00  0.000E+00  0.000E+00  3.88750E+01  1.591E-01  2.000E+01  2.000E+04  4.094E-02
   1   14   22     1    22    1.1680E+05  5.1967E+03   1.1160E+05  0.000E+00  0.000E+00  0.000E+00  3.83953E+01  1.566E-01  2.000E+01  2.000E+04  2.598E-01
   1    9   30     2     1    5.0000E+04 -5.7808E+02   5.0578E+04  0.000E+00  0.000E+00  0.000E+00  4.02413E+01  1.163E-01  2.000E+01  2.000E+04 -2.890E-02
   1    9   29     2     2    5.0578E+04 -8.7056E+02   5.1449E+04  0.000E+00  0.000E+00  0.000E+00  3.99923E+01  1.173E-01  2.000E+01  2.000E+04 -4.353E-02
   1    9   28     2     3    5.1449E+04 -1.1074E+03   5.2556E+04  0.000E+00  0.000E+00  0.000E+00  3.97436E+01  1.186E-01  2.000E+01  2.000E+04 -5.537E-02
   1    9   27     2     4    5.2556E+04 -2.2450E+03   5.4801E+04  0.000E+00  0.000E+00  0.000E+00  3.94959E+01  1.209E-01  2.000E+01  2.000E+04 -1.122E-01
   1   10   26     2     5    5.4801E+04 -1.4191E+03   5.6220E+04  0.000E+00  0.000E+00  0.000E+00  3.92484E+01  1.234E-01  2.000E+01  2.000E+04 -7.095E-02
   1   11   25     2     6    5.6220E+04 -1.1903E+03   5.7410E+04  0.000E+00  0.000E+00  0.000E+00  3.90001E+01  1.251E-01  2.000E+01  2.000E+04 -5.952E-02
   1   12   24     2     7    5.7410E+04 -1.2299E+03   5.8640E+04  0.000E+00  0.000E+00  0.000E+00  3.87517E+01  1.267E-01  2.000E+01  2.000E+04 -6.149E-02
   1   13   23     2     8    5.8640E+04 -1.8669E+02   5.8827E+04  0.000E+00  0.000E+00  0.000E+00  3.85026E+01  1.276E-01  2.000E+01  2.000E+04 -9.335E-03
   1   14   22     2     9    5.8827E+04  2.3155E+03   5.6511E+04  0.000E+00  0.000E+00  0.000E+00  3.82512E+01  1.262E-01  2.000E+01  2.000E+04  1.158E-01
   1   14   22     3     1    1.6811E+05 -8.2711E+03   1.7638E+05  0.000E+00  0.000E+00  0.000E+00  3.77219E+01  1.663E-01  2.000E+01  2.000E+04 -4.136E-01
   1   15   23     3     2    1.7638E+05 -1.7616E+02   1.7656E+05  0.000E+00  0.000E+00  0.000E+00  3.68354E+01  1.688E-01  2.000E+01  2.000E+04 -8.808E-03
   1   15   24     3     3    1.7656E+05 -1.8868E+02   1.7675E+05  0.000E+00  0.000E+00  0.000E+00  3.59467E+01  1.689E-01  2.000E+01  2.000E+04 -9.434E-03
   1   15   25     3     4    1.7675E+05 -2.1417E+02   1.7696E+05  0.000E+00  0.000E+00  0.000E+00  3.50579E+01  1.690E-01  2.000E+01  2.000E+04 -1.071E-02
   1   15   26     3     5    1.7696E+05 -2.8343E+02   1.7724E+05  0.000E+00  0.000E+00  0.000E+00  3.41691E+01  1.691E-01  2.000E+01  2.000E+04 -1.417E-02
   1   16   27     3     6    1.7724E+05 -3.0263E+02   1.7755E+05  0.000E+00  0.000E+00  0.000E+00  3.32804E+01  1.693E-01  2.000E+01  2.000E+04 -1.513E-02
   1   17   28     3     7    1.7755E+05 -1.3631E+03   1.7891E+05  0.000E+00  0.000E+00  0.000E+00  3.23920E+01  1.698E-01  2.000E+01  2.000E+04 -6.816E-02
   1   18   29     3     8    1.7891E+05 -2.6048E+03   1.8151E+05  0.000E+00  0.000E+00  0.000E+00  3.15042E+01  1.709E-01  2.000E+01  2.000E+04 -1.302E-01
   1   18   30     3     9    1.8151E+05 -2.9829E+03   1.8450E+05  0.000E+00  0.000E+00  0.000E+00  3.06169E+01  1.725E-01  2.000E+01  2.000E+04 -1.491E-01



1
              HEAD IN LAYER   1 AT END OF TIME STEP   1 IN STRESS PERIOD    5
  ---------------------------------------------------------------------------

          1      2      3      4      5      6      7      8      9     10
         11     12     13     14     15     16     17     18     19     20
         21     22     23     24     25     26     27     28     29     30
 .........................................................................
   1  ****** ****** ****** ****** ****** ****** ****** ****** ****** ******
      ****** ****** ****** ****** ****** ****** ****** ****** ****** ******
      ****** ****** ****** ****** ****** ****** ****** ****** ****** ******
   2  ****** ****** ****** ****** ****** ****** ****** ****** ****** ******
      ****** ****** ****** ****** ****** ****** ****** ****** ****** ******
      ****** ****** ****** ****** ****** ****** ****** ****** ****** ******
   3  ****** ****** ****** ****** ****** ****** ****** ****** ****** ******
      ****** ****** ****** ****** ****** ****** ****** ****** ****** ******
      ****** ****** ****** ****** ****** ****** ****** ****** ****** ******
   4  ****** ****** ****** ****** ****** ****** ****** ****** ****** ******
      ****** ****** ****** ****** ****** ****** ****** ****** ****** ******
      ****** ****** ****** ****** ****** ****** ****** ****** ****** ******
   5  ****** ****** ****** ****** ****** ****** ****** ****** ****** ******
      ****** ****** ****** ****** ****** ****** ****** ****** ****** ******
      ****** ****** ****** ****** ****** ****** ****** ****** ****** ******
   6  ****** ****** ****** ****** ****** ****** ****** ****** ****** ******
      ****** ****** ****** ****** ****** ****** ****** ****** ****** ******
      ****** ****** ****** ****** ****** ****** ****** ****** ****** ******
   7  ****** ****** ****** ****** ****** ****** ****** ****** ****** ******
      ****** ****** ****** ****** ****** ****** ****** ****** ****** ******
      ****** ****** ****** ****** ****** ****** ****** ****** ****** ******
   8  ****** ****** ****** ****** ****** ****** ****** ****** ****** ******
      ****** ****** ****** ****** ****** ****** ****** ****** ****** ******
      ****** ****** ****** ****** ****** ****** ****** ****** ****** ******
   9  ****** ****** ****** ****** ****** ****** ****** ****** ****** ******
      ****** ****** ****** ****** ****** ****** ****** ****** ****** ******
      ****** ****** ****** ****** ****** ****** ****** ****** ****** ******
  10  ****** ****** ****** ****** ****** ****** ****** ****** ****** ******
      ****** ****** ****** ****** ****** ****** ****** ****** ****** ******
      ****** ****** ****** ****** ****** ****** ****** ****** ****** ******
  11  ****** ****** ****** ****** ****** ****** ****** ****** ****** ******
      ****** ****** ****** ****** ****** ****** ****** ****** ****** ******
      ****** ****** ****** ****** ****** ****** ****** ****** ****** ******
  12  ****** ****** ****** ****** ****** ****** ****** ****** ****** ******
      ****** ****** ****** ****** ****** ****** ****** ****** ****** ******
      ****** ****** ****** ****** ****** ****** ****** ****** ****** ******
  13  ****** ****** ****** ****** ****** ****** ****** ****** ****** ******
      ****** ****** ****** ****** ****** ****** ****** ****** ****** ******
      ****** ****** ****** ****** ****** ****** ****** ****** ****** ******
  14  ****** ****** ****** ****** ****** ****** ****** ****** ****** ******
      ****** ****** ****** ****** ****** ****** ****** ****** ****** ******
      ****** ****** ****** ****** ****** ****** ****** ****** ****** ******
  15  ****** ****** ****** ****** ****** ****** ****** ****** ****** ******
      ****** ****** ****** ****** ****** ****** ****** ****** ****** ******
      ****** ****** ****** ****** ****** ****** ****** ****** ****** ******
  16  ****** ****** ****** ****** ****** ****** ****** ****** ****** ******
      ****** ****** ****** ****** ****** ****** ****** ****** ****** ******
      ****** ****** ****** ****** ****** ****** ****** ****** ****** ******
  17  ****** ****** ****** ****** ****** ****** ****** ****** ****** ******
      ****** ****** ****** ****** ****** ****** ****** ****** ****** ******
      ****** ****** ****** ****** ****** ****** ****** ****** ****** ******
  18  ****** ****** ****** ****** ****** ****** ****** ****** ****** ******
      ****** ****** ****** ****** ****** ****** ****** ****** ****** ******
      ****** ****** ****** ****** ****** ****** ****** ****** ****** ******
  19  ****** ****** ****** ****** ****** ****** ****** ****** ****** ******
      ****** ****** ****** ****** ****** ****** ****** ****** ****** ******
      ****** ****** ****** ****** ****** ****** ****** ****** ****** ******
  20  ****** ****** ****** ****** ****** ****** ****** ****** ****** ******
      ****** ****** ****** ****** ****** ****** ****** ****** ****** ******
      ****** ****** ****** ****** ****** ****** ****** ****** ****** ******
  21  ****** ****** ****** ****** ****** ****** ****** ****** ****** ******
      ****** ****** ****** ****** ****** ****** ****** ****** ****** ******
      ****** ****** ****** ****** ****** ****** ****** ****** ****** ******
  22  ****** ****** ****** ****** ****** ****** ****** ****** ****** ******
      ****** ****** ****** ****** ****** ****** ****** ****** ****** ******
      ****** ****** ****** ****** ****** ****** ****** ****** ****** ******
  23  ****** ****** ****** ****** ****** ****** ****** ****** ****** ******
      ****** ****** ****** ****** ****** ****** ****** ****** ****** ******
      ****** ****** ****** ****** ****** ****** ****** ****** ****** ******
  24  ****** ****** ****** ****** ****** ****** ****** ****** ****** ******
      ****** ****** ****** ****** ****** ****** ****** ****** ****** ******
      ****** ****** ****** ****** ****** ****** ****** ****** ****** ******
  25  ****** ****** ****** ****** ****** ****** ****** ****** ****** ******
      ****** ****** ****** ****** ****** ****** ****** ****** ****** ******
      ****** ****** ****** ****** ****** ****** ****** ****** ****** ******

 HEAD WILL BE SAVED ON UNIT   51 AT END OF TIME STEP    1, STRESS PERIOD    5
1
  VOLUMETRIC BUDGET FOR ENTIRE MODEL AT END OF TIME STEP    1, STRESS PERIOD   5
  ------------------------------------------------------------------------------

     CUMULATIVE VOLUMES      L**3       RATES FOR THIS TIME STEP      L**3/T
     ------------------                 ------------------------

           IN:                                      IN:
           ---                                      ---
             STORAGE =    32478190.3254               STORAGE =       19809.9013
       CONSTANT HEAD =    10996853.9701         CONSTANT HEAD =       32869.3192
               WELLS =           0.0000                 WELLS =           0.0000
            RECHARGE =    10074000.0000              RECHARGE =       13800.0000
      STREAM LEAKAGE =     3096035.9656        STREAM LEAKAGE =        8331.0987

            TOTAL IN =    56645080.2611              TOTAL IN =       74810.3193

          OUT:                                     OUT:
          ----                                     ----
             STORAGE =        1182.6808               STORAGE =           0.0000
       CONSTANT HEAD =           0.0000         CONSTANT HEAD =           0.0000
               WELLS =    14615887.9506                 WELLS =       31982.2493
            RECHARGE =           0.0000              RECHARGE =           0.0000
      STREAM LEAKAGE =    42028011.9660        STREAM LEAKAGE =       42828.0733

           TOTAL OUT =    56645082.5974             TOTAL OUT =       74810.3226

            IN - OUT =          -2.3363              IN - OUT =      -3.3410E-03

 PERCENT DISCREPANCY =          -0.00     PERCENT DISCREPANCY =          -0.00






         TIME SUMMARY AT END OF TIME STEP    1 IN STRESS PERIOD    5
                    SECONDS     MINUTES      HOURS       DAYS        YEARS
                    -----------------------------------------------------------
   TIME STEP LENGTH 7.94880E+06 1.32480E+05  2208.0      92.000     0.25188    
 STRESS PERIOD TIME 7.94880E+06 1.32480E+05  2208.0      92.000     0.25188    
         TOTAL TIME 3.94848E+07 6.58080E+05  10968.      457.00      1.2512    
1
1
                            STRESS PERIOD NO.    6, LENGTH =   91.00000    
                            -----------------------------------------------

                              NUMBER OF TIME STEPS =     1

                               MULTIPLIER FOR DELT =     1.500

                            INITIAL TIME STEP SIZE =   91.00000    

 WELL NO.  LAYER   ROW   COL   STRESS RATE         
 --------------------------------------------------
      1      1      5     13      -7278.    
      2      1      9     16      -9144.    
      3      1     16     19      -7533.    
      4      1     18     19      -8028.    

      4 WELLS

                 RECHARGE =  2.000000E-03

 REUSING STREAM SEGMENT DATA FROM LAST STRESS PERIOD
 
 SOLVING FOR HEAD 


     7 CALLS TO PCG ROUTINE FOR TIME STEP   1 IN STRESS PERIOD    6
    26 TOTAL ITERATIONS

 OUTPUT CONTROL FOR STRESS PERIOD    6   TIME STEP    1
    SAVE BUDGET
    SAVE HEAD FOR ALL LAYERS
    PRINT HEAD FOR ALL LAYERS
 UBDSV2 SAVING "STREAMFLOW OUT  " ON UNIT  50 AT TIME STEP  1, STRESS PERIOD   6



 STREAM LISTING     PERIOD      6   STEP        1

 LAYER ROW COL. STREAM  RCH.  FLOW INTO     FLOW TO   FLOW OUT OF   OVRLND.     DIRECT     STREAM       STREAM     STREAM     STREAM   STREAMBED  STREAMBED
                SEG.NO.  NO.  STRM. RCH.    AQUIFER    STRM. RCH.    RUNOFF     PRECIP       ET          HEAD       DEPTH      WIDTH   CONDCTNC.   GRADIENT

   1   13    1     1     1    1.0000E+05 -2.1712E+03   1.0217E+05  0.000E+00  0.000E+00  0.000E+00  4.84070E+01  1.456E-01  2.000E+01  2.000E+04 -1.086E-01
   1   13    2     1     2    1.0217E+05 -3.1953E+03   1.0537E+05  0.000E+00  0.000E+00  0.000E+00  4.79320E+01  1.479E-01  2.000E+01  2.000E+04 -1.598E-01
   1   14    3     1     3    1.0537E+05 -6.3258E+02   1.0600E+05  0.000E+00  0.000E+00  0.000E+00  4.74563E+01  1.495E-01  2.000E+01  2.000E+04 -3.163E-02
   1   15    4     1     4    1.0600E+05 -6.1506E+02   1.0661E+05  0.000E+00  0.000E+00  0.000E+00  4.69796E+01  1.501E-01  2.000E+01  2.000E+04 -3.075E-02
   1   16    5     1     5    1.0661E+05 -2.1367E+03   1.0875E+05  0.000E+00  0.000E+00  0.000E+00  4.65035E+01  1.512E-01  2.000E+01  2.000E+04 -1.068E-01
   1   16    6     1     6    1.0875E+05 -1.3238E+03   1.1007E+05  0.000E+00  0.000E+00  0.000E+00  4.60277E+01  1.527E-01  2.000E+01  2.000E+04 -6.619E-02
   1   16    7     1     7    1.1007E+05 -1.2766E+03   1.1135E+05  0.000E+00  0.000E+00  0.000E+00  4.55515E+01  1.538E-01  2.000E+01  2.000E+04 -6.383E-02
   1   16    8     1     8    1.1135E+05 -1.2433E+03   1.1259E+05  0.000E+00  0.000E+00  0.000E+00  4.50753E+01  1.548E-01  2.000E+01  2.000E+04 -6.216E-02
   1   16    9     1     9    1.1259E+05 -1.1964E+03   1.1379E+05  0.000E+00  0.000E+00  0.000E+00  4.45990E+01  1.558E-01  2.000E+01  2.000E+04 -5.982E-02
   1   16   10     1    10    1.1379E+05 -1.1283E+03   1.1492E+05  0.000E+00  0.000E+00  0.000E+00  4.41227E+01  1.568E-01  2.000E+01  2.000E+04 -5.642E-02
   1   16   11     1    11    1.1492E+05 -1.0388E+03   1.1596E+05  0.000E+00  0.000E+00  0.000E+00  4.36463E+01  1.577E-01  2.000E+01  2.000E+04 -5.194E-02
   1   16   12     1    12    1.1596E+05 -1.3939E+03   1.1735E+05  0.000E+00  0.000E+00  0.000E+00  4.31700E+01  1.587E-01  2.000E+01  2.000E+04 -6.969E-02
   1   15   13     1    13    1.1735E+05 -1.0482E+03   1.1840E+05  0.000E+00  0.000E+00  0.000E+00  4.26937E+01  1.597E-01  2.000E+01  2.000E+04 -5.241E-02
   1   14   14     1    14    1.1840E+05 -9.8639E+02   1.1939E+05  0.000E+00  0.000E+00  0.000E+00  4.22173E+01  1.605E-01  2.000E+01  2.000E+04 -4.932E-02
   1   13   15     1    15    1.1939E+05 -9.1828E+02   1.2030E+05  0.000E+00  0.000E+00  0.000E+00  4.17408E+01  1.612E-01  2.000E+01  2.000E+04 -4.591E-02
   1   12   16     1    16    1.2030E+05 -8.7116E+02   1.2118E+05  0.000E+00  0.000E+00  0.000E+00  4.12642E+01  1.620E-01  2.000E+01  2.000E+04 -4.356E-02
   1   12   17     1    17    1.2118E+05 -4.7871E+02   1.2165E+05  0.000E+00  0.000E+00  0.000E+00  4.07875E+01  1.625E-01  2.000E+01  2.000E+04 -2.394E-02
   1   12   18     1    18    1.2165E+05 -6.1030E+02   1.2227E+05  0.000E+00  0.000E+00  0.000E+00  4.03107E+01  1.630E-01  2.000E+01  2.000E+04 -3.052E-02
   1   12   19     1    19    1.2227E+05 -1.3522E+03   1.2362E+05  0.000E+00  0.000E+00  0.000E+00  3.98342E+01  1.637E-01  2.000E+01  2.000E+04 -6.761E-02
   1   13   20     1    20    1.2362E+05 -4.5464E+02   1.2407E+05  0.000E+00  0.000E+00  0.000E+00  3.93576E+01  1.645E-01  2.000E+01  2.000E+04 -2.273E-02
   1   14   21     1    21    1.2407E+05  4.2143E+02   1.2365E+05  0.000E+00  0.000E+00  0.000E+00  3.88804E+01  1.645E-01  2.000E+01  2.000E+04  2.107E-02
   1   14   22     1    22    1.2365E+05  5.0937E+03   1.1856E+05  0.000E+00  0.000E+00  0.000E+00  3.84009E+01  1.623E-01  2.000E+01  2.000E+04  2.547E-01
   1    9   30     2     1    5.0000E+04 -9.3902E+02   5.0939E+04  0.000E+00  0.000E+00  0.000E+00  4.02415E+01  1.165E-01  2.000E+01  2.000E+04 -4.695E-02
   1    9   29     2     2    5.0939E+04 -1.2268E+03   5.2166E+04  0.000E+00  0.000E+00  0.000E+00  3.99930E+01  1.180E-01  2.000E+01  2.000E+04 -6.134E-02
   1    9   28     2     3    5.2166E+04 -1.4561E+03   5.3622E+04  0.000E+00  0.000E+00  0.000E+00  3.97448E+01  1.198E-01  2.000E+01  2.000E+04 -7.281E-02
   1    9   27     2     4    5.3622E+04 -2.6819E+03   5.6304E+04  0.000E+00  0.000E+00  0.000E+00  3.94976E+01  1.226E-01  2.000E+01  2.000E+04 -1.341E-01
   1   10   26     2     5    5.6304E+04 -1.8811E+03   5.8185E+04  0.000E+00  0.000E+00  0.000E+00  3.92507E+01  1.257E-01  2.000E+01  2.000E+04 -9.406E-02
   1   11   25     2     6    5.8185E+04 -1.6379E+03   5.9823E+04  0.000E+00  0.000E+00  0.000E+00  3.90030E+01  1.280E-01  2.000E+01  2.000E+04 -8.190E-02
   1   12   24     2     7    5.9823E+04 -1.6325E+03   6.1455E+04  0.000E+00  0.000E+00  0.000E+00  3.87551E+01  1.301E-01  2.000E+01  2.000E+04 -8.163E-02
   1   13   23     2     8    6.1455E+04 -3.2338E+02   6.1779E+04  0.000E+00  0.000E+00  0.000E+00  3.85063E+01  1.313E-01  2.000E+01  2.000E+04 -1.617E-02
   1   14   22     2     9    6.1779E+04  2.1787E+03   5.9600E+04  0.000E+00  0.000E+00  0.000E+00  3.82551E+01  1.301E-01  2.000E+01  2.000E+04  1.089E-01
   1   14   22     3     1    1.7816E+05 -8.3708E+03   1.8653E+05  0.000E+00  0.000E+00  0.000E+00  3.77277E+01  1.721E-01  2.000E+01  2.000E+04 -4.185E-01
   1   15   23     3     2    1.8653E+05 -3.1026E+02   1.8684E+05  0.000E+00  0.000E+00  0.000E+00  3.68412E+01  1.746E-01  2.000E+01  2.000E+04 -1.551E-02
   1   15   24     3     3    1.8684E+05 -3.0885E+02   1.8715E+05  0.000E+00  0.000E+00  0.000E+00  3.59525E+01  1.747E-01  2.000E+01  2.000E+04 -1.544E-02
   1   15   25     3     4    1.8715E+05 -3.3909E+02   1.8749E+05  0.000E+00  0.000E+00  0.000E+00  3.50638E+01  1.749E-01  2.000E+01  2.000E+04 -1.695E-02
   1   15   26     3     5    1.8749E+05 -4.3388E+02   1.8792E+05  0.000E+00  0.000E+00  0.000E+00  3.41751E+01  1.751E-01  2.000E+01  2.000E+04 -2.169E-02
   1   16   27     3     6    1.8792E+05 -4.6963E+02   1.8839E+05  0.000E+00  0.000E+00  0.000E+00  3.32865E+01  1.754E-01  2.000E+01  2.000E+04 -2.348E-02
   1   17   28     3     7    1.8839E+05 -1.8202E+03   1.9021E+05  0.000E+00  0.000E+00  0.000E+00  3.23983E+01  1.760E-01  2.000E+01  2.000E+04 -9.101E-02
   1   18   29     3     8    1.9021E+05 -3.0323E+03   1.9324E+05  0.000E+00  0.000E+00  0.000E+00  3.15107E+01  1.774E-01  2.000E+01  2.000E+04 -1.516E-01
   1   18   30     3     9    1.9324E+05 -3.3319E+03   1.9657E+05  0.000E+00  0.000E+00  0.000E+00  3.06236E+01  1.791E-01  2.000E+01  2.000E+04 -1.666E-01



1
              HEAD IN LAYER   1 AT END OF TIME STEP   1 IN STRESS PERIOD    6
  ---------------------------------------------------------------------------

          1      2      3      4      5      6      7      8      9     10
         11     12     13     14     15     16     17     18     19     20
         21     22     23     24     25     26     27     28     29     30
 .........................................................................
   1  ****** ****** ****** ****** ****** ****** ****** ****** ****** ******
      ****** ****** ****** ****** ****** ****** ****** ****** ****** ******
      ****** ****** ****** ****** ****** ****** ****** ****** ****** ******
   2  ****** ****** ****** ****** ****** ****** ****** ****** ****** ******
      ****** ****** ****** ****** ****** ****** ****** ****** ****** ******
      ****** ****** ****** ****** ****** ****** ****** ****** ****** ******
   3  ****** ****** ****** ****** ****** ****** ****** ****** ****** ******
      ****** ****** ****** ****** ****** ****** ****** ****** ****** ******
      ****** ****** ****** ****** ****** ****** ****** ****** ****** ******
   4  ****** ****** ****** ****** ****** ****** ****** ****** ****** ******
      ****** ****** ****** ****** ****** ****** ****** ****** ****** ******
      ****** ****** ****** ****** ****** ****** ****** ****** ****** ******
   5  ****** ****** ****** ****** ****** ****** ****** ****** ****** ******
      ****** ****** ****** ****** ****** ****** ****** ****** ****** ******
      ****** ****** ****** ****** ****** ****** ****** ****** ****** ******
   6  ****** ****** ****** ****** ****** ****** ****** ****** ****** ******
      ****** ****** ****** ****** ****** ****** ****** ****** ****** ******
      ****** ****** ****** ****** ****** ****** ****** ****** ****** ******
   7  ****** ****** ****** ****** ****** ****** ****** ****** ****** ******
      ****** ****** ****** ****** ****** ****** ****** ****** ****** ******
      ****** ****** ****** ****** ****** ****** ****** ****** ****** ******
   8  ****** ****** ****** ****** ****** ****** ****** ****** ****** ******
      ****** ****** ****** ****** ****** ****** ****** ****** ****** ******
      ****** ****** ****** ****** ****** ****** ****** ****** ****** ******
   9  ****** ****** ****** ****** ****** ****** ****** ****** ****** ******
      ****** ****** ****** ****** ****** ****** ****** ****** ****** ******
      ****** ****** ****** ****** ****** ****** ****** ****** ****** ******
  10  ****** ****** ****** ****** ****** ****** ****** ****** ****** ******
      ****** ****** ****** ****** ****** ****** ****** ****** ****** ******
      ****** ****** ****** ****** ****** ****** ****** ****** ****** ******
  11  ****** ****** ****** ****** ****** ****** ****** ****** ****** ******
      ****** ****** ****** ****** ****** ****** ****** ****** ****** ******
      ****** ****** ****** ****** ****** ****** ****** ****** ****** ******
  12  ****** ****** ****** ****** ****** ****** ****** ****** ****** ******
      ****** ****** ****** ****** ****** ****** ****** ****** ****** ******
      ****** ****** ****** ****** ****** ****** ****** ****** ****** ******
  13  ****** ****** ****** ****** ****** ****** ****** ****** ****** ******
      ****** ****** ****** ****** ****** ****** ****** ****** ****** ******
      ****** ****** ****** ****** ****** ****** ****** ****** ****** ******
  14  ****** ****** ****** ****** ****** ****** ****** ****** ****** ******
      ****** ****** ****** ****** ****** ****** ****** ****** ****** ******
      ****** ****** ****** ****** ****** ****** ****** ****** ****** ******
  15  ****** ****** ****** ****** ****** ****** ****** ****** ****** ******
      ****** ****** ****** ****** ****** ****** ****** ****** ****** ******
      ****** ****** ****** ****** ****** ****** ****** ****** ****** ******
  16  ****** ****** ****** ****** ****** ****** ****** ****** ****** ******
      ****** ****** ****** ****** ****** ****** ****** ****** ****** ******
      ****** ****** ****** ****** ****** ****** ****** ****** ****** ******
  17  ****** ****** ****** ****** ****** ****** ****** ****** ****** ******
      ****** ****** ****** ****** ****** ****** ****** ****** ****** ******
      ****** ****** ****** ****** ****** ****** ****** ****** ****** ******
  18  ****** ****** ****** ****** ****** ****** ****** ****** ****** ******
      ****** ****** ****** ****** ****** ****** ****** ****** ****** ******
      ****** ****** ****** ****** ****** ****** ****** ****** ****** ******
  19  ****** ****** ****** ****** ****** ****** ****** ****** ****** ******
      ****** ****** ****** ****** ****** ****** ****** ****** ****** ******
      ****** ****** ****** ****** ****** ****** ****** ****** ****** ******
  20  ****** ****** ****** ****** ****** ****** ****** ****** ****** ******
      ****** ****** ****** ****** ****** ****** ****** ****** ****** ******
      ****** ****** ****** ****** ****** ****** ****** ****** ****** ******
  21  ****** ****** ****** ****** ****** ****** ****** ****** ****** ******
      ****** ****** ****** ****** ****** ****** ****** ****** ****** ******
      ****** ****** ****** ****** ****** ****** ****** ****** ****** ******
  22  ****** ****** ****** ****** ****** ****** ****** ****** ****** ******
      ****** ****** ****** ****** ****** ****** ****** ****** ****** ******
      ****** ****** ****** ****** ****** ****** ****** ****** ****** ******
  23  ****** ****** ****** ****** ****** ****** ****** ****** ****** ******
      ****** ****** ****** ****** ****** ****** ****** ****** ****** ******
      ****** ****** ****** ****** ****** ****** ****** ****** ****** ******
  24  ****** ****** ****** ****** ****** ****** ****** ****** ****** ******
      ****** ****** ****** ****** ****** ****** ****** ****** ****** ******
      ****** ****** ****** ****** ****** ****** ****** ****** ****** ******
  25  ****** ****** ****** ****** ****** ****** ****** ****** ****** ******
      ****** ****** ****** ****** ****** ****** ****** ****** ****** ******
      ****** ****** ****** ****** ****** ****** ****** ****** ****** ******

 HEAD WILL BE SAVED ON UNIT   51 AT END OF TIME STEP    1, STRESS PERIOD    6
1
  VOLUMETRIC BUDGET FOR ENTIRE MODEL AT END OF TIME STEP    1, STRESS PERIOD   6
  ------------------------------------------------------------------------------

     CUMULATIVE VOLUMES      L**3       RATES FOR THIS TIME STEP      L**3/T
     ------------------                 ------------------------

           IN:                                      IN:
           ---                                      ---
             STORAGE =    32481344.4045               STORAGE =          34.6602
       CONSTANT HEAD =    13826744.1185         CONSTANT HEAD =       31097.6939
               WELLS =           0.0000                 WELLS =           0.0000
            RECHARGE =    15097200.0000              RECHARGE =       55200.0000
      STREAM LEAKAGE =     3796174.4700        STREAM LEAKAGE =        7693.8297

            TOTAL IN =    65201462.9931              TOTAL IN =       94026.1839

          OUT:                                     OUT:
          ----                                     ----
             STORAGE =      708837.0150               STORAGE =        7776.4213
       CONSTANT HEAD =           0.0000         CONSTANT HEAD =           0.0000
               WELLS =    17526272.6410                 WELLS =       31982.2493
            RECHARGE =           0.0000              RECHARGE =           0.0000
      STREAM LEAKAGE =    46966355.4172        STREAM LEAKAGE =       54267.5105

           TOTAL OUT =    65201465.0732             TOTAL OUT =       94026.1811

            IN - OUT =          -2.0801              IN - OUT =       2.8155E-03

 PERCENT DISCREPANCY =          -0.00     PERCENT DISCREPANCY =           0.00






         TIME SUMMARY AT END OF TIME STEP    1 IN STRESS PERIOD    6
                    SECONDS     MINUTES      HOURS       DAYS        YEARS
                    -----------------------------------------------------------
   TIME STEP LENGTH 7.86240E+06 1.31040E+05  2184.0      91.000     0.24914    
 STRESS PERIOD TIME 7.86240E+06 1.31040E+05  2184.0      91.000     0.24914    
         TOTAL TIME 4.73472E+07 7.89120E+05  13152.      548.00      1.5003    
1
1
                            STRESS PERIOD NO.    7, LENGTH =   91.00000    
                            -----------------------------------------------

                              NUMBER OF TIME STEPS =     1

                               MULTIPLIER FOR DELT =     1.500

                            INITIAL TIME STEP SIZE =   91.00000    

 WELL NO.  LAYER   ROW   COL   STRESS RATE         
 --------------------------------------------------
      1      1      5     13      -7278.    
      2      1      9     16      -9144.    
      3      1     16     19      -7533.    
      4      1     18     19      -8028.    

      4 WELLS

                 RECHARGE =   0.00000    

 REUSING STREAM SEGMENT DATA FROM LAST STRESS PERIOD
 
 SOLVING FOR HEAD 


     7 CALLS TO PCG ROUTINE FOR TIME STEP   1 IN STRESS PERIOD    7
    26 TOTAL ITERATIONS

 OUTPUT CONTROL FOR STRESS PERIOD    7   TIME STEP    1
    SAVE BUDGET
    SAVE HEAD FOR ALL LAYERS
    PRINT HEAD FOR ALL LAYERS
 UBDSV2 SAVING "STREAMFLOW OUT  " ON UNIT  50 AT TIME STEP  1, STRESS PERIOD   7



 STREAM LISTING     PERIOD      7   STEP        1

 LAYER ROW COL. STREAM  RCH.  FLOW INTO     FLOW TO   FLOW OUT OF   OVRLND.     DIRECT     STREAM       STREAM     STREAM     STREAM   STREAMBED  STREAMBED
                SEG.NO.  NO.  STRM. RCH.    AQUIFER    STRM. RCH.    RUNOFF     PRECIP       ET          HEAD       DEPTH      WIDTH   CONDCTNC.   GRADIENT

   1   13    1     1     1    1.0000E+05 -1.4850E+03   1.0149E+05  0.000E+00  0.000E+00  0.000E+00  4.84067E+01  1.453E-01  2.000E+01  2.000E+04 -7.425E-02
   1   13    2     1     2    1.0149E+05 -2.4269E+03   1.0391E+05  0.000E+00  0.000E+00  0.000E+00  4.79311E+01  1.470E-01  2.000E+01  2.000E+04 -1.213E-01
   1   14    3     1     3    1.0391E+05 -3.7746E+02   1.0429E+05  0.000E+00  0.000E+00  0.000E+00  4.74550E+01  1.482E-01  2.000E+01  2.000E+04 -1.887E-02
   1   15    4     1     4    1.0429E+05 -3.4977E+02   1.0464E+05  0.000E+00  0.000E+00  0.000E+00  4.69780E+01  1.485E-01  2.000E+01  2.000E+04 -1.749E-02
   1   16    5     1     5    1.0464E+05 -1.3796E+03   1.0602E+05  0.000E+00  0.000E+00  0.000E+00  4.65015E+01  1.492E-01  2.000E+01  2.000E+04 -6.898E-02
   1   16    6     1     6    1.0602E+05 -8.6600E+02   1.0688E+05  0.000E+00  0.000E+00  0.000E+00  4.60252E+01  1.502E-01  2.000E+01  2.000E+04 -4.330E-02
   1   16    7     1     7    1.0688E+05 -8.3686E+02   1.0772E+05  0.000E+00  0.000E+00  0.000E+00  4.55486E+01  1.509E-01  2.000E+01  2.000E+04 -4.184E-02
   1   16    8     1     8    1.0772E+05 -8.0932E+02   1.0853E+05  0.000E+00  0.000E+00  0.000E+00  4.50720E+01  1.516E-01  2.000E+01  2.000E+04 -4.047E-02
   1   16    9     1     9    1.0853E+05 -7.6558E+02   1.0930E+05  0.000E+00  0.000E+00  0.000E+00  4.45954E+01  1.523E-01  2.000E+01  2.000E+04 -3.828E-02
   1   16   10     1    10    1.0930E+05 -7.0004E+02   1.1000E+05  0.000E+00  0.000E+00  0.000E+00  4.41188E+01  1.529E-01  2.000E+01  2.000E+04 -3.500E-02
   1   16   11     1    11    1.1000E+05 -6.0940E+02   1.1061E+05  0.000E+00  0.000E+00  0.000E+00  4.36421E+01  1.534E-01  2.000E+01  2.000E+04 -3.047E-02
   1   16   12     1    12    1.1061E+05 -6.6999E+02   1.1128E+05  0.000E+00  0.000E+00  0.000E+00  4.31653E+01  1.539E-01  2.000E+01  2.000E+04 -3.350E-02
   1   15   13     1    13    1.1128E+05 -2.6865E+02   1.1154E+05  0.000E+00  0.000E+00  0.000E+00  4.26884E+01  1.543E-01  2.000E+01  2.000E+04 -1.343E-02
   1   14   14     1    14    1.1154E+05 -1.7607E+02   1.1172E+05  0.000E+00  0.000E+00  0.000E+00  4.22113E+01  1.545E-01  2.000E+01  2.000E+04 -8.804E-03
   1   13   15     1    15    1.1172E+05 -1.0365E+02   1.1182E+05  0.000E+00  0.000E+00  0.000E+00  4.17342E+01  1.546E-01  2.000E+01  2.000E+04 -5.182E-03
   1   12   16     1    16    1.1182E+05 -5.8762E+01   1.1188E+05  0.000E+00  0.000E+00  0.000E+00  4.12570E+01  1.547E-01  2.000E+01  2.000E+04 -2.938E-03
   1   12   17     1    17    1.1188E+05  1.0844E+02   1.1177E+05  0.000E+00  0.000E+00  0.000E+00  4.07797E+01  1.547E-01  2.000E+01  2.000E+04  5.422E-03
   1   12   18     1    18    1.1177E+05 -3.8753E+01   1.1181E+05  0.000E+00  0.000E+00  0.000E+00  4.03024E+01  1.547E-01  2.000E+01  2.000E+04 -1.938E-03
   1   12   19     1    19    1.1181E+05 -6.5485E+02   1.1247E+05  0.000E+00  0.000E+00  0.000E+00  3.98254E+01  1.549E-01  2.000E+01  2.000E+04 -3.274E-02
   1   13   20     1    20    1.1247E+05  2.2142E+02   1.1225E+05  0.000E+00  0.000E+00  0.000E+00  3.93483E+01  1.551E-01  2.000E+01  2.000E+04  1.107E-02
   1   14   21     1    21    1.1225E+05  1.0889E+03   1.1116E+05  0.000E+00  0.000E+00  0.000E+00  3.88705E+01  1.546E-01  2.000E+01  2.000E+04  5.445E-02
   1   14   22     1    22    1.1116E+05  5.2484E+03   1.0591E+05  0.000E+00  0.000E+00  0.000E+00  3.83906E+01  1.519E-01  2.000E+01  2.000E+04  2.624E-01
   1    9   30     2     1    5.0000E+04 -4.2357E+02   5.0424E+04  0.000E+00  0.000E+00  0.000E+00  4.02412E+01  1.162E-01  2.000E+01  2.000E+04 -2.118E-02
   1    9   29     2     2    5.0424E+04 -7.1296E+02   5.1137E+04  0.000E+00  0.000E+00  0.000E+00  3.99919E+01  1.169E-01  2.000E+01  2.000E+04 -3.565E-02
   1    9   28     2     3    5.1137E+04 -9.4042E+02   5.2077E+04  0.000E+00  0.000E+00  0.000E+00  3.97431E+01  1.181E-01  2.000E+01  2.000E+04 -4.702E-02
   1    9   27     2     4    5.2077E+04 -1.9789E+03   5.4056E+04  0.000E+00  0.000E+00  0.000E+00  3.94951E+01  1.201E-01  2.000E+01  2.000E+04 -9.895E-02
   1   10   26     2     5    5.4056E+04 -1.1771E+03   5.5233E+04  0.000E+00  0.000E+00  0.000E+00  3.92472E+01  1.222E-01  2.000E+01  2.000E+04 -5.885E-02
   1   11   25     2     6    5.5233E+04 -9.6268E+02   5.6196E+04  0.000E+00  0.000E+00  0.000E+00  3.89986E+01  1.236E-01  2.000E+01  2.000E+04 -4.813E-02
   1   12   24     2     7    5.6196E+04 -1.0164E+03   5.7212E+04  0.000E+00  0.000E+00  0.000E+00  3.87500E+01  1.250E-01  2.000E+01  2.000E+04 -5.082E-02
   1   13   23     2     8    5.7212E+04 -1.3073E+02   5.7343E+04  0.000E+00  0.000E+00  0.000E+00  3.85007E+01  1.257E-01  2.000E+01  2.000E+04 -6.536E-03
   1   14   22     2     9    5.7343E+04  2.4208E+03   5.4922E+04  0.000E+00  0.000E+00  0.000E+00  3.82492E+01  1.242E-01  2.000E+01  2.000E+04  1.210E-01
   1   14   22     3     1    1.6083E+05 -8.2106E+03   1.6904E+05  0.000E+00  0.000E+00  0.000E+00  3.77176E+01  1.621E-01  2.000E+01  2.000E+04 -4.105E-01
   1   15   23     3     2    1.6904E+05 -1.0259E+02   1.6914E+05  0.000E+00  0.000E+00  0.000E+00  3.68312E+01  1.645E-01  2.000E+01  2.000E+04 -5.130E-03
   1   15   24     3     3    1.6914E+05 -1.3453E+02   1.6928E+05  0.000E+00  0.000E+00  0.000E+00  3.59424E+01  1.646E-01  2.000E+01  2.000E+04 -6.726E-03
   1   15   25     3     4    1.6928E+05 -1.6180E+02   1.6944E+05  0.000E+00  0.000E+00  0.000E+00  3.50535E+01  1.647E-01  2.000E+01  2.000E+04 -8.090E-03
   1   15   26     3     5    1.6944E+05 -2.3232E+02   1.6967E+05  0.000E+00  0.000E+00  0.000E+00  3.41648E+01  1.648E-01  2.000E+01  2.000E+04 -1.162E-02
   1   16   27     3     6    1.6967E+05 -2.3662E+02   1.6991E+05  0.000E+00  0.000E+00  0.000E+00  3.32760E+01  1.649E-01  2.000E+01  2.000E+04 -1.183E-02
   1   17   28     3     7    1.6991E+05 -1.1764E+03   1.7109E+05  0.000E+00  0.000E+00  0.000E+00  3.23875E+01  1.653E-01  2.000E+01  2.000E+04 -5.882E-02
   1   18   29     3     8    1.7109E+05 -2.3411E+03   1.7343E+05  0.000E+00  0.000E+00  0.000E+00  3.14997E+01  1.663E-01  2.000E+01  2.000E+04 -1.171E-01
   1   18   30     3     9    1.7343E+05 -2.8004E+03   1.7623E+05  0.000E+00  0.000E+00  0.000E+00  3.06123E+01  1.678E-01  2.000E+01  2.000E+04 -1.400E-01



1
              HEAD IN LAYER   1 AT END OF TIME STEP   1 IN STRESS PERIOD    7
  ---------------------------------------------------------------------------

          1      2      3      4      5      6      7      8      9     10
         11     12     13     14     15     16     17     18     19     20
         21     22     23     24     25     26     27     28     29     30
 .........................................................................
   1  ****** ****** ****** ****** ****** ****** ****** ****** ****** ******
      ****** ****** ****** ****** ****** ****** ****** ****** ****** ******
      ****** ****** ****** ****** ****** ****** ****** ****** ****** ******
   2  ****** ****** ****** ****** ****** ****** ****** ****** ****** ******
      ****** ****** ****** ****** ****** ****** ****** ****** ****** ******
      ****** ****** ****** ****** ****** ****** ****** ****** ****** ******
   3  ****** ****** ****** ****** ****** ****** ****** ****** ****** ******
      ****** ****** ****** ****** ****** ****** ****** ****** ****** ******
      ****** ****** ****** ****** ****** ****** ****** ****** ****** ******
   4  ****** ****** ****** ****** ****** ****** ****** ****** ****** ******
      ****** ****** ****** ****** ****** ****** ****** ****** ****** ******
      ****** ****** ****** ****** ****** ****** ****** ****** ****** ******
   5  ****** ****** ****** ****** ****** ****** ****** ****** ****** ******
      ****** ****** ****** ****** ****** ****** ****** ****** ****** ******
      ****** ****** ****** ****** ****** ****** ****** ****** ****** ******
   6  ****** ****** ****** ****** ****** ****** ****** ****** ****** ******
      ****** ****** ****** ****** ****** ****** ****** ****** ****** ******
      ****** ****** ****** ****** ****** ****** ****** ****** ****** ******
   7  ****** ****** ****** ****** ****** ****** ****** ****** ****** ******
      ****** ****** ****** ****** ****** ****** ****** ****** ****** ******
      ****** ****** ****** ****** ****** ****** ****** ****** ****** ******
   8  ****** ****** ****** ****** ****** ****** ****** ****** ****** ******
      ****** ****** ****** ****** ****** ****** ****** ****** ****** ******
      ****** ****** ****** ****** ****** ****** ****** ****** ****** ******
   9  ****** ****** ****** ****** ****** ****** ****** ****** ****** ******
      ****** ****** ****** ****** ****** ****** ****** ****** ****** ******
      ****** ****** ****** ****** ****** ****** ****** ****** ****** ******
  10  ****** ****** ****** ****** ****** ****** ****** ****** ****** ******
      ****** ****** ****** ****** ****** ****** ****** ****** ****** ******
      ****** ****** ****** ****** ****** ****** ****** ****** ****** ******
  11  ****** ****** ****** ****** ****** ****** ****** ****** ****** ******
      ****** ****** ****** ****** ****** ****** ****** ****** ****** ******
      ****** ****** ****** ****** ****** ****** ****** ****** ****** ******
  12  ****** ****** ****** ****** ****** ****** ****** ****** ****** ******
      ****** ****** ****** ****** ****** ****** ****** ****** ****** ******
      ****** ****** ****** ****** ****** ****** ****** ****** ****** ******
  13  ****** ****** ****** ****** ****** ****** ****** ****** ****** ******
      ****** ****** ****** ****** ****** ****** ****** ****** ****** ******
      ****** ****** ****** ****** ****** ****** ****** ****** ****** ******
  14  ****** ****** ****** ****** ****** ****** ****** ****** ****** ******
      ****** ****** ****** ****** ****** ****** ****** ****** ****** ******
      ****** ****** ****** ****** ****** ****** ****** ****** ****** ******
  15  ****** ****** ****** ****** ****** ****** ****** ****** ****** ******
      ****** ****** ****** ****** ****** ****** ****** ****** ****** ******
      ****** ****** ****** ****** ****** ****** ****** ****** ****** ******
  16  ****** ****** ****** ****** ****** ****** ****** ****** ****** ******
      ****** ****** ****** ****** ****** ****** ****** ****** ****** ******
      ****** ****** ****** ****** ****** ****** ****** ****** ****** ******
  17  ****** ****** ****** ****** ****** ****** ****** ****** ****** ******
      ****** ****** ****** ****** ****** ****** ****** ****** ****** ******
      ****** ****** ****** ****** ****** ****** ****** ****** ****** ******
  18  ****** ****** ****** ****** ****** ****** ****** ****** ****** ******
      ****** ****** ****** ****** ****** ****** ****** ****** ****** ******
      ****** ****** ****** ****** ****** ****** ****** ****** ****** ******
  19  ****** ****** ****** ****** ****** ****** ****** ****** ****** ******
      ****** ****** ****** ****** ****** ****** ****** ****** ****** ******
      ****** ****** ****** ****** ****** ****** ****** ****** ****** ******
  20  ****** ****** ****** ****** ****** ****** ****** ****** ****** ******
      ****** ****** ****** ****** ****** ****** ****** ****** ****** ******
      ****** ****** ****** ****** ****** ****** ****** ****** ****** ******
  21  ****** ****** ****** ****** ****** ****** ****** ****** ****** ******
      ****** ****** ****** ****** ****** ****** ****** ****** ****** ******
      ****** ****** ****** ****** ****** ****** ****** ****** ****** ******
  22  ****** ****** ****** ****** ****** ****** ****** ****** ****** ******
      ****** ****** ****** ****** ****** ****** ****** ****** ****** ******
      ****** ****** ****** ****** ****** ****** ****** ****** ****** ******
  23  ****** ****** ****** ****** ****** ****** ****** ****** ****** ******
      ****** ****** ****** ****** ****** ****** ****** ****** ****** ******
      ****** ****** ****** ****** ****** ****** ****** ****** ****** ******
  24  ****** ****** ****** ****** ****** ****** ****** ****** ****** ******
      ****** ****** ****** ****** ****** ****** ****** ****** ****** ******
      ****** ****** ****** ****** ****** ****** ****** ****** ****** ******
  25  ****** ****** ****** ****** ****** ****** ****** ****** ****** ******
      ****** ****** ****** ****** ****** ****** ****** ****** ****** ******
      ****** ****** ****** ****** ****** ****** ****** ****** ****** ******

 HEAD WILL BE SAVED ON UNIT   51 AT END OF TIME STEP    1, STRESS PERIOD    7
1
  VOLUMETRIC BUDGET FOR ENTIRE MODEL AT END OF TIME STEP    1, STRESS PERIOD   7
  ------------------------------------------------------------------------------

     CUMULATIVE VOLUMES      L**3       RATES FOR THIS TIME STEP      L**3/T
     ------------------                 ------------------------

           IN:                                      IN:
           ---                                      ---
             STORAGE =    34582947.8264               STORAGE =       23094.5431
       CONSTANT HEAD =    17022255.1578         CONSTANT HEAD =       35115.5059
               WELLS =           0.0000                 WELLS =           0.0000
            RECHARGE =    15097200.0000              RECHARGE =           0.0000
      STREAM LEAKAGE =     4623187.1410        STREAM LEAKAGE =        9088.0513

            TOTAL IN =    71325590.1252              TOTAL IN =       67298.1004

          OUT:                                     OUT:
          ----                                     ----
             STORAGE =      708837.0150               STORAGE =           0.0000
       CONSTANT HEAD =           0.0000         CONSTANT HEAD =           0.0000
               WELLS =    20436657.3313                 WELLS =       31982.2493
            RECHARGE =           0.0000              RECHARGE =           0.0000
      STREAM LEAKAGE =    50180098.3675        STREAM LEAKAGE =       35315.8566

           TOTAL OUT =    71325592.7138             TOTAL OUT =       67298.1059

            IN - OUT =          -2.5887              IN - OUT =      -5.5884E-03

 PERCENT DISCREPANCY =          -0.00     PERCENT DISCREPANCY =          -0.00






         TIME SUMMARY AT END OF TIME STEP    1 IN STRESS PERIOD    7
                    SECONDS     MINUTES      HOURS       DAYS        YEARS
                    -----------------------------------------------------------
   TIME STEP LENGTH 7.86240E+06 1.31040E+05  2184.0      91.000     0.24914    
 STRESS PERIOD TIME 7.86240E+06 1.31040E+05  2184.0      91.000     0.24914    
         TOTAL TIME 5.52096E+07 9.20160E+05  15336.      639.00      1.7495    
1
1
                            STRESS PERIOD NO.    8, LENGTH =   91.00000    
                            -----------------------------------------------

                              NUMBER OF TIME STEPS =     1

                               MULTIPLIER FOR DELT =     1.500

                            INITIAL TIME STEP SIZE =   91.00000    

 WELL NO.  LAYER   ROW   COL   STRESS RATE         
 --------------------------------------------------
      1      1      5     13      -7278.    
      2      1      9     16      -9144.    
      3      1     16     19      -7533.    
      4      1     18     19      -8028.    

      4 WELLS

                 RECHARGE =  1.000000E-03

 REUSING STREAM SEGMENT DATA FROM LAST STRESS PERIOD
 
 SOLVING FOR HEAD 


     6 CALLS TO PCG ROUTINE FOR TIME STEP   1 IN STRESS PERIOD    8
    22 TOTAL ITERATIONS

 OUTPUT CONTROL FOR STRESS PERIOD    8   TIME STEP    1
    SAVE BUDGET
    SAVE HEAD FOR ALL LAYERS
    PRINT HEAD FOR ALL LAYERS
 UBDSV2 SAVING "STREAMFLOW OUT  " ON UNIT  50 AT TIME STEP  1, STRESS PERIOD   8



 STREAM LISTING     PERIOD      8   STEP        1

 LAYER ROW COL. STREAM  RCH.  FLOW INTO     FLOW TO   FLOW OUT OF   OVRLND.     DIRECT     STREAM       STREAM     STREAM     STREAM   STREAMBED  STREAMBED
                SEG.NO.  NO.  STRM. RCH.    AQUIFER    STRM. RCH.    RUNOFF     PRECIP       ET          HEAD       DEPTH      WIDTH   CONDCTNC.   GRADIENT

   1   13    1     1     1    1.0000E+05 -1.5438E+03   1.0154E+05  0.000E+00  0.000E+00  0.000E+00  4.84067E+01  1.453E-01  2.000E+01  2.000E+04 -7.719E-02
   1   13    2     1     2    1.0154E+05 -2.4828E+03   1.0403E+05  0.000E+00  0.000E+00  0.000E+00  4.79311E+01  1.471E-01  2.000E+01  2.000E+04 -1.241E-01
   1   14    3     1     3    1.0403E+05 -4.3902E+02   1.0447E+05  0.000E+00  0.000E+00  0.000E+00  4.74551E+01  1.483E-01  2.000E+01  2.000E+04 -2.195E-02
   1   15    4     1     4    1.0447E+05 -4.1643E+02   1.0488E+05  0.000E+00  0.000E+00  0.000E+00  4.69782E+01  1.487E-01  2.000E+01  2.000E+04 -2.082E-02
   1   16    5     1     5    1.0488E+05 -1.5510E+03   1.0643E+05  0.000E+00  0.000E+00  0.000E+00  4.65018E+01  1.495E-01  2.000E+01  2.000E+04 -7.755E-02
   1   16    6     1     6    1.0643E+05 -9.7053E+02   1.0740E+05  0.000E+00  0.000E+00  0.000E+00  4.60256E+01  1.506E-01  2.000E+01  2.000E+04 -4.853E-02
   1   16    7     1     7    1.0740E+05 -9.3618E+02   1.0834E+05  0.000E+00  0.000E+00  0.000E+00  4.55491E+01  1.514E-01  2.000E+01  2.000E+04 -4.681E-02
   1   16    8     1     8    1.0834E+05 -9.0774E+02   1.0925E+05  0.000E+00  0.000E+00  0.000E+00  4.50726E+01  1.522E-01  2.000E+01  2.000E+04 -4.539E-02
   1   16    9     1     9    1.0925E+05 -8.6525E+02   1.1011E+05  0.000E+00  0.000E+00  0.000E+00  4.45961E+01  1.529E-01  2.000E+01  2.000E+04 -4.326E-02
   1   16   10     1    10    1.1011E+05 -8.0245E+02   1.1092E+05  0.000E+00  0.000E+00  0.000E+00  4.41195E+01  1.536E-01  2.000E+01  2.000E+04 -4.012E-02
   1   16   11     1    11    1.1092E+05 -7.1512E+02   1.1163E+05  0.000E+00  0.000E+00  0.000E+00  4.36429E+01  1.542E-01  2.000E+01  2.000E+04 -3.576E-02
   1   16   12     1    12    1.1163E+05 -8.2648E+02   1.1246E+05  0.000E+00  0.000E+00  0.000E+00  4.31662E+01  1.549E-01  2.000E+01  2.000E+04 -4.132E-02
   1   15   13     1    13    1.1246E+05 -4.2896E+02   1.1289E+05  0.000E+00  0.000E+00  0.000E+00  4.26895E+01  1.554E-01  2.000E+01  2.000E+04 -2.145E-02
   1   14   14     1    14    1.1289E+05 -3.2702E+02   1.1321E+05  0.000E+00  0.000E+00  0.000E+00  4.22125E+01  1.557E-01  2.000E+01  2.000E+04 -1.635E-02
   1   13   15     1    15    1.1321E+05 -2.3980E+02   1.1345E+05  0.000E+00  0.000E+00  0.000E+00  4.17355E+01  1.559E-01  2.000E+01  2.000E+04 -1.199E-02
   1   12   16     1    16    1.1345E+05 -1.5345E+02   1.1361E+05  0.000E+00  0.000E+00  0.000E+00  4.12584E+01  1.561E-01  2.000E+01  2.000E+04 -7.673E-03
   1   12   17     1    17    1.1361E+05  5.9460E+00   1.1360E+05  0.000E+00  0.000E+00  0.000E+00  4.07812E+01  1.562E-01  2.000E+01  2.000E+04  2.973E-04
   1   12   18     1    18    1.1360E+05 -1.4927E+02   1.1375E+05  0.000E+00  0.000E+00  0.000E+00  4.03039E+01  1.562E-01  2.000E+01  2.000E+04 -7.464E-03
   1   12   19     1    19    1.1375E+05 -7.9509E+02   1.1454E+05  0.000E+00  0.000E+00  0.000E+00  3.98271E+01  1.566E-01  2.000E+01  2.000E+04 -3.975E-02
   1   13   20     1    20    1.1454E+05  4.8297E+01   1.1450E+05  0.000E+00  0.000E+00  0.000E+00  3.93501E+01  1.569E-01  2.000E+01  2.000E+04  2.415E-03
   1   14   21     1    21    1.1450E+05  9.3464E+02   1.1356E+05  0.000E+00  0.000E+00  0.000E+00  3.88724E+01  1.565E-01  2.000E+01  2.000E+04  4.673E-02
   1   14   22     1    22    1.1356E+05  5.2019E+03   1.0836E+05  0.000E+00  0.000E+00  0.000E+00  3.83926E+01  1.540E-01  2.000E+01  2.000E+04  2.601E-01
   1    9   30     2     1    5.0000E+04 -5.8504E+02   5.0585E+04  0.000E+00  0.000E+00  0.000E+00  4.02413E+01  1.163E-01  2.000E+01  2.000E+04 -2.925E-02
   1    9   29     2     2    5.0585E+04 -8.7148E+02   5.1457E+04  0.000E+00  0.000E+00  0.000E+00  3.99923E+01  1.173E-01  2.000E+01  2.000E+04 -4.357E-02
   1    9   28     2     3    5.1457E+04 -1.0930E+03   5.2549E+04  0.000E+00  0.000E+00  0.000E+00  3.97436E+01  1.186E-01  2.000E+01  2.000E+04 -5.465E-02
   1    9   27     2     4    5.2549E+04 -2.1520E+03   5.4701E+04  0.000E+00  0.000E+00  0.000E+00  3.94958E+01  1.208E-01  2.000E+01  2.000E+04 -1.076E-01
   1   10   26     2     5    5.4701E+04 -1.3779E+03   5.6079E+04  0.000E+00  0.000E+00  0.000E+00  3.92482E+01  1.232E-01  2.000E+01  2.000E+04 -6.890E-02
   1   11   25     2     6    5.6079E+04 -1.1622E+03   5.7242E+04  0.000E+00  0.000E+00  0.000E+00  3.89999E+01  1.249E-01  2.000E+01  2.000E+04 -5.811E-02
   1   12   24     2     7    5.7242E+04 -1.1971E+03   5.8439E+04  0.000E+00  0.000E+00  0.000E+00  3.87514E+01  1.264E-01  2.000E+01  2.000E+04 -5.986E-02
   1   13   23     2     8    5.8439E+04 -2.0435E+02   5.8643E+04  0.000E+00  0.000E+00  0.000E+00  3.85024E+01  1.274E-01  2.000E+01  2.000E+04 -1.022E-02
   1   14   22     2     9    5.8643E+04  2.3688E+03   5.6274E+04  0.000E+00  0.000E+00  0.000E+00  3.82509E+01  1.259E-01  2.000E+01  2.000E+04  1.184E-01
   1   14   22     3     1    1.6463E+05 -8.2528E+03   1.7289E+05  0.000E+00  0.000E+00  0.000E+00  3.77199E+01  1.643E-01  2.000E+01  2.000E+04 -4.126E-01
   1   15   23     3     2    1.7289E+05 -1.6597E+02   1.7305E+05  0.000E+00  0.000E+00  0.000E+00  3.68334E+01  1.668E-01  2.000E+01  2.000E+04 -8.298E-03
   1   15   24     3     3    1.7305E+05 -1.9455E+02   1.7325E+05  0.000E+00  0.000E+00  0.000E+00  3.59446E+01  1.669E-01  2.000E+01  2.000E+04 -9.728E-03
   1   15   25     3     4    1.7325E+05 -2.2360E+02   1.7347E+05  0.000E+00  0.000E+00  0.000E+00  3.50559E+01  1.670E-01  2.000E+01  2.000E+04 -1.118E-02
   1   15   26     3     5    1.7347E+05 -3.0670E+02   1.7378E+05  0.000E+00  0.000E+00  0.000E+00  3.41671E+01  1.671E-01  2.000E+01  2.000E+04 -1.533E-02
   1   16   27     3     6    1.7378E+05 -3.1794E+02   1.7410E+05  0.000E+00  0.000E+00  0.000E+00  3.32784E+01  1.673E-01  2.000E+01  2.000E+04 -1.590E-02
   1   17   28     3     7    1.7410E+05 -1.3785E+03   1.7547E+05  0.000E+00  0.000E+00  0.000E+00  3.23900E+01  1.678E-01  2.000E+01  2.000E+04 -6.892E-02
   1   18   29     3     8    1.7547E+05 -2.5030E+03   1.7798E+05  0.000E+00  0.000E+00  0.000E+00  3.15023E+01  1.689E-01  2.000E+01  2.000E+04 -1.251E-01
   1   18   30     3     9    1.7798E+05 -2.9449E+03   1.8092E+05  0.000E+00  0.000E+00  0.000E+00  3.06149E+01  1.705E-01  2.000E+01  2.000E+04 -1.472E-01



1
              HEAD IN LAYER   1 AT END OF TIME STEP   1 IN STRESS PERIOD    8
  ---------------------------------------------------------------------------

          1      2      3      4      5      6      7      8      9     10
         11     12     13     14     15     16     17     18     19     20
         21     22     23     24     25     26     27     28     29     30
 .........................................................................
   1  ****** ****** ****** ****** ****** ****** ****** ****** ****** ******
      ****** ****** ****** ****** ****** ****** ****** ****** ****** ******
      ****** ****** ****** ****** ****** ****** ****** ****** ****** ******
   2  ****** ****** ****** ****** ****** ****** ****** ****** ****** ******
      ****** ****** ****** ****** ****** ****** ****** ****** ****** ******
      ****** ****** ****** ****** ****** ****** ****** ****** ****** ******
   3  ****** ****** ****** ****** ****** ****** ****** ****** ****** ******
      ****** ****** ****** ****** ****** ****** ****** ****** ****** ******
      ****** ****** ****** ****** ****** ****** ****** ****** ****** ******
   4  ****** ****** ****** ****** ****** ****** ****** ****** ****** ******
      ****** ****** ****** ****** ****** ****** ****** ****** ****** ******
      ****** ****** ****** ****** ****** ****** ****** ****** ****** ******
   5  ****** ****** ****** ****** ****** ****** ****** ****** ****** ******
      ****** ****** ****** ****** ****** ****** ****** ****** ****** ******
      ****** ****** ****** ****** ****** ****** ****** ****** ****** ******
   6  ****** ****** ****** ****** ****** ****** ****** ****** ****** ******
      ****** ****** ****** ****** ****** ****** ****** ****** ****** ******
      ****** ****** ****** ****** ****** ****** ****** ****** ****** ******
   7  ****** ****** ****** ****** ****** ****** ****** ****** ****** ******
      ****** ****** ****** ****** ****** ****** ****** ****** ****** ******
      ****** ****** ****** ****** ****** ****** ****** ****** ****** ******
   8  ****** ****** ****** ****** ****** ****** ****** ****** ****** ******
      ****** ****** ****** ****** ****** ****** ****** ****** ****** ******
      ****** ****** ****** ****** ****** ****** ****** ****** ****** ******
   9  ****** ****** ****** ****** ****** ****** ****** ****** ****** ******
      ****** ****** ****** ****** ****** ****** ****** ****** ****** ******
      ****** ****** ****** ****** ****** ****** ****** ****** ****** ******
  10  ****** ****** ****** ****** ****** ****** ****** ****** ****** ******
      ****** ****** ****** ****** ****** ****** ****** ****** ****** ******
      ****** ****** ****** ****** ****** ****** ****** ****** ****** ******
  11  ****** ****** ****** ****** ****** ****** ****** ****** ****** ******
      ****** ****** ****** ****** ****** ****** ****** ****** ****** ******
      ****** ****** ****** ****** ****** ****** ****** ****** ****** ******
  12  ****** ****** ****** ****** ****** ****** ****** ****** ****** ******
      ****** ****** ****** ****** ****** ****** ****** ****** ****** ******
      ****** ****** ****** ****** ****** ****** ****** ****** ****** ******
  13  ****** ****** ****** ****** ****** ****** ****** ****** ****** ******
      ****** ****** ****** ****** ****** ****** ****** ****** ****** ******
      ****** ****** ****** ****** ****** ****** ****** ****** ****** ******
  14  ****** ****** ****** ****** ****** ****** ****** ****** ****** ******
      ****** ****** ****** ****** ****** ****** ****** ****** ****** ******
      ****** ****** ****** ****** ****** ****** ****** ****** ****** ******
  15  ****** ****** ****** ****** ****** ****** ****** ****** ****** ******
      ****** ****** ****** ****** ****** ****** ****** ****** ****** ******
      ****** ****** ****** ****** ****** ****** ****** ****** ****** ******
  16  ****** ****** ****** ****** ****** ****** ****** ****** ****** ******
      ****** ****** ****** ****** ****** ****** ****** ****** ****** ******
      ****** ****** ****** ****** ****** ****** ****** ****** ****** ******
  17  ****** ****** ****** ****** ****** ****** ****** ****** ****** ******
      ****** ****** ****** ****** ****** ****** ****** ****** ****** ******
      ****** ****** ****** ****** ****** ****** ****** ****** ****** ******
  18  ****** ****** ****** ****** ****** ****** ****** ****** ****** ******
      ****** ****** ****** ****** ****** ****** ****** ****** ****** ******
      ****** ****** ****** ****** ****** ****** ****** ****** ****** ******
  19  ****** ****** ****** ****** ****** ****** ****** ****** ****** ******
      ****** ****** ****** ****** ****** ****** ****** ****** ****** ******
      ****** ****** ****** ****** ****** ****** ****** ****** ****** ******
  20  ****** ****** ****** ****** ****** ****** ****** ****** ****** ******
      ****** ****** ****** ****** ****** ****** ****** ****** ****** ******
      ****** ****** ****** ****** ****** ****** ****** ****** ****** ******
  21  ****** ****** ****** ****** ****** ****** ****** ****** ****** ******
      ****** ****** ****** ****** ****** ****** ****** ****** ****** ******
      ****** ****** ****** ****** ****** ****** ****** ****** ****** ******
  22  ****** ****** ****** ****** ****** ****** ****** ****** ****** ******
      ****** ****** ****** ****** ****** ****** ****** ****** ****** ******
      ****** ****** ****** ****** ****** ****** ****** ****** ****** ******
  23  ****** ****** ****** ****** ****** ****** ****** ****** ****** ******
      ****** ****** ****** ****** ****** ****** ****** ****** ****** ******
      ****** ****** ****** ****** ****** ****** ****** ****** ****** ******
  24  ****** ****** ****** ****** ****** ****** ****** ****** ****** ******
      ****** ****** ****** ****** ****** ****** ****** ****** ****** ******
      ****** ****** ****** ****** ****** ****** ****** ****** ****** ******
  25  ****** ****** ****** ****** ****** ****** ****** ****** ****** ******
      ****** ****** ****** ****** ****** ****** ****** ****** ****** ******
      ****** ****** ****** ****** ****** ****** ****** ****** ****** ******

 HEAD WILL BE SAVED ON UNIT   51 AT END OF TIME STEP    1, STRESS PERIOD    8
1
  VOLUMETRIC BUDGET FOR ENTIRE MODEL AT END OF TIME STEP    1, STRESS PERIOD   8
  ------------------------------------------------------------------------------

     CUMULATIVE VOLUMES      L**3       RATES FOR THIS TIME STEP      L**3/T
     ------------------                 ------------------------

           IN:                                      IN:
           ---                                      ---
             STORAGE =    34754415.2142               STORAGE =        1884.2570
       CONSTANT HEAD =    20196590.1124         CONSTANT HEAD =       34882.8017
               WELLS =           0.0000                 WELLS =           0.0000
            RECHARGE =    17608800.0000              RECHARGE =       27600.0000
      STREAM LEAKAGE =     5402109.3478        STREAM LEAKAGE =        8559.5847

            TOTAL IN =    77961914.6744              TOTAL IN =       72926.6434

          OUT:                                     OUT:
          ----                                     ----
             STORAGE =      841968.6925               STORAGE =        1462.9855
       CONSTANT HEAD =           0.0000         CONSTANT HEAD =           0.0000
               WELLS =    23347042.0217                 WELLS =       31982.2493
            RECHARGE =           0.0000              RECHARGE =           0.0000
      STREAM LEAKAGE =    53772905.8499        STREAM LEAKAGE =       39481.4009

           TOTAL OUT =    77961916.5641             TOTAL OUT =       72926.6357

            IN - OUT =          -1.8897              IN - OUT =       7.6806E-03

 PERCENT DISCREPANCY =          -0.00     PERCENT DISCREPANCY =           0.00






         TIME SUMMARY AT END OF TIME STEP    1 IN STRESS PERIOD    8
                    SECONDS     MINUTES      HOURS       DAYS        YEARS
                    -----------------------------------------------------------
   TIME STEP LENGTH 7.86240E+06 1.31040E+05  2184.0      91.000     0.24914    
 STRESS PERIOD TIME 7.86240E+06 1.31040E+05  2184.0      91.000     0.24914    
         TOTAL TIME 6.30720E+07 1.05120E+06  17520.      730.00      1.9986    
1
1
                            STRESS PERIOD NO.    9, LENGTH =   92.00000    
                            -----------------------------------------------

                              NUMBER OF TIME STEPS =     1

                               MULTIPLIER FOR DELT =     1.500

                            INITIAL TIME STEP SIZE =   92.00000    

 WELL NO.  LAYER   ROW   COL   STRESS RATE         
 --------------------------------------------------
      1      1      5     13      -7278.    
      2      1      9     16      -9144.    
      3      1     16     19      -7533.    
      4      1     18     19      -8028.    

      4 WELLS

                 RECHARGE =  5.000000E-04

 REUSING STREAM SEGMENT DATA FROM LAST STRESS PERIOD
 
 SOLVING FOR HEAD 


     6 CALLS TO PCG ROUTINE FOR TIME STEP   1 IN STRESS PERIOD    9
    23 TOTAL ITERATIONS

 OUTPUT CONTROL FOR STRESS PERIOD    9   TIME STEP    1
    SAVE BUDGET
    SAVE HEAD FOR ALL LAYERS
    PRINT HEAD FOR ALL LAYERS
 UBDSV2 SAVING "STREAMFLOW OUT  " ON UNIT  50 AT TIME STEP  1, STRESS PERIOD   9



 STREAM LISTING     PERIOD      9   STEP        1

 LAYER ROW COL. STREAM  RCH.  FLOW INTO     FLOW TO   FLOW OUT OF   OVRLND.     DIRECT     STREAM       STREAM     STREAM     STREAM   STREAMBED  STREAMBED
                SEG.NO.  NO.  STRM. RCH.    AQUIFER    STRM. RCH.    RUNOFF     PRECIP       ET          HEAD       DEPTH      WIDTH   CONDCTNC.   GRADIENT

   1   13    1     1     1    1.0000E+05 -1.3185E+03   1.0132E+05  0.000E+00  0.000E+00  0.000E+00  4.84066E+01  1.452E-01  2.000E+01  2.000E+04 -6.592E-02
   1   13    2     1     2    1.0132E+05 -2.2272E+03   1.0355E+05  0.000E+00  0.000E+00  0.000E+00  4.79308E+01  1.468E-01  2.000E+01  2.000E+04 -1.114E-01
   1   14    3     1     3    1.0355E+05 -3.6631E+02   1.0391E+05  0.000E+00  0.000E+00  0.000E+00  4.74547E+01  1.479E-01  2.000E+01  2.000E+04 -1.832E-02
   1   15    4     1     4    1.0391E+05 -3.4305E+02   1.0426E+05  0.000E+00  0.000E+00  0.000E+00  4.69777E+01  1.482E-01  2.000E+01  2.000E+04 -1.715E-02
   1   16    5     1     5    1.0426E+05 -1.3569E+03   1.0561E+05  0.000E+00  0.000E+00  0.000E+00  4.65012E+01  1.489E-01  2.000E+01  2.000E+04 -6.785E-02
   1   16    6     1     6    1.0561E+05 -8.4889E+02   1.0646E+05  0.000E+00  0.000E+00  0.000E+00  4.60248E+01  1.498E-01  2.000E+01  2.000E+04 -4.244E-02
   1   16    7     1     7    1.0646E+05 -8.1811E+02   1.0728E+05  0.000E+00  0.000E+00  0.000E+00  4.55483E+01  1.505E-01  2.000E+01  2.000E+04 -4.091E-02
   1   16    8     1     8    1.0728E+05 -7.9118E+02   1.0807E+05  0.000E+00  0.000E+00  0.000E+00  4.50717E+01  1.512E-01  2.000E+01  2.000E+04 -3.956E-02
   1   16    9     1     9    1.0807E+05 -7.5041E+02   1.0882E+05  0.000E+00  0.000E+00  0.000E+00  4.45950E+01  1.519E-01  2.000E+01  2.000E+04 -3.752E-02
   1   16   10     1    10    1.0882E+05 -6.8985E+02   1.0951E+05  0.000E+00  0.000E+00  0.000E+00  4.41184E+01  1.525E-01  2.000E+01  2.000E+04 -3.449E-02
   1   16   11     1    11    1.0951E+05 -6.0379E+02   1.1011E+05  0.000E+00  0.000E+00  0.000E+00  4.36416E+01  1.530E-01  2.000E+01  2.000E+04 -3.019E-02
   1   16   12     1    12    1.1011E+05 -6.3525E+02   1.1075E+05  0.000E+00  0.000E+00  0.000E+00  4.31649E+01  1.535E-01  2.000E+01  2.000E+04 -3.176E-02
   1   15   13     1    13    1.1075E+05 -2.1429E+02   1.1096E+05  0.000E+00  0.000E+00  0.000E+00  4.26880E+01  1.539E-01  2.000E+01  2.000E+04 -1.071E-02
   1   14   14     1    14    1.1096E+05 -9.7346E+01   1.1106E+05  0.000E+00  0.000E+00  0.000E+00  4.22108E+01  1.540E-01  2.000E+01  2.000E+04 -4.867E-03
   1   13   15     1    15    1.1106E+05 -3.0600E+00   1.1106E+05  0.000E+00  0.000E+00  0.000E+00  4.17336E+01  1.541E-01  2.000E+01  2.000E+04 -1.530E-04
   1   12   16     1    16    1.1106E+05  9.3663E+01   1.1097E+05  0.000E+00  0.000E+00  0.000E+00  4.12563E+01  1.540E-01  2.000E+01  2.000E+04  4.683E-03
   1   12   17     1    17    1.1097E+05  1.7395E+02   1.1080E+05  0.000E+00  0.000E+00  0.000E+00  4.07789E+01  1.539E-01  2.000E+01  2.000E+04  8.697E-03
   1   12   18     1    18    1.1080E+05  1.0402E+01   1.1079E+05  0.000E+00  0.000E+00  0.000E+00  4.03016E+01  1.538E-01  2.000E+01  2.000E+04  5.201E-04
   1   12   19     1    19    1.1079E+05 -6.0314E+02   1.1139E+05  0.000E+00  0.000E+00  0.000E+00  3.98245E+01  1.541E-01  2.000E+01  2.000E+04 -3.016E-02
   1   13   20     1    20    1.1139E+05  2.2454E+02   1.1116E+05  0.000E+00  0.000E+00  0.000E+00  3.93474E+01  1.542E-01  2.000E+01  2.000E+04  1.123E-02
   1   14   21     1    21    1.1116E+05  1.1083E+03   1.1006E+05  0.000E+00  0.000E+00  0.000E+00  3.88696E+01  1.537E-01  2.000E+01  2.000E+04  5.541E-02
   1   14   22     1    22    1.1006E+05  5.2391E+03   1.0482E+05  0.000E+00  0.000E+00  0.000E+00  3.83897E+01  1.510E-01  2.000E+01  2.000E+04  2.620E-01
   1    9   30     2     1    5.0000E+04 -4.6072E+02   5.0461E+04  0.000E+00  0.000E+00  0.000E+00  4.02412E+01  1.162E-01  2.000E+01  2.000E+04 -2.304E-02
   1    9   29     2     2    5.0461E+04 -7.4685E+02   5.1208E+04  0.000E+00  0.000E+00  0.000E+00  3.99920E+01  1.170E-01  2.000E+01  2.000E+04 -3.734E-02
   1    9   28     2     3    5.1208E+04 -9.6620E+02   5.2174E+04  0.000E+00  0.000E+00  0.000E+00  3.97432E+01  1.182E-01  2.000E+01  2.000E+04 -4.831E-02
   1    9   27     2     4    5.2174E+04 -1.9726E+03   5.4146E+04  0.000E+00  0.000E+00  0.000E+00  3.94952E+01  1.202E-01  2.000E+01  2.000E+04 -9.863E-02
   1   10   26     2     5    5.4146E+04 -1.2018E+03   5.5348E+04  0.000E+00  0.000E+00  0.000E+00  3.92473E+01  1.223E-01  2.000E+01  2.000E+04 -6.009E-02
   1   11   25     2     6    5.5348E+04 -9.9369E+02   5.6342E+04  0.000E+00  0.000E+00  0.000E+00  3.89988E+01  1.238E-01  2.000E+01  2.000E+04 -4.968E-02
   1   12   24     2     7    5.6342E+04 -1.0419E+03   5.7384E+04  0.000E+00  0.000E+00  0.000E+00  3.87502E+01  1.252E-01  2.000E+01  2.000E+04 -5.210E-02
   1   13   23     2     8    5.7384E+04 -1.5685E+02   5.7541E+04  0.000E+00  0.000E+00  0.000E+00  3.85010E+01  1.260E-01  2.000E+01  2.000E+04 -7.842E-03
   1   14   22     2     9    5.7541E+04  2.4351E+03   5.5106E+04  0.000E+00  0.000E+00  0.000E+00  3.82494E+01  1.244E-01  2.000E+01  2.000E+04  1.218E-01
   1   14   22     3     1    1.5992E+05 -8.2122E+03   1.6814E+05  0.000E+00  0.000E+00  0.000E+00  3.77171E+01  1.615E-01  2.000E+01  2.000E+04 -4.106E-01
   1   15   23     3     2    1.6814E+05 -1.1302E+02   1.6825E+05  0.000E+00  0.000E+00  0.000E+00  3.68306E+01  1.640E-01  2.000E+01  2.000E+04 -5.651E-03
   1   15   24     3     3    1.6825E+05 -1.5133E+02   1.6840E+05  0.000E+00  0.000E+00  0.000E+00  3.59418E+01  1.641E-01  2.000E+01  2.000E+04 -7.567E-03
   1   15   25     3     4    1.6840E+05 -1.8014E+02   1.6858E+05  0.000E+00  0.000E+00  0.000E+00  3.50530E+01  1.642E-01  2.000E+01  2.000E+04 -9.007E-03
   1   15   26     3     5    1.6858E+05 -2.5898E+02   1.6884E+05  0.000E+00  0.000E+00  0.000E+00  3.41643E+01  1.643E-01  2.000E+01  2.000E+04 -1.295E-02
   1   16   27     3     6    1.6884E+05 -2.6172E+02   1.6910E+05  0.000E+00  0.000E+00  0.000E+00  3.32755E+01  1.644E-01  2.000E+01  2.000E+04 -1.309E-02
   1   17   28     3     7    1.6910E+05 -1.2242E+03   1.7032E+05  0.000E+00  0.000E+00  0.000E+00  3.23871E+01  1.649E-01  2.000E+01  2.000E+04 -6.121E-02
   1   18   29     3     8    1.7032E+05 -2.3254E+03   1.7265E+05  0.000E+00  0.000E+00  0.000E+00  3.14992E+01  1.659E-01  2.000E+01  2.000E+04 -1.163E-01
   1   18   30     3     9    1.7265E+05 -2.8117E+03   1.7546E+05  0.000E+00  0.000E+00  0.000E+00  3.06118E+01  1.674E-01  2.000E+01  2.000E+04 -1.406E-01



1
              HEAD IN LAYER   1 AT END OF TIME STEP   1 IN STRESS PERIOD    9
  ---------------------------------------------------------------------------

          1      2      3      4      5      6      7      8      9     10
         11     12     13     14     15     16     17     18     19     20
         21     22     23     24     25     26     27     28     29     30
 .........................................................................
   1  ****** ****** ****** ****** ****** ****** ****** ****** ****** ******
      ****** ****** ****** ****** ****** ****** ****** ****** ****** ******
      ****** ****** ****** ****** ****** ****** ****** ****** ****** ******
   2  ****** ****** ****** ****** ****** ****** ****** ****** ****** ******
      ****** ****** ****** ****** ****** ****** ****** ****** ****** ******
      ****** ****** ****** ****** ****** ****** ****** ****** ****** ******
   3  ****** ****** ****** ****** ****** ****** ****** ****** ****** ******
      ****** ****** ****** ****** ****** ****** ****** ****** ****** ******
      ****** ****** ****** ****** ****** ****** ****** ****** ****** ******
   4  ****** ****** ****** ****** ****** ****** ****** ****** ****** ******
      ****** ****** ****** ****** ****** ****** ****** ****** ****** ******
      ****** ****** ****** ****** ****** ****** ****** ****** ****** ******
   5  ****** ****** ****** ****** ****** ****** ****** ****** ****** ******
      ****** ****** ****** ****** ****** ****** ****** ****** ****** ******
      ****** ****** ****** ****** ****** ****** ****** ****** ****** ******
   6  ****** ****** ****** ****** ****** ****** ****** ****** ****** ******
      ****** ****** ****** ****** ****** ****** ****** ****** ****** ******
      ****** ****** ****** ****** ****** ****** ****** ****** ****** ******
   7  ****** ****** ****** ****** ****** ****** ****** ****** ****** ******
      ****** ****** ****** ****** ****** ****** ****** ****** ****** ******
      ****** ****** ****** ****** ****** ****** ****** ****** ****** ******
   8  ****** ****** ****** ****** ****** ****** ****** ****** ****** ******
      ****** ****** ****** ****** ****** ****** ****** ****** ****** ******
      ****** ****** ****** ****** ****** ****** ****** ****** ****** ******
   9  ****** ****** ****** ****** ****** ****** ****** ****** ****** ******
      ****** ****** ****** ****** ****** ****** ****** ****** ****** ******
      ****** ****** ****** ****** ****** ****** ****** ****** ****** ******
  10  ****** ****** ****** ****** ****** ****** ****** ****** ****** ******
      ****** ****** ****** ****** ****** ****** ****** ****** ****** ******
      ****** ****** ****** ****** ****** ****** ****** ****** ****** ******
  11  ****** ****** ****** ****** ****** ****** ****** ****** ****** ******
      ****** ****** ****** ****** ****** ****** ****** ****** ****** ******
      ****** ****** ****** ****** ****** ****** ****** ****** ****** ******
  12  ****** ****** ****** ****** ****** ****** ****** ****** ****** ******
      ****** ****** ****** ****** ****** ****** ****** ****** ****** ******
      ****** ****** ****** ****** ****** ****** ****** ****** ****** ******
  13  ****** ****** ****** ****** ****** ****** ****** ****** ****** ******
      ****** ****** ****** ****** ****** ****** ****** ****** ****** ******
      ****** ****** ****** ****** ****** ****** ****** ****** ****** ******
  14  ****** ****** ****** ****** ****** ****** ****** ****** ****** ******
      ****** ****** ****** ****** ****** ****** ****** ****** ****** ******
      ****** ****** ****** ****** ****** ****** ****** ****** ****** ******
  15  ****** ****** ****** ****** ****** ****** ****** ****** ****** ******
      ****** ****** ****** ****** ****** ****** ****** ****** ****** ******
      ****** ****** ****** ****** ****** ****** ****** ****** ****** ******
  16  ****** ****** ****** ****** ****** ****** ****** ****** ****** ******
      ****** ****** ****** ****** ****** ****** ****** ****** ****** ******
      ****** ****** ****** ****** ****** ****** ****** ****** ****** ******
  17  ****** ****** ****** ****** ****** ****** ****** ****** ****** ******
      ****** ****** ****** ****** ****** ****** ****** ****** ****** ******
      ****** ****** ****** ****** ****** ****** ****** ****** ****** ******
  18  ****** ****** ****** ****** ****** ****** ****** ****** ****** ******
      ****** ****** ****** ****** ****** ****** ****** ****** ****** ******
      ****** ****** ****** ****** ****** ****** ****** ****** ****** ******
  19  ****** ****** ****** ****** ****** ****** ****** ****** ****** ******
      ****** ****** ****** ****** ****** ****** ****** ****** ****** ******
      ****** ****** ****** ****** ****** ****** ****** ****** ****** ******
  20  ****** ****** ****** ****** ****** ****** ****** ****** ****** ******
      ****** ****** ****** ****** ****** ****** ****** ****** ****** ******
      ****** ****** ****** ****** ****** ****** ****** ****** ****** ******
  21  ****** ****** ****** ****** ****** ****** ****** ****** ****** ******
      ****** ****** ****** ****** ****** ****** ****** ****** ****** ******
      ****** ****** ****** ****** ****** ****** ****** ****** ****** ******
  22  ****** ****** ****** ****** ****** ****** ****** ****** ****** ******
      ****** ****** ****** ****** ****** ****** ****** ****** ****** ******
      ****** ****** ****** ****** ****** ****** ****** ****** ****** ******
  23  ****** ****** ****** ****** ****** ****** ****** ****** ****** ******
      ****** ****** ****** ****** ****** ****** ****** ****** ****** ******
      ****** ****** ****** ****** ****** ****** ****** ****** ****** ******
  24  ****** ****** ****** ****** ****** ****** ****** ****** ****** ******
      ****** ****** ****** ****** ****** ****** ****** ****** ****** ******
      ****** ****** ****** ****** ****** ****** ****** ****** ****** ******
  25  ****** ****** ****** ****** ****** ****** ****** ****** ****** ******
      ****** ****** ****** ****** ****** ****** ****** ****** ****** ******
      ****** ****** ****** ****** ****** ****** ****** ****** ****** ******

 HEAD WILL BE SAVED ON UNIT   51 AT END OF TIME STEP    1, STRESS PERIOD    9
1
  VOLUMETRIC BUDGET FOR ENTIRE MODEL AT END OF TIME STEP    1, STRESS PERIOD   9
  ------------------------------------------------------------------------------

     CUMULATIVE VOLUMES      L**3       RATES FOR THIS TIME STEP      L**3/T
     ------------------                 ------------------------

           IN:                                      IN:
           ---                                      ---
             STORAGE =    35449234.5035               STORAGE =        7552.3836
       CONSTANT HEAD =    23517006.4834         CONSTANT HEAD =       36091.4823
               WELLS =           0.0000                 WELLS =           0.0000
            RECHARGE =    18878400.0000              RECHARGE =       13800.0000
      STREAM LEAKAGE =     6256332.7922        STREAM LEAKAGE =        9285.0374

            TOTAL IN =    84100973.7790              TOTAL IN =       66728.9033

          OUT:                                     OUT:
          ----                                     ----
             STORAGE =      841968.6925               STORAGE =           0.0000
       CONSTANT HEAD =           0.0000         CONSTANT HEAD =           0.0000
               WELLS =    26289408.9614                 WELLS =       31982.2493
            RECHARGE =           0.0000              RECHARGE =           0.0000
      STREAM LEAKAGE =    56969598.0891        STREAM LEAKAGE =       34746.6548

           TOTAL OUT =    84100975.7430             TOTAL OUT =       66728.9041

            IN - OUT =          -1.9640              IN - OUT =      -8.0737E-04

 PERCENT DISCREPANCY =          -0.00     PERCENT DISCREPANCY =          -0.00






         TIME SUMMARY AT END OF TIME STEP    1 IN STRESS PERIOD    9
                    SECONDS     MINUTES      HOURS       DAYS        YEARS
                    -----------------------------------------------------------
   TIME STEP LENGTH 7.94880E+06 1.32480E+05  2208.0      92.000     0.25188    
 STRESS PERIOD TIME 7.94880E+06 1.32480E+05  2208.0      92.000     0.25188    
         TOTAL TIME 7.10208E+07 1.18368E+06  19728.      822.00      2.2505    
1
1
                            STRESS PERIOD NO.   10, LENGTH =   91.00000    
                            -----------------------------------------------

                              NUMBER OF TIME STEPS =     1

                               MULTIPLIER FOR DELT =     1.500

                            INITIAL TIME STEP SIZE =   91.00000    

 WELL NO.  LAYER   ROW   COL   STRESS RATE         
 --------------------------------------------------
      1      1      5     13      -7278.    
      2      1      9     16      -9144.    
      3      1     16     19      -7533.    
      4      1     18     19      -8028.    

      4 WELLS

                 RECHARGE =  2.000000E-03

 REUSING STREAM SEGMENT DATA FROM LAST STRESS PERIOD
 
 SOLVING FOR HEAD 


     7 CALLS TO PCG ROUTINE FOR TIME STEP   1 IN STRESS PERIOD   10
    26 TOTAL ITERATIONS

 OUTPUT CONTROL FOR STRESS PERIOD   10   TIME STEP    1
    SAVE BUDGET
    SAVE HEAD FOR ALL LAYERS
    PRINT HEAD FOR ALL LAYERS
 UBDSV2 SAVING "STREAMFLOW OUT  " ON UNIT  50 AT TIME STEP  1, STRESS PERIOD  10



 STREAM LISTING     PERIOD     10   STEP        1

 LAYER ROW COL. STREAM  RCH.  FLOW INTO     FLOW TO   FLOW OUT OF   OVRLND.     DIRECT     STREAM       STREAM     STREAM     STREAM   STREAMBED  STREAMBED
                SEG.NO.  NO.  STRM. RCH.    AQUIFER    STRM. RCH.    RUNOFF     PRECIP       ET          HEAD       DEPTH      WIDTH   CONDCTNC.   GRADIENT

   1   13    1     1     1    1.0000E+05 -1.7631E+03   1.0176E+05  0.000E+00  0.000E+00  0.000E+00  4.84068E+01  1.454E-01  2.000E+01  2.000E+04 -8.816E-02
   1   13    2     1     2    1.0176E+05 -2.7195E+03   1.0448E+05  0.000E+00  0.000E+00  0.000E+00  4.79314E+01  1.473E-01  2.000E+01  2.000E+04 -1.360E-01
   1   14    3     1     3    1.0448E+05 -5.5143E+02   1.0503E+05  0.000E+00  0.000E+00  0.000E+00  4.74556E+01  1.487E-01  2.000E+01  2.000E+04 -2.757E-02
   1   15    4     1     4    1.0503E+05 -5.4133E+02   1.0558E+05  0.000E+00  0.000E+00  0.000E+00  4.69788E+01  1.492E-01  2.000E+01  2.000E+04 -2.707E-02
   1   16    5     1     5    1.0558E+05 -1.9748E+03   1.0755E+05  0.000E+00  0.000E+00  0.000E+00  4.65025E+01  1.503E-01  2.000E+01  2.000E+04 -9.874E-02
   1   16    6     1     6    1.0755E+05 -1.2099E+03   1.0876E+05  0.000E+00  0.000E+00  0.000E+00  4.60266E+01  1.516E-01  2.000E+01  2.000E+04 -6.050E-02
   1   16    7     1     7    1.0876E+05 -1.1613E+03   1.0992E+05  0.000E+00  0.000E+00  0.000E+00  4.55503E+01  1.526E-01  2.000E+01  2.000E+04 -5.806E-02
   1   16    8     1     8    1.0992E+05 -1.1289E+03   1.1105E+05  0.000E+00  0.000E+00  0.000E+00  4.50740E+01  1.536E-01  2.000E+01  2.000E+04 -5.644E-02
   1   16    9     1     9    1.1105E+05 -1.0867E+03   1.1214E+05  0.000E+00  0.000E+00  0.000E+00  4.45977E+01  1.545E-01  2.000E+01  2.000E+04 -5.433E-02
   1   16   10     1    10    1.1214E+05 -1.0265E+03   1.1316E+05  0.000E+00  0.000E+00  0.000E+00  4.41213E+01  1.554E-01  2.000E+01  2.000E+04 -5.132E-02
   1   16   11     1    11    1.1316E+05 -9.4411E+02   1.1411E+05  0.000E+00  0.000E+00  0.000E+00  4.36448E+01  1.562E-01  2.000E+01  2.000E+04 -4.721E-02
   1   16   12     1    12    1.1411E+05 -1.2029E+03   1.1531E+05  0.000E+00  0.000E+00  0.000E+00  4.31684E+01  1.571E-01  2.000E+01  2.000E+04 -6.014E-02
   1   15   13     1    13    1.1531E+05 -7.9738E+02   1.1611E+05  0.000E+00  0.000E+00  0.000E+00  4.26920E+01  1.579E-01  2.000E+01  2.000E+04 -3.987E-02
   1   14   14     1    14    1.1611E+05 -6.8655E+02   1.1679E+05  0.000E+00  0.000E+00  0.000E+00  4.22153E+01  1.585E-01  2.000E+01  2.000E+04 -3.433E-02
   1   13   15     1    15    1.1679E+05 -5.8141E+02   1.1738E+05  0.000E+00  0.000E+00  0.000E+00  4.17386E+01  1.590E-01  2.000E+01  2.000E+04 -2.907E-02
   1   12   16     1    16    1.1738E+05 -4.6174E+02   1.1784E+05  0.000E+00  0.000E+00  0.000E+00  4.12617E+01  1.594E-01  2.000E+01  2.000E+04 -2.309E-02
   1   12   17     1    17    1.1784E+05 -2.4820E+02   1.1809E+05  0.000E+00  0.000E+00  0.000E+00  4.07847E+01  1.597E-01  2.000E+01  2.000E+04 -1.241E-02
   1   12   18     1    18    1.1809E+05 -4.0815E+02   1.1849E+05  0.000E+00  0.000E+00  0.000E+00  4.03077E+01  1.600E-01  2.000E+01  2.000E+04 -2.041E-02
   1   12   19     1    19    1.1849E+05 -1.1185E+03   1.1961E+05  0.000E+00  0.000E+00  0.000E+00  3.98311E+01  1.606E-01  2.000E+01  2.000E+04 -5.592E-02
   1   13   20     1    20    1.1961E+05 -2.9501E+02   1.1991E+05  0.000E+00  0.000E+00  0.000E+00  3.93544E+01  1.612E-01  2.000E+01  2.000E+04 -1.475E-02
   1   14   21     1    21    1.1991E+05  5.8461E+02   1.1932E+05  0.000E+00  0.000E+00  0.000E+00  3.88770E+01  1.611E-01  2.000E+01  2.000E+04  2.923E-02
   1   14   22     1    22    1.1932E+05  5.1153E+03   1.1421E+05  0.000E+00  0.000E+00  0.000E+00  3.83974E+01  1.587E-01  2.000E+01  2.000E+04  2.558E-01
   1    9   30     2     1    5.0000E+04 -8.7432E+02   5.0874E+04  0.000E+00  0.000E+00  0.000E+00  4.02415E+01  1.165E-01  2.000E+01  2.000E+04 -4.372E-02
   1    9   29     2     2    5.0874E+04 -1.1581E+03   5.2032E+04  0.000E+00  0.000E+00  0.000E+00  3.99929E+01  1.179E-01  2.000E+01  2.000E+04 -5.791E-02
   1    9   28     2     3    5.2032E+04 -1.3765E+03   5.3409E+04  0.000E+00  0.000E+00  0.000E+00  3.97446E+01  1.196E-01  2.000E+01  2.000E+04 -6.882E-02
   1    9   27     2     4    5.3409E+04 -2.5237E+03   5.5933E+04  0.000E+00  0.000E+00  0.000E+00  3.94972E+01  1.222E-01  2.000E+01  2.000E+04 -1.262E-01
   1   10   26     2     5    5.5933E+04 -1.7532E+03   5.7686E+04  0.000E+00  0.000E+00  0.000E+00  3.92501E+01  1.251E-01  2.000E+01  2.000E+04 -8.766E-02
   1   11   25     2     6    5.7686E+04 -1.5206E+03   5.9206E+04  0.000E+00  0.000E+00  0.000E+00  3.90022E+01  1.272E-01  2.000E+01  2.000E+04 -7.603E-02
   1   12   24     2     7    5.9206E+04 -1.5187E+03   6.0725E+04  0.000E+00  0.000E+00  0.000E+00  3.87542E+01  1.292E-01  2.000E+01  2.000E+04 -7.594E-02
   1   13   23     2     8    6.0725E+04 -3.0534E+02   6.1031E+04  0.000E+00  0.000E+00  0.000E+00  3.85054E+01  1.304E-01  2.000E+01  2.000E+04 -1.527E-02
   1   14   22     2     9    6.1031E+04  2.2503E+03   5.8780E+04  0.000E+00  0.000E+00  0.000E+00  3.82541E+01  1.291E-01  2.000E+01  2.000E+04  1.125E-01
   1   14   22     3     1    1.7299E+05 -8.3380E+03   1.8133E+05  0.000E+00  0.000E+00  0.000E+00  3.77247E+01  1.692E-01  2.000E+01  2.000E+04 -4.169E-01
   1   15   23     3     2    1.8133E+05 -2.7535E+02   1.8160E+05  0.000E+00  0.000E+00  0.000E+00  3.68383E+01  1.716E-01  2.000E+01  2.000E+04 -1.377E-02
   1   15   24     3     3    1.8160E+05 -2.8838E+02   1.8189E+05  0.000E+00  0.000E+00  0.000E+00  3.59496E+01  1.718E-01  2.000E+01  2.000E+04 -1.442E-02
   1   15   25     3     4    1.8189E+05 -3.2062E+02   1.8221E+05  0.000E+00  0.000E+00  0.000E+00  3.50608E+01  1.720E-01  2.000E+01  2.000E+04 -1.603E-02
   1   15   26     3     5    1.8221E+05 -4.2115E+02   1.8263E+05  0.000E+00  0.000E+00  0.000E+00  3.41722E+01  1.722E-01  2.000E+01  2.000E+04 -2.106E-02
   1   16   27     3     6    1.8263E+05 -4.4745E+02   1.8308E+05  0.000E+00  0.000E+00  0.000E+00  3.32835E+01  1.724E-01  2.000E+01  2.000E+04 -2.237E-02
   1   17   28     3     7    1.8308E+05 -1.7444E+03   1.8482E+05  0.000E+00  0.000E+00  0.000E+00  3.23953E+01  1.730E-01  2.000E+01  2.000E+04 -8.722E-02
   1   18   29     3     8    1.8482E+05 -2.8759E+03   1.8770E+05  0.000E+00  0.000E+00  0.000E+00  3.15077E+01  1.743E-01  2.000E+01  2.000E+04 -1.438E-01
   1   18   30     3     9    1.8770E+05 -3.2365E+03   1.9094E+05  0.000E+00  0.000E+00  0.000E+00  3.06205E+01  1.760E-01  2.000E+01  2.000E+04 -1.618E-01



1
              HEAD IN LAYER   1 AT END OF TIME STEP   1 IN STRESS PERIOD   10
  ---------------------------------------------------------------------------

          1      2      3      4      5      6      7      8      9     10
         11     12     13     14     15     16     17     18     19     20
         21     22     23     24     25     26     27     28     29     30
 .........................................................................
   1  ****** ****** ****** ****** ****** ****** ****** ****** ****** ******
      ****** ****** ****** ****** ****** ****** ****** ****** ****** ******
      ****** ****** ****** ****** ****** ****** ****** ****** ****** ******
   2  ****** ****** ****** ****** ****** ****** ****** ****** ****** ******
      ****** ****** ****** ****** ****** ****** ****** ****** ****** ******
      ****** ****** ****** ****** ****** ****** ****** ****** ****** ******
   3  ****** ****** ****** ****** ****** ****** ****** ****** ****** ******
      ****** ****** ****** ****** ****** ****** ****** ****** ****** ******
      ****** ****** ****** ****** ****** ****** ****** ****** ****** ******
   4  ****** ****** ****** ****** ****** ****** ****** ****** ****** ******
      ****** ****** ****** ****** ****** ****** ****** ****** ****** ******
      ****** ****** ****** ****** ****** ****** ****** ****** ****** ******
   5  ****** ****** ****** ****** ****** ****** ****** ****** ****** ******
      ****** ****** ****** ****** ****** ****** ****** ****** ****** ******
      ****** ****** ****** ****** ****** ****** ****** ****** ****** ******
   6  ****** ****** ****** ****** ****** ****** ****** ****** ****** ******
      ****** ****** ****** ****** ****** ****** ****** ****** ****** ******
      ****** ****** ****** ****** ****** ****** ****** ****** ****** ******
   7  ****** ****** ****** ****** ****** ****** ****** ****** ****** ******
      ****** ****** ****** ****** ****** ****** ****** ****** ****** ******
      ****** ****** ****** ****** ****** ****** ****** ****** ****** ******
   8  ****** ****** ****** ****** ****** ****** ****** ****** ****** ******
      ****** ****** ****** ****** ****** ****** ****** ****** ****** ******
      ****** ****** ****** ****** ****** ****** ****** ****** ****** ******
   9  ****** ****** ****** ****** ****** ****** ****** ****** ****** ******
      ****** ****** ****** ****** ****** ****** ****** ****** ****** ******
      ****** ****** ****** ****** ****** ****** ****** ****** ****** ******
  10  ****** ****** ****** ****** ****** ****** ****** ****** ****** ******
      ****** ****** ****** ****** ****** ****** ****** ****** ****** ******
      ****** ****** ****** ****** ****** ****** ****** ****** ****** ******
  11  ****** ****** ****** ****** ****** ****** ****** ****** ****** ******
      ****** ****** ****** ****** ****** ****** ****** ****** ****** ******
      ****** ****** ****** ****** ****** ****** ****** ****** ****** ******
  12  ****** ****** ****** ****** ****** ****** ****** ****** ****** ******
      ****** ****** ****** ****** ****** ****** ****** ****** ****** ******
      ****** ****** ****** ****** ****** ****** ****** ****** ****** ******
  13  ****** ****** ****** ****** ****** ****** ****** ****** ****** ******
      ****** ****** ****** ****** ****** ****** ****** ****** ****** ******
      ****** ****** ****** ****** ****** ****** ****** ****** ****** ******
  14  ****** ****** ****** ****** ****** ****** ****** ****** ****** ******
      ****** ****** ****** ****** ****** ****** ****** ****** ****** ******
      ****** ****** ****** ****** ****** ****** ****** ****** ****** ******
  15  ****** ****** ****** ****** ****** ****** ****** ****** ****** ******
      ****** ****** ****** ****** ****** ****** ****** ****** ****** ******
      ****** ****** ****** ****** ****** ****** ****** ****** ****** ******
  16  ****** ****** ****** ****** ****** ****** ****** ****** ****** ******
      ****** ****** ****** ****** ****** ****** ****** ****** ****** ******
      ****** ****** ****** ****** ****** ****** ****** ****** ****** ******
  17  ****** ****** ****** ****** ****** ****** ****** ****** ****** ******
      ****** ****** ****** ****** ****** ****** ****** ****** ****** ******
      ****** ****** ****** ****** ****** ****** ****** ****** ****** ******
  18  ****** ****** ****** ****** ****** ****** ****** ****** ****** ******
      ****** ****** ****** ****** ****** ****** ****** ****** ****** ******
      ****** ****** ****** ****** ****** ****** ****** ****** ****** ******
  19  ****** ****** ****** ****** ****** ****** ****** ****** ****** ******
      ****** ****** ****** ****** ****** ****** ****** ****** ****** ******
      ****** ****** ****** ****** ****** ****** ****** ****** ****** ******
  20  ****** ****** ****** ****** ****** ****** ****** ****** ****** ******
      ****** ****** ****** ****** ****** ****** ****** ****** ****** ******
      ****** ****** ****** ****** ****** ****** ****** ****** ****** ******
  21  ****** ****** ****** ****** ****** ****** ****** ****** ****** ******
      ****** ****** ****** ****** ****** ****** ****** ****** ****** ******
      ****** ****** ****** ****** ****** ****** ****** ****** ****** ******
  22  ****** ****** ****** ****** ****** ****** ****** ****** ****** ******
      ****** ****** ****** ****** ****** ****** ****** ****** ****** ******
      ****** ****** ****** ****** ****** ****** ****** ****** ****** ******
  23  ****** ****** ****** ****** ****** ****** ****** ****** ****** ******
      ****** ****** ****** ****** ****** ****** ****** ****** ****** ******
      ****** ****** ****** ****** ****** ****** ****** ****** ****** ******
  24  ****** ****** ****** ****** ****** ****** ****** ****** ****** ******
      ****** ****** ****** ****** ****** ****** ****** ****** ****** ******
      ****** ****** ****** ****** ****** ****** ****** ****** ****** ******
  25  ****** ****** ****** ****** ****** ****** ****** ****** ****** ******
      ****** ****** ****** ****** ****** ****** ****** ****** ****** ******
      ****** ****** ****** ****** ****** ****** ****** ****** ****** ******

 HEAD WILL BE SAVED ON UNIT   51 AT END OF TIME STEP    1, STRESS PERIOD   10
1
  VOLUMETRIC BUDGET FOR ENTIRE MODEL AT END OF TIME STEP    1, STRESS PERIOD  10
  ------------------------------------------------------------------------------

     CUMULATIVE VOLUMES      L**3       RATES FOR THIS TIME STEP      L**3/T
     ------------------                 ------------------------

           IN:                                      IN:
           ---                                      ---
             STORAGE =    35449234.5035               STORAGE =           0.0000
       CONSTANT HEAD =    26535175.3268         CONSTANT HEAD =       33166.6906
               WELLS =           0.0000                 WELLS =           0.0000
            RECHARGE =    23901600.0000              RECHARGE =       55200.0000
      STREAM LEAKAGE =     6979801.3118        STREAM LEAKAGE =        7950.2035

            TOTAL IN =    92865811.1422              TOTAL IN =       96316.8941

          OUT:                                     OUT:
          ----                                     ----
             STORAGE =     2247828.3429               STORAGE =       15449.0071
       CONSTANT HEAD =           0.0000         CONSTANT HEAD =           0.0000
               WELLS =    29199793.6518                 WELLS =       31982.2493
            RECHARGE =           0.0000              RECHARGE =           0.0000
      STREAM LEAKAGE =    61418190.7609        STREAM LEAKAGE =       48885.6338

           TOTAL OUT =    92865812.7556             TOTAL OUT =       96316.8902

            IN - OUT =          -1.6135              IN - OUT =       3.8517E-03

 PERCENT DISCREPANCY =          -0.00     PERCENT DISCREPANCY =           0.00






         TIME SUMMARY AT END OF TIME STEP    1 IN STRESS PERIOD   10
                    SECONDS     MINUTES      HOURS       DAYS        YEARS
                    -----------------------------------------------------------
   TIME STEP LENGTH 7.86240E+06 1.31040E+05  2184.0      91.000     0.24914    
 STRESS PERIOD TIME 7.86240E+06 1.31040E+05  2184.0      91.000     0.24914    
         TOTAL TIME 7.88832E+07 1.31472E+06  21912.      913.00      2.4997    
1
1
                            STRESS PERIOD NO.   11, LENGTH =   91.00000    
                            -----------------------------------------------

                              NUMBER OF TIME STEPS =     1

                               MULTIPLIER FOR DELT =     1.500

                            INITIAL TIME STEP SIZE =   91.00000    

 WELL NO.  LAYER   ROW   COL   STRESS RATE         
 --------------------------------------------------
      1      1      5     13      -7278.    
      2      1      9     16      -9144.    
      3      1     16     19      -7533.    
      4      1     18     19      -8028.    

      4 WELLS

                 RECHARGE =   0.00000    

 REUSING STREAM SEGMENT DATA FROM LAST STRESS PERIOD
 
 SOLVING FOR HEAD 


     7 CALLS TO PCG ROUTINE FOR TIME STEP   1 IN STRESS PERIOD   11
    26 TOTAL ITERATIONS

 OUTPUT CONTROL FOR STRESS PERIOD   11   TIME STEP    1
    SAVE BUDGET
    SAVE HEAD FOR ALL LAYERS
    PRINT HEAD FOR ALL LAYERS
 UBDSV2 SAVING "STREAMFLOW OUT  " ON UNIT  50 AT TIME STEP  1, STRESS PERIOD  11



 STREAM LISTING     PERIOD     11   STEP        1

 LAYER ROW COL. STREAM  RCH.  FLOW INTO     FLOW TO   FLOW OUT OF   OVRLND.     DIRECT     STREAM       STREAM     STREAM     STREAM   STREAMBED  STREAMBED
                SEG.NO.  NO.  STRM. RCH.    AQUIFER    STRM. RCH.    RUNOFF     PRECIP       ET          HEAD       DEPTH      WIDTH   CONDCTNC.   GRADIENT

   1   13    1     1     1    1.0000E+05 -1.1897E+03   1.0119E+05  0.000E+00  0.000E+00  0.000E+00  4.84065E+01  1.452E-01  2.000E+01  2.000E+04 -5.949E-02
   1   13    2     1     2    1.0119E+05 -2.0806E+03   1.0327E+05  0.000E+00  0.000E+00  0.000E+00  4.79307E+01  1.466E-01  2.000E+01  2.000E+04 -1.040E-01
   1   14    3     1     3    1.0327E+05 -3.1949E+02   1.0359E+05  0.000E+00  0.000E+00  0.000E+00  4.74544E+01  1.476E-01  2.000E+01  2.000E+04 -1.597E-02
   1   15    4     1     4    1.0359E+05 -2.9859E+02   1.0389E+05  0.000E+00  0.000E+00  0.000E+00  4.69774E+01  1.479E-01  2.000E+01  2.000E+04 -1.493E-02
   1   16    5     1     5    1.0389E+05 -1.2863E+03   1.0517E+05  0.000E+00  0.000E+00  0.000E+00  4.65008E+01  1.486E-01  2.000E+01  2.000E+04 -6.431E-02
   1   16    6     1     6    1.0517E+05 -7.9482E+02   1.0597E+05  0.000E+00  0.000E+00  0.000E+00  4.60244E+01  1.494E-01  2.000E+01  2.000E+04 -3.974E-02
   1   16    7     1     7    1.0597E+05 -7.6365E+02   1.0673E+05  0.000E+00  0.000E+00  0.000E+00  4.55478E+01  1.501E-01  2.000E+01  2.000E+04 -3.818E-02
   1   16    8     1     8    1.0673E+05 -7.3681E+02   1.0747E+05  0.000E+00  0.000E+00  0.000E+00  4.50712E+01  1.507E-01  2.000E+01  2.000E+04 -3.684E-02
   1   16    9     1     9    1.0747E+05 -6.9692E+02   1.0817E+05  0.000E+00  0.000E+00  0.000E+00  4.45945E+01  1.513E-01  2.000E+01  2.000E+04 -3.485E-02
   1   16   10     1    10    1.0817E+05 -6.3795E+02   1.0880E+05  0.000E+00  0.000E+00  0.000E+00  4.41178E+01  1.519E-01  2.000E+01  2.000E+04 -3.190E-02
   1   16   11     1    11    1.0880E+05 -5.5394E+02   1.0936E+05  0.000E+00  0.000E+00  0.000E+00  4.36410E+01  1.524E-01  2.000E+01  2.000E+04 -2.770E-02
   1   16   12     1    12    1.0936E+05 -5.5605E+02   1.0991E+05  0.000E+00  0.000E+00  0.000E+00  4.31642E+01  1.529E-01  2.000E+01  2.000E+04 -2.780E-02
   1   15   13     1    13    1.0991E+05 -1.0655E+02   1.1002E+05  0.000E+00  0.000E+00  0.000E+00  4.26872E+01  1.531E-01  2.000E+01  2.000E+04 -5.328E-03
   1   14   14     1    14    1.1002E+05  2.2800E+01   1.1000E+05  0.000E+00  0.000E+00  0.000E+00  4.22100E+01  1.532E-01  2.000E+01  2.000E+04  1.140E-03
   1   13   15     1    15    1.1000E+05  1.2296E+02   1.0988E+05  0.000E+00  0.000E+00  0.000E+00  4.17327E+01  1.531E-01  2.000E+01  2.000E+04  6.148E-03
   1   12   16     1    16    1.0988E+05  2.2021E+02   1.0966E+05  0.000E+00  0.000E+00  0.000E+00  4.12552E+01  1.530E-01  2.000E+01  2.000E+04  1.101E-02
   1   12   17     1    17    1.0966E+05  2.6084E+02   1.0939E+05  0.000E+00  0.000E+00  0.000E+00  4.07778E+01  1.528E-01  2.000E+01  2.000E+04  1.304E-02
   1   12   18     1    18    1.0939E+05  9.2784E+01   1.0930E+05  0.000E+00  0.000E+00  0.000E+00  4.03003E+01  1.526E-01  2.000E+01  2.000E+04  4.639E-03
   1   12   19     1    19    1.0930E+05 -5.0369E+02   1.0981E+05  0.000E+00  0.000E+00  0.000E+00  3.98232E+01  1.528E-01  2.000E+01  2.000E+04 -2.518E-02
   1   13   20     1    20    1.0981E+05  3.1828E+02   1.0949E+05  0.000E+00  0.000E+00  0.000E+00  3.93461E+01  1.529E-01  2.000E+01  2.000E+04  1.591E-02
   1   14   21     1    21    1.0949E+05  1.1820E+03   1.0831E+05  0.000E+00  0.000E+00  0.000E+00  3.88682E+01  1.522E-01  2.000E+01  2.000E+04  5.910E-02
   1   14   22     1    22    1.0831E+05  5.2582E+03   1.0305E+05  0.000E+00  0.000E+00  0.000E+00  3.83882E+01  1.495E-01  2.000E+01  2.000E+04  2.629E-01
   1    9   30     2     1    5.0000E+04 -3.8587E+02   5.0386E+04  0.000E+00  0.000E+00  0.000E+00  4.02411E+01  1.161E-01  2.000E+01  2.000E+04 -1.929E-02
   1    9   29     2     2    5.0386E+04 -6.7267E+02   5.1059E+04  0.000E+00  0.000E+00  0.000E+00  3.99919E+01  1.169E-01  2.000E+01  2.000E+04 -3.363E-02
   1    9   28     2     3    5.1059E+04 -8.9315E+02   5.1952E+04  0.000E+00  0.000E+00  0.000E+00  3.97429E+01  1.179E-01  2.000E+01  2.000E+04 -4.466E-02
   1    9   27     2     4    5.1952E+04 -1.8828E+03   5.3834E+04  0.000E+00  0.000E+00  0.000E+00  3.94948E+01  1.198E-01  2.000E+01  2.000E+04 -9.414E-02
   1   10   26     2     5    5.3834E+04 -1.0980E+03   5.4932E+04  0.000E+00  0.000E+00  0.000E+00  3.92469E+01  1.219E-01  2.000E+01  2.000E+04 -5.490E-02
   1   11   25     2     6    5.4932E+04 -8.8927E+02   5.5822E+04  0.000E+00  0.000E+00  0.000E+00  3.89982E+01  1.232E-01  2.000E+01  2.000E+04 -4.446E-02
   1   12   24     2     7    5.5822E+04 -9.4429E+02   5.6766E+04  0.000E+00  0.000E+00  0.000E+00  3.87494E+01  1.244E-01  2.000E+01  2.000E+04 -4.721E-02
   1   13   23     2     8    5.6766E+04 -1.1928E+02   5.6885E+04  0.000E+00  0.000E+00  0.000E+00  3.85001E+01  1.251E-01  2.000E+01  2.000E+04 -5.964E-03
   1   14   22     2     9    5.6885E+04  2.4661E+03   5.4419E+04  0.000E+00  0.000E+00  0.000E+00  3.82486E+01  1.236E-01  2.000E+01  2.000E+04  1.233E-01
   1   14   22     3     1    1.5747E+05 -8.1926E+03   1.6566E+05  0.000E+00  0.000E+00  0.000E+00  3.77156E+01  1.601E-01  2.000E+01  2.000E+04 -4.096E-01
   1   15   23     3     2    1.6566E+05 -8.3218E+01   1.6574E+05  0.000E+00  0.000E+00  0.000E+00  3.68292E+01  1.625E-01  2.000E+01  2.000E+04 -4.161E-03
   1   15   24     3     3    1.6574E+05 -1.2321E+02   1.6587E+05  0.000E+00  0.000E+00  0.000E+00  3.59404E+01  1.626E-01  2.000E+01  2.000E+04 -6.160E-03
   1   15   25     3     4    1.6587E+05 -1.5162E+02   1.6602E+05  0.000E+00  0.000E+00  0.000E+00  3.50515E+01  1.627E-01  2.000E+01  2.000E+04 -7.581E-03
   1   15   26     3     5    1.6602E+05 -2.2544E+02   1.6624E+05  0.000E+00  0.000E+00  0.000E+00  3.41628E+01  1.628E-01  2.000E+01  2.000E+04 -1.127E-02
   1   16   27     3     6    1.6624E+05 -2.2439E+02   1.6647E+05  0.000E+00  0.000E+00  0.000E+00  3.32740E+01  1.629E-01  2.000E+01  2.000E+04 -1.122E-02
   1   17   28     3     7    1.6647E+05 -1.1345E+03   1.6760E+05  0.000E+00  0.000E+00  0.000E+00  3.23855E+01  1.633E-01  2.000E+01  2.000E+04 -5.672E-02
   1   18   29     3     8    1.6760E+05 -2.2536E+03   1.6985E+05  0.000E+00  0.000E+00  0.000E+00  3.14976E+01  1.643E-01  2.000E+01  2.000E+04 -1.127E-01
   1   18   30     3     9    1.6985E+05 -2.7471E+03   1.7260E+05  0.000E+00  0.000E+00  0.000E+00  3.06102E+01  1.657E-01  2.000E+01  2.000E+04 -1.374E-01



1
              HEAD IN LAYER   1 AT END OF TIME STEP   1 IN STRESS PERIOD   11
  ---------------------------------------------------------------------------

          1      2      3      4      5      6      7      8      9     10
         11     12     13     14     15     16     17     18     19     20
         21     22     23     24     25     26     27     28     29     30
 .........................................................................
   1  ****** ****** ****** ****** ****** ****** ****** ****** ****** ******
      ****** ****** ****** ****** ****** ****** ****** ****** ****** ******
      ****** ****** ****** ****** ****** ****** ****** ****** ****** ******
   2  ****** ****** ****** ****** ****** ****** ****** ****** ****** ******
      ****** ****** ****** ****** ****** ****** ****** ****** ****** ******
      ****** ****** ****** ****** ****** ****** ****** ****** ****** ******
   3  ****** ****** ****** ****** ****** ****** ****** ****** ****** ******
      ****** ****** ****** ****** ****** ****** ****** ****** ****** ******
      ****** ****** ****** ****** ****** ****** ****** ****** ****** ******
   4  ****** ****** ****** ****** ****** ****** ****** ****** ****** ******
      ****** ****** ****** ****** ****** ****** ****** ****** ****** ******
      ****** ****** ****** ****** ****** ****** ****** ****** ****** ******
   5  ****** ****** ****** ****** ****** ****** ****** ****** ****** ******
      ****** ****** ****** ****** ****** ****** ****** ****** ****** ******
      ****** ****** ****** ****** ****** ****** ****** ****** ****** ******
   6  ****** ****** ****** ****** ****** ****** ****** ****** ****** ******
      ****** ****** ****** ****** ****** ****** ****** ****** ****** ******
      ****** ****** ****** ****** ****** ****** ****** ****** ****** ******
   7  ****** ****** ****** ****** ****** ****** ****** ****** ****** ******
      ****** ****** ****** ****** ****** ****** ****** ****** ****** ******
      ****** ****** ****** ****** ****** ****** ****** ****** ****** ******
   8  ****** ****** ****** ****** ****** ****** ****** ****** ****** ******
      ****** ****** ****** ****** ****** ****** ****** ****** ****** ******
      ****** ****** ****** ****** ****** ****** ****** ****** ****** ******
   9  ****** ****** ****** ****** ****** ****** ****** ****** ****** ******
      ****** ****** ****** ****** ****** ****** ****** ****** ****** ******
      ****** ****** ****** ****** ****** ****** ****** ****** ****** ******
  10  ****** ****** ****** ****** ****** ****** ****** ****** ****** ******
      ****** ****** ****** ****** ****** ****** ****** ****** ****** ******
      ****** ****** ****** ****** ****** ****** ****** ****** ****** ******
  11  ****** ****** ****** ****** ****** ****** ****** ****** ****** ******
      ****** ****** ****** ****** ****** ****** ****** ****** ****** ******
      ****** ****** ****** ****** ****** ****** ****** ****** ****** ******
  12  ****** ****** ****** ****** ****** ****** ****** ****** ****** ******
      ****** ****** ****** ****** ****** ****** ****** ****** ****** ******
      ****** ****** ****** ****** ****** ****** ****** ****** ****** ******
  13  ****** ****** ****** ****** ****** ****** ****** ****** ****** ******
      ****** ****** ****** ****** ****** ****** ****** ****** ****** ******
      ****** ****** ****** ****** ****** ****** ****** ****** ****** ******
  14  ****** ****** ****** ****** ****** ****** ****** ****** ****** ******
      ****** ****** ****** ****** ****** ****** ****** ****** ****** ******
      ****** ****** ****** ****** ****** ****** ****** ****** ****** ******
  15  ****** ****** ****** ****** ****** ****** ****** ****** ****** ******
      ****** ****** ****** ****** ****** ****** ****** ****** ****** ******
      ****** ****** ****** ****** ****** ****** ****** ****** ****** ******
  16  ****** ****** ****** ****** ****** ****** ****** ****** ****** ******
      ****** ****** ****** ****** ****** ****** ****** ****** ****** ******
      ****** ****** ****** ****** ****** ****** ****** ****** ****** ******
  17  ****** ****** ****** ****** ****** ****** ****** ****** ****** ******
      ****** ****** ****** ****** ****** ****** ****** ****** ****** ******
      ****** ****** ****** ****** ****** ****** ****** ****** ****** ******
  18  ****** ****** ****** ****** ****** ****** ****** ****** ****** ******
      ****** ****** ****** ****** ****** ****** ****** ****** ****** ******
      ****** ****** ****** ****** ****** ****** ****** ****** ****** ******
  19  ****** ****** ****** ****** ****** ****** ****** ****** ****** ******
      ****** ****** ****** ****** ****** ****** ****** ****** ****** ******
      ****** ****** ****** ****** ****** ****** ****** ****** ****** ******
  20  ****** ****** ****** ****** ****** ****** ****** ****** ****** ******
      ****** ****** ****** ****** ****** ****** ****** ****** ****** ******
      ****** ****** ****** ****** ****** ****** ****** ****** ****** ******
  21  ****** ****** ****** ****** ****** ****** ****** ****** ****** ******
      ****** ****** ****** ****** ****** ****** ****** ****** ****** ******
      ****** ****** ****** ****** ****** ****** ****** ****** ****** ******
  22  ****** ****** ****** ****** ****** ****** ****** ****** ****** ******
      ****** ****** ****** ****** ****** ****** ****** ****** ****** ******
      ****** ****** ****** ****** ****** ****** ****** ****** ****** ******
  23  ****** ****** ****** ****** ****** ****** ****** ****** ****** ******
      ****** ****** ****** ****** ****** ****** ****** ****** ****** ******
      ****** ****** ****** ****** ****** ****** ****** ****** ****** ******
  24  ****** ****** ****** ****** ****** ****** ****** ****** ****** ******
      ****** ****** ****** ****** ****** ****** ****** ****** ****** ******
      ****** ****** ****** ****** ****** ****** ****** ****** ****** ******
  25  ****** ****** ****** ****** ****** ****** ****** ****** ****** ******
      ****** ****** ****** ****** ****** ****** ****** ****** ****** ******
      ****** ****** ****** ****** ****** ****** ****** ****** ****** ******

 HEAD WILL BE SAVED ON UNIT   51 AT END OF TIME STEP    1, STRESS PERIOD   11
1
  VOLUMETRIC BUDGET FOR ENTIRE MODEL AT END OF TIME STEP    1, STRESS PERIOD  11
  ------------------------------------------------------------------------------

     CUMULATIVE VOLUMES      L**3       RATES FOR THIS TIME STEP      L**3/T
     ------------------                 ------------------------

           IN:                                      IN:
           ---                                      ---
             STORAGE =    37097440.6869               STORAGE =       18112.1559
       CONSTANT HEAD =    29854140.9768         CONSTANT HEAD =       36472.1500
               WELLS =           0.0000                 WELLS =           0.0000
            RECHARGE =    23901600.0000              RECHARGE =           0.0000
      STREAM LEAKAGE =     7884710.0415        STREAM LEAKAGE =        9944.0520

            TOTAL IN =    98737891.7051              TOTAL IN =       64528.3578

          OUT:                                     OUT:
          ----                                     ----
             STORAGE =     2247828.3429               STORAGE =           0.0000
       CONSTANT HEAD =           0.0000         CONSTANT HEAD =           0.0000
               WELLS =    32110178.3422                 WELLS =       31982.2493
            RECHARGE =           0.0000              RECHARGE =           0.0000
      STREAM LEAKAGE =    64379887.0865        STREAM LEAKAGE =       32546.1135

           TOTAL OUT =    98737893.7716             TOTAL OUT =       64528.3628

            IN - OUT =          -2.0665              IN - OUT =      -4.9779E-03

 PERCENT DISCREPANCY =          -0.00     PERCENT DISCREPANCY =          -0.00






         TIME SUMMARY AT END OF TIME STEP    1 IN STRESS PERIOD   11
                    SECONDS     MINUTES      HOURS       DAYS        YEARS
                    -----------------------------------------------------------
   TIME STEP LENGTH 7.86240E+06 1.31040E+05  2184.0      91.000     0.24914    
 STRESS PERIOD TIME 7.86240E+06 1.31040E+05  2184.0      91.000     0.24914    
         TOTAL TIME 8.67456E+07 1.44576E+06  24096.      1004.0      2.7488    
1
1
                            STRESS PERIOD NO.   12, LENGTH =   91.00000    
                            -----------------------------------------------

                              NUMBER OF TIME STEPS =     1

                               MULTIPLIER FOR DELT =     1.500

                            INITIAL TIME STEP SIZE =   91.00000    

 WELL NO.  LAYER   ROW   COL   STRESS RATE         
 --------------------------------------------------
      1      1      5     13      -7278.    
      2      1      9     16      -9144.    
      3      1     16     19      -7533.    
      4      1     18     19      -8028.    

      4 WELLS

                 RECHARGE =  1.000000E-03

 REUSING STREAM SEGMENT DATA FROM LAST STRESS PERIOD
 
 SOLVING FOR HEAD 


     7 CALLS TO PCG ROUTINE FOR TIME STEP   1 IN STRESS PERIOD   12
    24 TOTAL ITERATIONS

 OUTPUT CONTROL FOR STRESS PERIOD   12   TIME STEP    1
    SAVE BUDGET
    SAVE HEAD FOR ALL LAYERS
    PRINT HEAD FOR ALL LAYERS
 UBDSV2 SAVING "STREAMFLOW OUT  " ON UNIT  50 AT TIME STEP  1, STRESS PERIOD  12



 STREAM LISTING     PERIOD     12   STEP        1

 LAYER ROW COL. STREAM  RCH.  FLOW INTO     FLOW TO   FLOW OUT OF   OVRLND.     DIRECT     STREAM       STREAM     STREAM     STREAM   STREAMBED  STREAMBED
                SEG.NO.  NO.  STRM. RCH.    AQUIFER    STRM. RCH.    RUNOFF     PRECIP       ET          HEAD       DEPTH      WIDTH   CONDCTNC.   GRADIENT

   1   13    1     1     1    1.0000E+05 -1.3299E+03   1.0133E+05  0.000E+00  0.000E+00  0.000E+00  4.84066E+01  1.452E-01  2.000E+01  2.000E+04 -6.649E-02
   1   13    2     1     2    1.0133E+05 -2.2308E+03   1.0356E+05  0.000E+00  0.000E+00  0.000E+00  4.79309E+01  1.468E-01  2.000E+01  2.000E+04 -1.115E-01
   1   14    3     1     3    1.0356E+05 -3.9727E+02   1.0396E+05  0.000E+00  0.000E+00  0.000E+00  4.74547E+01  1.479E-01  2.000E+01  2.000E+04 -1.986E-02
   1   15    4     1     4    1.0396E+05 -3.8032E+02   1.0434E+05  0.000E+00  0.000E+00  0.000E+00  4.69778E+01  1.482E-01  2.000E+01  2.000E+04 -1.902E-02
   1   16    5     1     5    1.0434E+05 -1.4956E+03   1.0583E+05  0.000E+00  0.000E+00  0.000E+00  4.65013E+01  1.490E-01  2.000E+01  2.000E+04 -7.478E-02
   1   16    6     1     6    1.0583E+05 -9.2467E+02   1.0676E+05  0.000E+00  0.000E+00  0.000E+00  4.60250E+01  1.500E-01  2.000E+01  2.000E+04 -4.623E-02
   1   16    7     1     7    1.0676E+05 -8.8837E+02   1.0765E+05  0.000E+00  0.000E+00  0.000E+00  4.55485E+01  1.508E-01  2.000E+01  2.000E+04 -4.442E-02
   1   16    8     1     8    1.0765E+05 -8.6049E+02   1.0851E+05  0.000E+00  0.000E+00  0.000E+00  4.50720E+01  1.516E-01  2.000E+01  2.000E+04 -4.302E-02
   1   16    9     1     9    1.0851E+05 -8.2109E+02   1.0933E+05  0.000E+00  0.000E+00  0.000E+00  4.45954E+01  1.523E-01  2.000E+01  2.000E+04 -4.105E-02
   1   16   10     1    10    1.0933E+05 -7.6355E+02   1.1009E+05  0.000E+00  0.000E+00  0.000E+00  4.41188E+01  1.529E-01  2.000E+01  2.000E+04 -3.818E-02
   1   16   11     1    11    1.1009E+05 -6.8190E+02   1.1077E+05  0.000E+00  0.000E+00  0.000E+00  4.36422E+01  1.535E-01  2.000E+01  2.000E+04 -3.410E-02
   1   16   12     1    12    1.1077E+05 -7.5696E+02   1.1153E+05  0.000E+00  0.000E+00  0.000E+00  4.31655E+01  1.541E-01  2.000E+01  2.000E+04 -3.785E-02
   1   15   13     1    13    1.1153E+05 -3.2190E+02   1.1185E+05  0.000E+00  0.000E+00  0.000E+00  4.26887E+01  1.546E-01  2.000E+01  2.000E+04 -1.610E-02
   1   14   14     1    14    1.1185E+05 -1.9258E+02   1.1205E+05  0.000E+00  0.000E+00  0.000E+00  4.22116E+01  1.548E-01  2.000E+01  2.000E+04 -9.629E-03
   1   13   15     1    15    1.1205E+05 -8.4688E+01   1.1213E+05  0.000E+00  0.000E+00  0.000E+00  4.17344E+01  1.549E-01  2.000E+01  2.000E+04 -4.234E-03
   1   12   16     1    16    1.1213E+05  3.9765E+01   1.1209E+05  0.000E+00  0.000E+00  0.000E+00  4.12572E+01  1.549E-01  2.000E+01  2.000E+04  1.988E-03
   1   12   17     1    17    1.1209E+05  1.0890E+02   1.1198E+05  0.000E+00  0.000E+00  0.000E+00  4.07799E+01  1.549E-01  2.000E+01  2.000E+04  5.445E-03
   1   12   18     1    18    1.1198E+05 -6.1598E+01   1.1204E+05  0.000E+00  0.000E+00  0.000E+00  4.03026E+01  1.548E-01  2.000E+01  2.000E+04 -3.080E-03
   1   12   19     1    19    1.1204E+05 -6.9470E+02   1.1274E+05  0.000E+00  0.000E+00  0.000E+00  3.98256E+01  1.552E-01  2.000E+01  2.000E+04 -3.473E-02
   1   13   20     1    20    1.1274E+05  1.0861E+02   1.1263E+05  0.000E+00  0.000E+00  0.000E+00  3.93486E+01  1.554E-01  2.000E+01  2.000E+04  5.431E-03
   1   14   21     1    21    1.1263E+05  9.8834E+02   1.1164E+05  0.000E+00  0.000E+00  0.000E+00  3.88709E+01  1.549E-01  2.000E+01  2.000E+04  4.942E-02
   1   14   22     1    22    1.1164E+05  5.2063E+03   1.0643E+05  0.000E+00  0.000E+00  0.000E+00  3.83910E+01  1.524E-01  2.000E+01  2.000E+04  2.603E-01
   1    9   30     2     1    5.0000E+04 -5.6202E+02   5.0562E+04  0.000E+00  0.000E+00  0.000E+00  4.02413E+01  1.163E-01  2.000E+01  2.000E+04 -2.810E-02
   1    9   29     2     2    5.0562E+04 -8.4674E+02   5.1409E+04  0.000E+00  0.000E+00  0.000E+00  3.99922E+01  1.172E-01  2.000E+01  2.000E+04 -4.234E-02
   1    9   28     2     3    5.1409E+04 -1.0636E+03   5.2472E+04  0.000E+00  0.000E+00  0.000E+00  3.97435E+01  1.185E-01  2.000E+01  2.000E+04 -5.318E-02
   1    9   27     2     4    5.2472E+04 -2.0912E+03   5.4564E+04  0.000E+00  0.000E+00  0.000E+00  3.94957E+01  1.207E-01  2.000E+01  2.000E+04 -1.046E-01
   1   10   26     2     5    5.4564E+04 -1.3271E+03   5.5891E+04  0.000E+00  0.000E+00  0.000E+00  3.92480E+01  1.230E-01  2.000E+01  2.000E+04 -6.636E-02
   1   11   25     2     6    5.5891E+04 -1.1145E+03   5.7005E+04  0.000E+00  0.000E+00  0.000E+00  3.89996E+01  1.246E-01  2.000E+01  2.000E+04 -5.573E-02
   1   12   24     2     7    5.7005E+04 -1.1498E+03   5.8155E+04  0.000E+00  0.000E+00  0.000E+00  3.87511E+01  1.261E-01  2.000E+01  2.000E+04 -5.749E-02
   1   13   23     2     8    5.8155E+04 -1.9682E+02   5.8352E+04  0.000E+00  0.000E+00  0.000E+00  3.85020E+01  1.270E-01  2.000E+01  2.000E+04 -9.841E-03
   1   14   22     2     9    5.8352E+04  2.3973E+03   5.5955E+04  0.000E+00  0.000E+00  0.000E+00  3.82505E+01  1.255E-01  2.000E+01  2.000E+04  1.199E-01
   1   14   22     3     1    1.6239E+05 -8.2427E+03   1.7063E+05  0.000E+00  0.000E+00  0.000E+00  3.77185E+01  1.630E-01  2.000E+01  2.000E+04 -4.121E-01
   1   15   23     3     2    1.7063E+05 -1.5519E+02   1.7079E+05  0.000E+00  0.000E+00  0.000E+00  3.68321E+01  1.654E-01  2.000E+01  2.000E+04 -7.759E-03
   1   15   24     3     3    1.7079E+05 -1.8826E+02   1.7098E+05  0.000E+00  0.000E+00  0.000E+00  3.59433E+01  1.655E-01  2.000E+01  2.000E+04 -9.413E-03
   1   15   25     3     4    1.7098E+05 -2.1794E+02   1.7119E+05  0.000E+00  0.000E+00  0.000E+00  3.50546E+01  1.657E-01  2.000E+01  2.000E+04 -1.090E-02
   1   15   26     3     5    1.7119E+05 -3.0290E+02   1.7150E+05  0.000E+00  0.000E+00  0.000E+00  3.41658E+01  1.658E-01  2.000E+01  2.000E+04 -1.514E-02
   1   16   27     3     6    1.7150E+05 -3.1114E+02   1.7181E+05  0.000E+00  0.000E+00  0.000E+00  3.32771E+01  1.660E-01  2.000E+01  2.000E+04 -1.556E-02
   1   17   28     3     7    1.7181E+05 -1.3551E+03   1.7316E+05  0.000E+00  0.000E+00  0.000E+00  3.23887E+01  1.665E-01  2.000E+01  2.000E+04 -6.775E-02
   1   18   29     3     8    1.7316E+05 -2.4540E+03   1.7562E+05  0.000E+00  0.000E+00  0.000E+00  3.15009E+01  1.676E-01  2.000E+01  2.000E+04 -1.227E-01
   1   18   30     3     9    1.7562E+05 -2.9151E+03   1.7853E+05  0.000E+00  0.000E+00  0.000E+00  3.06136E+01  1.691E-01  2.000E+01  2.000E+04 -1.458E-01



1
              HEAD IN LAYER   1 AT END OF TIME STEP   1 IN STRESS PERIOD   12
  ---------------------------------------------------------------------------

          1      2      3      4      5      6      7      8      9     10
         11     12     13     14     15     16     17     18     19     20
         21     22     23     24     25     26     27     28     29     30
 .........................................................................
   1  ****** ****** ****** ****** ****** ****** ****** ****** ****** ******
      ****** ****** ****** ****** ****** ****** ****** ****** ****** ******
      ****** ****** ****** ****** ****** ****** ****** ****** ****** ******
   2  ****** ****** ****** ****** ****** ****** ****** ****** ****** ******
      ****** ****** ****** ****** ****** ****** ****** ****** ****** ******
      ****** ****** ****** ****** ****** ****** ****** ****** ****** ******
   3  ****** ****** ****** ****** ****** ****** ****** ****** ****** ******
      ****** ****** ****** ****** ****** ****** ****** ****** ****** ******
      ****** ****** ****** ****** ****** ****** ****** ****** ****** ******
   4  ****** ****** ****** ****** ****** ****** ****** ****** ****** ******
      ****** ****** ****** ****** ****** ****** ****** ****** ****** ******
      ****** ****** ****** ****** ****** ****** ****** ****** ****** ******
   5  ****** ****** ****** ****** ****** ****** ****** ****** ****** ******
      ****** ****** ****** ****** ****** ****** ****** ****** ****** ******
      ****** ****** ****** ****** ****** ****** ****** ****** ****** ******
   6  ****** ****** ****** ****** ****** ****** ****** ****** ****** ******
      ****** ****** ****** ****** ****** ****** ****** ****** ****** ******
      ****** ****** ****** ****** ****** ****** ****** ****** ****** ******
   7  ****** ****** ****** ****** ****** ****** ****** ****** ****** ******
      ****** ****** ****** ****** ****** ****** ****** ****** ****** ******
      ****** ****** ****** ****** ****** ****** ****** ****** ****** ******
   8  ****** ****** ****** ****** ****** ****** ****** ****** ****** ******
      ****** ****** ****** ****** ****** ****** ****** ****** ****** ******
      ****** ****** ****** ****** ****** ****** ****** ****** ****** ******
   9  ****** ****** ****** ****** ****** ****** ****** ****** ****** ******
      ****** ****** ****** ****** ****** ****** ****** ****** ****** ******
      ****** ****** ****** ****** ****** ****** ****** ****** ****** ******
  10  ****** ****** ****** ****** ****** ****** ****** ****** ****** ******
      ****** ****** ****** ****** ****** ****** ****** ****** ****** ******
      ****** ****** ****** ****** ****** ****** ****** ****** ****** ******
  11  ****** ****** ****** ****** ****** ****** ****** ****** ****** ******
      ****** ****** ****** ****** ****** ****** ****** ****** ****** ******
      ****** ****** ****** ****** ****** ****** ****** ****** ****** ******
  12  ****** ****** ****** ****** ****** ****** ****** ****** ****** ******
      ****** ****** ****** ****** ****** ****** ****** ****** ****** ******
      ****** ****** ****** ****** ****** ****** ****** ****** ****** ******
  13  ****** ****** ****** ****** ****** ****** ****** ****** ****** ******
      ****** ****** ****** ****** ****** ****** ****** ****** ****** ******
      ****** ****** ****** ****** ****** ****** ****** ****** ****** ******
  14  ****** ****** ****** ****** ****** ****** ****** ****** ****** ******
      ****** ****** ****** ****** ****** ****** ****** ****** ****** ******
      ****** ****** ****** ****** ****** ****** ****** ****** ****** ******
  15  ****** ****** ****** ****** ****** ****** ****** ****** ****** ******
      ****** ****** ****** ****** ****** ****** ****** ****** ****** ******
      ****** ****** ****** ****** ****** ****** ****** ****** ****** ******
  16  ****** ****** ****** ****** ****** ****** ****** ****** ****** ******
      ****** ****** ****** ****** ****** ****** ****** ****** ****** ******
      ****** ****** ****** ****** ****** ****** ****** ****** ****** ******
  17  ****** ****** ****** ****** ****** ****** ****** ****** ****** ******
      ****** ****** ****** ****** ****** ****** ****** ****** ****** ******
      ****** ****** ****** ****** ****** ****** ****** ****** ****** ******
  18  ****** ****** ****** ****** ****** ****** ****** ****** ****** ******
      ****** ****** ****** ****** ****** ****** ****** ****** ****** ******
      ****** ****** ****** ****** ****** ****** ****** ****** ****** ******
  19  ****** ****** ****** ****** ****** ****** ****** ****** ****** ******
      ****** ****** ****** ****** ****** ****** ****** ****** ****** ******
      ****** ****** ****** ****** ****** ****** ****** ****** ****** ******
  20  ****** ****** ****** ****** ****** ****** ****** ****** ****** ******
      ****** ****** ****** ****** ****** ****** ****** ****** ****** ******
      ****** ****** ****** ****** ****** ****** ****** ****** ****** ******
  21  ****** ****** ****** ****** ****** ****** ****** ****** ****** ******
      ****** ****** ****** ****** ****** ****** ****** ****** ****** ******
      ****** ****** ****** ****** ****** ****** ****** ****** ****** ******
  22  ****** ****** ****** ****** ****** ****** ****** ****** ****** ******
      ****** ****** ****** ****** ****** ****** ****** ****** ****** ******
      ****** ****** ****** ****** ****** ****** ****** ****** ****** ******
  23  ****** ****** ****** ****** ****** ****** ****** ****** ****** ******
      ****** ****** ****** ****** ****** ****** ****** ****** ****** ******
      ****** ****** ****** ****** ****** ****** ****** ****** ****** ******
  24  ****** ****** ****** ****** ****** ****** ****** ****** ****** ******
      ****** ****** ****** ****** ****** ****** ****** ****** ****** ******
      ****** ****** ****** ****** ****** ****** ****** ****** ****** ******
  25  ****** ****** ****** ****** ****** ****** ****** ****** ****** ******
      ****** ****** ****** ****** ****** ****** ****** ****** ****** ******
      ****** ****** ****** ****** ****** ****** ****** ****** ****** ******

 HEAD WILL BE SAVED ON UNIT   51 AT END OF TIME STEP    1, STRESS PERIOD   12
1
  VOLUMETRIC BUDGET FOR ENTIRE MODEL AT END OF TIME STEP    1, STRESS PERIOD  12
  ------------------------------------------------------------------------------

     CUMULATIVE VOLUMES      L**3       RATES FOR THIS TIME STEP      L**3/T
     ------------------                 ------------------------

           IN:                                      IN:
           ---                                      ---
             STORAGE =    37101159.5867               STORAGE =          40.8670
       CONSTANT HEAD =    33111026.8567         CONSTANT HEAD =       35789.9547
               WELLS =           0.0000                 WELLS =           0.0000
            RECHARGE =    26413200.0000              RECHARGE =       27600.0000
      STREAM LEAKAGE =     8689986.8806        STREAM LEAKAGE =        8849.1960

            TOTAL IN =   105315373.3240              TOTAL IN =       72280.0178

          OUT:                                     OUT:
          ----                                     ----
             STORAGE =     2513298.3946               STORAGE =        2917.2533
       CONSTANT HEAD =           0.0000         CONSTANT HEAD =           0.0000
               WELLS =    35020563.0326                 WELLS =       31982.2493
            RECHARGE =           0.0000              RECHARGE =           0.0000
      STREAM LEAKAGE =    67781513.8777        STREAM LEAKAGE =       37380.5142

           TOTAL OUT =   105315375.3049             TOTAL OUT =       72280.0168

            IN - OUT =          -1.9809              IN - OUT =       9.4084E-04

 PERCENT DISCREPANCY =          -0.00     PERCENT DISCREPANCY =           0.00






         TIME SUMMARY AT END OF TIME STEP    1 IN STRESS PERIOD   12
                    SECONDS     MINUTES      HOURS       DAYS        YEARS
                    -----------------------------------------------------------
   TIME STEP LENGTH 7.86240E+06 1.31040E+05  2184.0      91.000     0.24914    
 STRESS PERIOD TIME 7.86240E+06 1.31040E+05  2184.0      91.000     0.24914    
         TOTAL TIME 9.46080E+07 1.57680E+06  26280.      1095.0      2.9979    
1

 Run end date and time (yyyy/mm/dd hh:mm:ss): 2019/06/07 22:25:25
 Elapsed run time:  0.094 Seconds

