                                  MODFLOW-2005     
      U.S. GEOLOGICAL SURVEY MODULAR FINITE-DIFFERENCE GROUND-WATER FLOW MODEL
                            VERSION 1.11.00 8/8/2013

 LIST FILE: supply2.lst
                         UNIT   10

 OPENING ..\data\supply.dis
 FILE TYPE:DIS   UNIT   11   STATUS:OLD    
 FORMAT:FORMATTED              ACCESS:SEQUENTIAL          

 OPENING ..\data\supply.ba6
 FILE TYPE:BAS6   UNIT   12   STATUS:OLD    
 FORMAT:FORMATTED              ACCESS:SEQUENTIAL          

 OPENING ..\data\supply_het.bc6
 FILE TYPE:BCF6   UNIT   13   STATUS:OLD    
 FORMAT:FORMATTED              ACCESS:SEQUENTIAL          

 OPENING ..\data\supply.rch
 FILE TYPE:RCH   UNIT   15   STATUS:OLD    
 FORMAT:FORMATTED              ACCESS:SEQUENTIAL          

 OPENING ..\data\supply2.sfr
 FILE TYPE:SFR   UNIT   16   STATUS:OLD    
 FORMAT:FORMATTED              ACCESS:SEQUENTIAL          

 OPENING ..\data\supply.oc
 FILE TYPE:OC   UNIT   17   STATUS:OLD    
 FORMAT:FORMATTED              ACCESS:SEQUENTIAL          

 OPENING ..\data\supply.pcg
 FILE TYPE:PCG   UNIT   18   STATUS:OLD    
 FORMAT:FORMATTED              ACCESS:SEQUENTIAL          

 OPENING supply2.wel
 FILE TYPE:WEL   UNIT   19   STATUS:OLD    
 FORMAT:FORMATTED              ACCESS:SEQUENTIAL          

 OPENING supply2sf.cbc
 FILE TYPE:DATA(BINARY)   UNIT   50   STATUS:UNKNOWN
 FORMAT:BINARY                 ACCESS:SEQUENTIAL          

 OPENING supply2hd.bhd
 FILE TYPE:DATA(BINARY)   UNIT   51   STATUS:UNKNOWN
 FORMAT:BINARY                 ACCESS:SEQUENTIAL          

 BAS -- BASIC PACKAGE, VERSION 7, 5/2/2005 INPUT READ FROM UNIT   12
 
 MODFLOW was compiled using uniform precision
 Precision of REAL and DOUBLE PRECISION variables:          15

 DISCRETIZATION INPUT DATA READ FROM UNIT   11
    1 LAYERS        25 ROWS        30 COLUMNS
   12 STRESS PERIOD(S) IN SIMULATION
 MODEL TIME UNIT IS DAYS
 MODEL LENGTH UNIT IS UNDEFINED
  Confining bed flag for each layer:
   0

                     DELR =   200.000    

                     DELC =   200.000    

 TOP ELEVATION OF LAYER 1 =  100.0000    

   MODEL LAYER BOTTOM EL. =   0.00000     FOR LAYER   1


 STRESS PERIOD     LENGTH       TIME STEPS     MULTIPLIER FOR DELT    SS FLAG
 ----------------------------------------------------------------------------
        1         92.00000          1                    1.500         TR
        2         91.00000          1                    1.500         TR
        3         91.00000          1                    1.500         TR
        4         91.00000          1                    1.500         TR
        5         92.00000          1                    1.500         TR
        6         91.00000          1                    1.500         TR
        7         91.00000          1                    1.500         TR
        8         91.00000          1                    1.500         TR
        9         92.00000          1                    1.500         TR
       10         91.00000          1                    1.500         TR
       11         91.00000          1                    1.500         TR
       12         91.00000          1                    1.500         TR

 TRANSIENT SIMULATION



 
 #MODOFC transient water supply sample problem                                   
 #                                                                               
 THE FREE FORMAT OPTION HAS BEEN SELECTED



                     BOUNDARY ARRAY FOR LAYER   1
 READING ON UNIT   12 WITH FORMAT: (20I4)              

 AQUIFER HEAD WILL BE SET TO   0.0000     AT ALL NO-FLOW NODES (IBOUND=0).



                       INITIAL HEAD FOR LAYER   1
 READING ON UNIT   12 WITH FORMAT: (10F13.0)           

 OUTPUT CONTROL IS SPECIFIED ONLY AT TIME STEPS FOR WHICH OUTPUT IS DESIRED
 COMPACT CELL-BY-CELL BUDGET FILES WILL BE WRITTEN
 HEAD PRINT FORMAT CODE IS  18    DRAWDOWN PRINT FORMAT CODE IS   0
 HEADS WILL BE SAVED ON UNIT   51    DRAWDOWNS WILL BE SAVED ON UNIT    0

 BCF -- BLOCK-CENTERED FLOW PACKAGE, VERSION 7, 5/2/2005
         INPUT READ FROM UNIT 13
 TRANSIENT SIMULATION
 HEAD AT CELLS THAT CONVERT TO DRY=   0.0000    
 WETTING CAPABILITY IS NOT ACTIVE
      LAYER  LAYER-TYPE CODE     INTERBLOCK T
      --------------------------------------------
         1            0          0 -- HARMONIC    

 COLUMN TO ROW ANISOTROPY =  1.000000    

     PRIMARY STORAGE COEF =  5.000000E-02 FOR LAYER   1



               TRANSMIS. ALONG ROWS FOR LAYER   1
 READING ON UNIT   13 WITH FORMAT: (FREE)              

 WEL -- WELL PACKAGE, VERSION 7, 5/2/2005 INPUT READ FROM UNIT   19
 # Well package input file written by MMProc
 No named parameters
 MAXIMUM OF      4 ACTIVE WELLS AT ONE TIME


     0 Well parameters

 RCH -- RECHARGE PACKAGE, VERSION 7, 5/2/2005 INPUT READ FROM UNIT   15
 No named parameters
 OPTION 1 -- RECHARGE TO TOP LAYER


     0 Recharge parameters

 SFR7 -- STREAMFLOW ROUTING PACKAGE, VERSION 1.0.7, 2013-01-15
         INPUT READ FROM UNIT  16
 #  Supply2 test problem for GWM-VI
 #  The eighth entry in the first data line is ISTCB2 -
 #    Setting this to a negative number indicates that
 #    streamflows out of the reach will be saved to a
 #    binary file.  The absolute value of ISTCB2 is the
 #    unit to which unformatted flows will be written.
 #
 No named parameters
 Segment information will not be 
 read by reach
 No named parameters
 No specifed inflow files


 NUMBER OF STREAM REACHES IS   40

 NUMBER OF STREAM SEGMENTS IS    3

 NUMBER OF STREAM PARAMETERS IS    0

 NUMBER OF STREAM SEGMENTS DEFINED USING PARAMETERS IS              0

 MAXIMUM ERROR FOR STREAM LEAKAGE RATES IS  1.00E-04

 CONSTANT FOR MANNINGS EQUATION IS  1.2839E+05





   STREAM NETWORK DESCRIPTION: 

   LAYER    ROW    COL   SEGMENT   REACH     LENGTH
                          NUMBER   NUMBER    IN CELL        
   --------------------------------------------------
      1     13      1       1        1    2.0000E+02
      1     13      2       1        2    2.0000E+02
      1     14      3       1        3    2.0000E+02
      1     15      4       1        4    2.0000E+02
      1     16      5       1        5    2.0000E+02
      1     16      6       1        6    2.0000E+02
      1     16      7       1        7    2.0000E+02
      1     16      8       1        8    2.0000E+02
      1     16      9       1        9    2.0000E+02
      1     16     10       1       10    2.0000E+02
      1     16     11       1       11    2.0000E+02
      1     16     12       1       12    2.0000E+02
      1     15     13       1       13    2.0000E+02
      1     14     14       1       14    2.0000E+02
      1     13     15       1       15    2.0000E+02
      1     12     16       1       16    2.0000E+02
      1     12     17       1       17    2.0000E+02
      1     12     18       1       18    2.0000E+02
      1     12     19       1       19    2.0000E+02
      1     13     20       1       20    2.0000E+02
      1     14     21       1       21    2.0000E+02
      1     14     22       1       22    2.0000E+02
      1      9     30       2        1    2.0000E+02
      1      9     29       2        2    2.0000E+02
      1      9     28       2        3    2.0000E+02
      1      9     27       2        4    2.0000E+02
      1     10     26       2        5    2.0000E+02
      1     11     25       2        6    2.0000E+02
      1     12     24       2        7    2.0000E+02
      1     13     23       2        8    2.0000E+02
      1     14     22       2        9    2.0000E+02
      1     14     22       3        1    2.0000E+02
      1     15     23       3        2    2.0000E+02
      1     15     24       3        3    2.0000E+02
      1     15     25       3        4    2.0000E+02
      1     15     26       3        5    2.0000E+02
      1     16     27       3        6    2.0000E+02
      1     17     28       3        7    2.0000E+02
      1     18     29       3        8    2.0000E+02
      1     18     30       3        9    2.0000E+02




 PCG -- CONJUGATE-GRADIENT SOLUTION PACKAGE, VERSION 7, 5/2/2005
 MAXIMUM OF    500 CALLS OF SOLUTION ROUTINE
 MAXIMUM OF      5 INTERNAL ITERATIONS PER CALL TO SOLUTION ROUTINE
 MATRIX PRECONDITIONING TYPE :    1



                                    SOLUTION BY THE CONJUGATE-GRADIENT METHOD
                                   -------------------------------------------
                    MAXIMUM NUMBER OF CALLS TO PCG ROUTINE =      500
                        MAXIMUM ITERATIONS PER CALL TO PCG =        5
                               MATRIX PRECONDITIONING TYPE =        1
        RELAXATION FACTOR (ONLY USED WITH PRECOND. TYPE 1) =    0.10000E+01
 PARAMETER OF POLYNOMIAL PRECOND. = 2 (2) OR IS CALCULATED :        0
                         HEAD CHANGE CRITERION FOR CLOSURE =    0.10000E-05
                     RESIDUAL CHANGE CRITERION FOR CLOSURE =    0.10000E+01
            PCG HEAD AND RESIDUAL CHANGE PRINTOUT INTERVAL =        1
     PRINTING FROM SOLVER IS LIMITED(1) OR SUPPRESSED (>1) =        1
                            STEADY-STATE DAMPING PARAMETER =    0.10000E+01
                               TRANSIENT DAMPING PARAMETER =    0.10000E+01
1
                            STRESS PERIOD NO.    1, LENGTH =   92.00000    
                            -----------------------------------------------

                              NUMBER OF TIME STEPS =     1

                               MULTIPLIER FOR DELT =     1.500

                            INITIAL TIME STEP SIZE =   92.00000    

 WELL NO.  LAYER   ROW   COL   STRESS RATE         
 --------------------------------------------------
      1      1      6     22      -8915.    
      2      1     16     17      -8329.    
      3      1      8     28     -0.1208E+05
      4      1     15     19      -9150.    

      4 WELLS

                 RECHARGE =  5.000000E-04



 CLASSIFICATION & COUNT OF STREAM SEGMENTS BASED ON SOURCE OF INFLOW:

                HEADWATER     DIVERSION     RECEIVES TRIBUTARY FLOW
                ---------     ---------     -----------------------
                     2              0               1



                    INPUT DATA FOR EACH STREAM SEGMENT
 ---------------------------------------------------------------------------------------------

 SEGMENT    SEG.     INFLOW   OVERLAND   STREAM    STREAM   ICALC  OUTFLOW  DIVERSION PRIORITY
    NO.    LENGTH     RATE     RUNOFF      ET       PPT.    METH.  TO SEG.  FROM SEG.    NO.

      1  4.400E+03 1.000E+05 0.000E+00 0.000E+00 0.000E+00    1        3        0        0
      2  1.800E+03 5.000E+04 0.000E+00 0.000E+00 0.000E+00    1        3        0        0
      3  1.800E+03 0.000E+00 0.000E+00 0.000E+00 0.000E+00    1        0        0        0


         STREAMBED PROPERTIES AND STREAM DIMENSIONS

 SEGMENT     BED HYD. COND.      BED THICKNESS     ELEV.-TOP OF BED     WIDTH OF STREAM     DEPTH OF STREAM    STREAM ROUGHNESS
    No.     UPPER     LOWER     UPPER     LOWER     UPPER     LOWER     UPPER     LOWER     UPPER     LOWER   CHANNEL      BANK

     1  5.000E+00 5.000E+00 1.000E+00 1.000E+00 4.850E+01 3.800E+01 2.000E+01 2.000E+01                     5.000E-02
     2  5.000E+00 5.000E+00 1.000E+00 1.000E+00 4.025E+01 3.800E+01 2.000E+01 2.000E+01                     5.000E-02
     3  5.000E+00 5.000E+00 1.000E+00 1.000E+00 3.800E+01 3.000E+01 2.000E+01 2.000E+01                     5.000E-02



 
 SOLVING FOR HEAD 


     9 CALLS TO PCG ROUTINE FOR TIME STEP   1 IN STRESS PERIOD    1
    36 TOTAL ITERATIONS

 OUTPUT CONTROL FOR STRESS PERIOD    1   TIME STEP    1
    SAVE BUDGET
    SAVE HEAD FOR ALL LAYERS
    PRINT HEAD FOR ALL LAYERS
 UBDSV2 SAVING "STREAMFLOW OUT  " ON UNIT  50 AT TIME STEP  1, STRESS PERIOD   1



 STREAM LISTING     PERIOD      1   STEP        1

 LAYER ROW COL. STREAM  RCH.  FLOW INTO     FLOW TO   FLOW OUT OF   OVRLND.     DIRECT     STREAM       STREAM     STREAM     STREAM   STREAMBED  STREAMBED
                SEG.NO.  NO.  STRM. RCH.    AQUIFER    STRM. RCH.    RUNOFF     PRECIP       ET          HEAD       DEPTH      WIDTH   CONDCTNC.   GRADIENT

   1   13    1     1     1    1.0000E+05 -6.1205E+03   1.0612E+05  0.000E+00  0.000E+00  0.000E+00  4.84087E+01  1.473E-01  2.000E+01  2.000E+04 -3.060E-01
   1   13    2     1     2    1.0612E+05 -7.5902E+03   1.1371E+05  0.000E+00  0.000E+00  0.000E+00  4.79372E+01  1.531E-01  2.000E+01  2.000E+04 -3.795E-01
   1   14    3     1     3    1.1371E+05 -2.1984E+03   1.1591E+05  0.000E+00  0.000E+00  0.000E+00  4.74640E+01  1.571E-01  2.000E+01  2.000E+04 -1.099E-01
   1   15    4     1     4    1.1591E+05 -2.2690E+03   1.1818E+05  0.000E+00  0.000E+00  0.000E+00  4.69885E+01  1.590E-01  2.000E+01  2.000E+04 -1.135E-01
   1   16    5     1     5    1.1818E+05 -7.1696E+03   1.2535E+05  0.000E+00  0.000E+00  0.000E+00  4.65151E+01  1.628E-01  2.000E+01  2.000E+04 -3.585E-01
   1   16    6     1     6    1.2535E+05 -4.2898E+03   1.2964E+05  0.000E+00  0.000E+00  0.000E+00  4.60423E+01  1.673E-01  2.000E+01  2.000E+04 -2.145E-01
   1   16    7     1     7    1.2964E+05 -4.1192E+03   1.3376E+05  0.000E+00  0.000E+00  0.000E+00  4.55684E+01  1.706E-01  2.000E+01  2.000E+04 -2.060E-01
   1   16    8     1     8    1.3376E+05 -4.0693E+03   1.3783E+05  0.000E+00  0.000E+00  0.000E+00  4.50943E+01  1.738E-01  2.000E+01  2.000E+04 -2.035E-01
   1   16    9     1     9    1.3783E+05 -4.0439E+03   1.4187E+05  0.000E+00  0.000E+00  0.000E+00  4.46201E+01  1.769E-01  2.000E+01  2.000E+04 -2.022E-01
   1   16   10     1    10    1.4187E+05 -4.0157E+03   1.4589E+05  0.000E+00  0.000E+00  0.000E+00  4.41458E+01  1.799E-01  2.000E+01  2.000E+04 -2.008E-01
   1   16   11     1    11    1.4589E+05 -3.9976E+03   1.4988E+05  0.000E+00  0.000E+00  0.000E+00  4.36716E+01  1.829E-01  2.000E+01  2.000E+04 -1.999E-01
   1   16   12     1    12    1.4988E+05 -6.5195E+03   1.5640E+05  0.000E+00  0.000E+00  0.000E+00  4.31982E+01  1.868E-01  2.000E+01  2.000E+04 -3.260E-01
   1   15   13     1    13    1.5640E+05 -6.6100E+03   1.6301E+05  0.000E+00  0.000E+00  0.000E+00  4.27257E+01  1.916E-01  2.000E+01  2.000E+04 -3.305E-01
   1   14   14     1    14    1.6301E+05 -6.8643E+03   1.6988E+05  0.000E+00  0.000E+00  0.000E+00  4.22532E+01  1.964E-01  2.000E+01  2.000E+04 -3.432E-01
   1   13   15     1    15    1.6988E+05 -7.1765E+03   1.7705E+05  0.000E+00  0.000E+00  0.000E+00  4.17808E+01  2.013E-01  2.000E+01  2.000E+04 -3.588E-01
   1   12   16     1    16    1.7705E+05 -8.2672E+03   1.8532E+05  0.000E+00  0.000E+00  0.000E+00  4.13089E+01  2.066E-01  2.000E+01  2.000E+04 -4.134E-01
   1   12   17     1    17    1.8532E+05 -5.4552E+03   1.9078E+05  0.000E+00  0.000E+00  0.000E+00  4.08363E+01  2.113E-01  2.000E+01  2.000E+04 -2.728E-01
   1   12   18     1    18    1.9078E+05 -5.1449E+03   1.9592E+05  0.000E+00  0.000E+00  0.000E+00  4.03626E+01  2.148E-01  2.000E+01  2.000E+04 -2.572E-01
   1   12   19     1    19    1.9592E+05 -6.6562E+03   2.0258E+05  0.000E+00  0.000E+00  0.000E+00  3.98892E+01  2.188E-01  2.000E+01  2.000E+04 -3.328E-01
   1   13   20     1    20    2.0258E+05 -4.8789E+03   2.0746E+05  0.000E+00  0.000E+00  0.000E+00  3.94157E+01  2.225E-01  2.000E+01  2.000E+04 -2.439E-01
   1   14   21     1    21    2.0746E+05 -4.3256E+03   2.1178E+05  0.000E+00  0.000E+00  0.000E+00  3.89414E+01  2.255E-01  2.000E+01  2.000E+04 -2.163E-01
   1   14   22     1    22    2.1178E+05  3.9549E+03   2.0783E+05  0.000E+00  0.000E+00  0.000E+00  3.84643E+01  2.256E-01  2.000E+01  2.000E+04  1.977E-01
   1    9   30     2     1    5.0000E+04 -3.7571E+03   5.3757E+04  0.000E+00  0.000E+00  0.000E+00  4.02435E+01  1.185E-01  2.000E+01  2.000E+04 -1.879E-01
   1    9   29     2     2    5.3757E+04 -3.2879E+03   5.7045E+04  0.000E+00  0.000E+00  0.000E+00  3.99982E+01  1.232E-01  2.000E+01  2.000E+04 -1.644E-01
   1    9   28     2     3    5.7045E+04 -1.1305E+03   5.8175E+04  0.000E+00  0.000E+00  0.000E+00  3.97511E+01  1.261E-01  2.000E+01  2.000E+04 -5.652E-02
   1    9   27     2     4    5.8175E+04 -5.9194E+03   6.4095E+04  0.000E+00  0.000E+00  0.000E+00  3.95057E+01  1.307E-01  2.000E+01  2.000E+04 -2.960E-01
   1   10   26     2     5    6.4095E+04 -6.5188E+03   7.0614E+04  0.000E+00  0.000E+00  0.000E+00  3.92635E+01  1.385E-01  2.000E+01  2.000E+04 -3.259E-01
   1   11   25     2     6    7.0614E+04 -6.2755E+03   7.6889E+04  0.000E+00  0.000E+00  0.000E+00  3.90213E+01  1.463E-01  2.000E+01  2.000E+04 -3.138E-01
   1   12   24     2     7    7.6889E+04 -5.9196E+03   8.2809E+04  0.000E+00  0.000E+00  0.000E+00  3.87784E+01  1.534E-01  2.000E+01  2.000E+04 -2.960E-01
   1   13   23     2     8    8.2809E+04 -1.6025E+03   8.4411E+04  0.000E+00  0.000E+00  0.000E+00  3.85327E+01  1.577E-01  2.000E+01  2.000E+04 -8.013E-02
   1   14   22     2     9    8.4411E+04  3.3840E+02   8.4073E+04  0.000E+00  0.000E+00  0.000E+00  3.82834E+01  1.584E-01  2.000E+01  2.000E+04  1.692E-02
   1   14   22     3     1    2.9190E+05 -9.6092E+03   3.0151E+05  0.000E+00  0.000E+00  0.000E+00  3.77861E+01  2.305E-01  2.000E+01  2.000E+04 -4.805E-01
   1   15   23     3     2    3.0151E+05 -1.8249E+03   3.0333E+05  0.000E+00  0.000E+00  0.000E+00  3.68998E+01  2.332E-01  2.000E+01  2.000E+04 -9.124E-02
   1   15   24     3     3    3.0333E+05 -1.5102E+03   3.0484E+05  0.000E+00  0.000E+00  0.000E+00  3.60117E+01  2.339E-01  2.000E+01  2.000E+04 -7.551E-02
   1   15   25     3     4    3.0484E+05 -1.5713E+03   3.0642E+05  0.000E+00  0.000E+00  0.000E+00  3.51235E+01  2.346E-01  2.000E+01  2.000E+04 -7.856E-02
   1   15   26     3     5    3.0642E+05 -1.8791E+03   3.0829E+05  0.000E+00  0.000E+00  0.000E+00  3.42354E+01  2.354E-01  2.000E+01  2.000E+04 -9.395E-02
   1   16   27     3     6    3.0829E+05 -2.1586E+03   3.1045E+05  0.000E+00  0.000E+00  0.000E+00  3.33475E+01  2.364E-01  2.000E+01  2.000E+04 -1.079E-01
   1   17   28     3     7    3.1045E+05 -6.5564E+03   3.1701E+05  0.000E+00  0.000E+00  0.000E+00  3.24606E+01  2.384E-01  2.000E+01  2.000E+04 -3.278E-01
   1   18   29     3     8    3.1701E+05 -7.9490E+03   3.2496E+05  0.000E+00  0.000E+00  0.000E+00  3.15750E+01  2.417E-01  2.000E+01  2.000E+04 -3.974E-01
   1   18   30     3     9    3.2496E+05 -7.1480E+03   3.3211E+05  0.000E+00  0.000E+00  0.000E+00  3.06895E+01  2.450E-01  2.000E+01  2.000E+04 -3.574E-01



1
              HEAD IN LAYER   1 AT END OF TIME STEP   1 IN STRESS PERIOD    1
  ---------------------------------------------------------------------------

          1      2      3      4      5      6      7      8      9     10
         11     12     13     14     15     16     17     18     19     20
         21     22     23     24     25     26     27     28     29     30
 .........................................................................
   1  ****** ****** ****** ****** ****** ****** ****** ****** ****** ******
      ****** ****** ****** ****** ****** ****** ****** ****** ****** ******
      ****** ****** ****** ****** ****** ****** ****** ****** ****** ******
   2  ****** ****** ****** ****** ****** ****** ****** ****** ****** ******
      ****** ****** ****** ****** ****** ****** ****** ****** ****** ******
      ****** ****** ****** ****** ****** ****** ****** ****** ****** ******
   3  ****** ****** ****** ****** ****** ****** ****** ****** ****** ******
      ****** ****** ****** ****** ****** ****** ****** ****** ****** ******
      ****** ****** ****** ****** ****** ****** ****** ****** ****** ******
   4  ****** ****** ****** ****** ****** ****** ****** ****** ****** ******
      ****** ****** ****** ****** ****** ****** ****** ****** ****** ******
      ****** ****** ****** ****** ****** ****** ****** ****** ****** ******
   5  ****** ****** ****** ****** ****** ****** ****** ****** ****** ******
      ****** ****** ****** ****** ****** ****** ****** ****** ****** ******
      ****** ****** ****** ****** ****** ****** ****** ****** ****** ******
   6  ****** ****** ****** ****** ****** ****** ****** ****** ****** ******
      ****** ****** ****** ****** ****** ****** ****** ****** ****** ******
      ****** ****** ****** ****** ****** ****** ****** ****** ****** ******
   7  ****** ****** ****** ****** ****** ****** ****** ****** ****** ******
      ****** ****** ****** ****** ****** ****** ****** ****** ****** ******
      ****** ****** ****** ****** ****** ****** ****** ****** ****** ******
   8  ****** ****** ****** ****** ****** ****** ****** ****** ****** ******
      ****** ****** ****** ****** ****** ****** ****** ****** ****** ******
      ****** ****** ****** ****** ****** ****** ****** ****** ****** ******
   9  ****** ****** ****** ****** ****** ****** ****** ****** ****** ******
      ****** ****** ****** ****** ****** ****** ****** ****** ****** ******
      ****** ****** ****** ****** ****** ****** ****** ****** ****** ******
  10  ****** ****** ****** ****** ****** ****** ****** ****** ****** ******
      ****** ****** ****** ****** ****** ****** ****** ****** ****** ******
      ****** ****** ****** ****** ****** ****** ****** ****** ****** ******
  11  ****** ****** ****** ****** ****** ****** ****** ****** ****** ******
      ****** ****** ****** ****** ****** ****** ****** ****** ****** ******
      ****** ****** ****** ****** ****** ****** ****** ****** ****** ******
  12  ****** ****** ****** ****** ****** ****** ****** ****** ****** ******
      ****** ****** ****** ****** ****** ****** ****** ****** ****** ******
      ****** ****** ****** ****** ****** ****** ****** ****** ****** ******
  13  ****** ****** ****** ****** ****** ****** ****** ****** ****** ******
      ****** ****** ****** ****** ****** ****** ****** ****** ****** ******
      ****** ****** ****** ****** ****** ****** ****** ****** ****** ******
  14  ****** ****** ****** ****** ****** ****** ****** ****** ****** ******
      ****** ****** ****** ****** ****** ****** ****** ****** ****** ******
      ****** ****** ****** ****** ****** ****** ****** ****** ****** ******
  15  ****** ****** ****** ****** ****** ****** ****** ****** ****** ******
      ****** ****** ****** ****** ****** ****** ****** ****** ****** ******
      ****** ****** ****** ****** ****** ****** ****** ****** ****** ******
  16  ****** ****** ****** ****** ****** ****** ****** ****** ****** ******
      ****** ****** ****** ****** ****** ****** ****** ****** ****** ******
      ****** ****** ****** ****** ****** ****** ****** ****** ****** ******
  17  ****** ****** ****** ****** ****** ****** ****** ****** ****** ******
      ****** ****** ****** ****** ****** ****** ****** ****** ****** ******
      ****** ****** ****** ****** ****** ****** ****** ****** ****** ******
  18  ****** ****** ****** ****** ****** ****** ****** ****** ****** ******
      ****** ****** ****** ****** ****** ****** ****** ****** ****** ******
      ****** ****** ****** ****** ****** ****** ****** ****** ****** ******
  19  ****** ****** ****** ****** ****** ****** ****** ****** ****** ******
      ****** ****** ****** ****** ****** ****** ****** ****** ****** ******
      ****** ****** ****** ****** ****** ****** ****** ****** ****** ******
  20  ****** ****** ****** ****** ****** ****** ****** ****** ****** ******
      ****** ****** ****** ****** ****** ****** ****** ****** ****** ******
      ****** ****** ****** ****** ****** ****** ****** ****** ****** ******
  21  ****** ****** ****** ****** ****** ****** ****** ****** ****** ******
      ****** ****** ****** ****** ****** ****** ****** ****** ****** ******
      ****** ****** ****** ****** ****** ****** ****** ****** ****** ******
  22  ****** ****** ****** ****** ****** ****** ****** ****** ****** ******
      ****** ****** ****** ****** ****** ****** ****** ****** ****** ******
      ****** ****** ****** ****** ****** ****** ****** ****** ****** ******
  23  ****** ****** ****** ****** ****** ****** ****** ****** ****** ******
      ****** ****** ****** ****** ****** ****** ****** ****** ****** ******
      ****** ****** ****** ****** ****** ****** ****** ****** ****** ******
  24  ****** ****** ****** ****** ****** ****** ****** ****** ****** ******
      ****** ****** ****** ****** ****** ****** ****** ****** ****** ******
      ****** ****** ****** ****** ****** ****** ****** ****** ****** ******
  25  ****** ****** ****** ****** ****** ****** ****** ****** ****** ******
      ****** ****** ****** ****** ****** ****** ****** ****** ****** ******
      ****** ****** ****** ****** ****** ****** ****** ****** ****** ******

 HEAD WILL BE SAVED ON UNIT   51 AT END OF TIME STEP    1, STRESS PERIOD    1
1
  VOLUMETRIC BUDGET FOR ENTIRE MODEL AT END OF TIME STEP    1, STRESS PERIOD   1
  ------------------------------------------------------------------------------

     CUMULATIVE VOLUMES      L**3       RATES FOR THIS TIME STEP      L**3/T
     ------------------                 ------------------------

           IN:                                      IN:
           ---                                      ---
             STORAGE =    17858133.1952               STORAGE =      194110.1434
       CONSTANT HEAD =     1165388.5961         CONSTANT HEAD =       12667.2673
               WELLS =           0.0000                 WELLS =           0.0000
            RECHARGE =     1269600.0000              RECHARGE =       13800.0000
      STREAM LEAKAGE =      394984.9437        STREAM LEAKAGE =        4293.3146

            TOTAL IN =    20688106.7351              TOTAL IN =      224870.7254

          OUT:                                     OUT:
          ----                                     ----
             STORAGE =           0.0000               STORAGE =           0.0000
       CONSTANT HEAD =           0.0000         CONSTANT HEAD =           0.0000
               WELLS =     3539360.8527                 WELLS =       38471.3136
            RECHARGE =           0.0000              RECHARGE =           0.0000
      STREAM LEAKAGE =    17148746.1744        STREAM LEAKAGE =      186399.4149

           TOTAL OUT =    20688107.0271             TOTAL OUT =      224870.7286

            IN - OUT =          -0.2920              IN - OUT =      -3.1738E-03

 PERCENT DISCREPANCY =          -0.00     PERCENT DISCREPANCY =          -0.00






         TIME SUMMARY AT END OF TIME STEP    1 IN STRESS PERIOD    1
                    SECONDS     MINUTES      HOURS       DAYS        YEARS
                    -----------------------------------------------------------
   TIME STEP LENGTH 7.94880E+06 1.32480E+05  2208.0      92.000     0.25188    
 STRESS PERIOD TIME 7.94880E+06 1.32480E+05  2208.0      92.000     0.25188    
         TOTAL TIME 7.94880E+06 1.32480E+05  2208.0      92.000     0.25188    
1
1
                            STRESS PERIOD NO.    2, LENGTH =   91.00000    
                            -----------------------------------------------

                              NUMBER OF TIME STEPS =     1

                               MULTIPLIER FOR DELT =     1.500

                            INITIAL TIME STEP SIZE =   91.00000    

 WELL NO.  LAYER   ROW   COL   STRESS RATE         
 --------------------------------------------------
      1      1      6     22      -8915.    
      2      1     16     17      -8329.    
      3      1      8     28     -0.1208E+05
      4      1     15     19      -9150.    

      4 WELLS

                 RECHARGE =  2.000000E-03

 REUSING STREAM SEGMENT DATA FROM LAST STRESS PERIOD
 
 SOLVING FOR HEAD 


     7 CALLS TO PCG ROUTINE FOR TIME STEP   1 IN STRESS PERIOD    2
    27 TOTAL ITERATIONS

 OUTPUT CONTROL FOR STRESS PERIOD    2   TIME STEP    1
    SAVE BUDGET
    SAVE HEAD FOR ALL LAYERS
    PRINT HEAD FOR ALL LAYERS
 UBDSV2 SAVING "STREAMFLOW OUT  " ON UNIT  50 AT TIME STEP  1, STRESS PERIOD   2



 STREAM LISTING     PERIOD      2   STEP        1

 LAYER ROW COL. STREAM  RCH.  FLOW INTO     FLOW TO   FLOW OUT OF   OVRLND.     DIRECT     STREAM       STREAM     STREAM     STREAM   STREAMBED  STREAMBED
                SEG.NO.  NO.  STRM. RCH.    AQUIFER    STRM. RCH.    RUNOFF     PRECIP       ET          HEAD       DEPTH      WIDTH   CONDCTNC.   GRADIENT

   1   13    1     1     1    1.0000E+05 -4.0040E+03   1.0400E+05  0.000E+00  0.000E+00  0.000E+00  4.84077E+01  1.464E-01  2.000E+01  2.000E+04 -2.002E-01
   1   13    2     1     2    1.0400E+05 -5.2664E+03   1.0927E+05  0.000E+00  0.000E+00  0.000E+00  4.79344E+01  1.503E-01  2.000E+01  2.000E+04 -2.633E-01
   1   14    3     1     3    1.0927E+05 -1.1148E+03   1.1039E+05  0.000E+00  0.000E+00  0.000E+00  4.74598E+01  1.530E-01  2.000E+01  2.000E+04 -5.574E-02
   1   15    4     1     4    1.1039E+05 -1.1412E+03   1.1153E+05  0.000E+00  0.000E+00  0.000E+00  4.69835E+01  1.540E-01  2.000E+01  2.000E+04 -5.706E-02
   1   16    5     1     5    1.1153E+05 -4.2202E+03   1.1575E+05  0.000E+00  0.000E+00  0.000E+00  4.65085E+01  1.562E-01  2.000E+01  2.000E+04 -2.110E-01
   1   16    6     1     6    1.1575E+05 -2.4796E+03   1.1823E+05  0.000E+00  0.000E+00  0.000E+00  4.60339E+01  1.589E-01  2.000E+01  2.000E+04 -1.240E-01
   1   16    7     1     7    1.1823E+05 -2.3761E+03   1.2060E+05  0.000E+00  0.000E+00  0.000E+00  4.55586E+01  1.609E-01  2.000E+01  2.000E+04 -1.188E-01
   1   16    8     1     8    1.2060E+05 -2.3319E+03   1.2293E+05  0.000E+00  0.000E+00  0.000E+00  4.50833E+01  1.628E-01  2.000E+01  2.000E+04 -1.166E-01
   1   16    9     1     9    1.2293E+05 -2.2875E+03   1.2522E+05  0.000E+00  0.000E+00  0.000E+00  4.46078E+01  1.646E-01  2.000E+01  2.000E+04 -1.144E-01
   1   16   10     1    10    1.2522E+05 -2.2241E+03   1.2745E+05  0.000E+00  0.000E+00  0.000E+00  4.41323E+01  1.664E-01  2.000E+01  2.000E+04 -1.112E-01
   1   16   11     1    11    1.2745E+05 -2.1526E+03   1.2960E+05  0.000E+00  0.000E+00  0.000E+00  4.36568E+01  1.682E-01  2.000E+01  2.000E+04 -1.076E-01
   1   16   12     1    12    1.2960E+05 -3.4411E+03   1.3304E+05  0.000E+00  0.000E+00  0.000E+00  4.31817E+01  1.703E-01  2.000E+01  2.000E+04 -1.721E-01
   1   15   13     1    13    1.3304E+05 -3.1709E+03   1.3621E+05  0.000E+00  0.000E+00  0.000E+00  4.27070E+01  1.729E-01  2.000E+01  2.000E+04 -1.585E-01
   1   14   14     1    14    1.3621E+05 -3.2861E+03   1.3950E+05  0.000E+00  0.000E+00  0.000E+00  4.22322E+01  1.754E-01  2.000E+01  2.000E+04 -1.643E-01
   1   13   15     1    15    1.3950E+05 -3.6165E+03   1.4311E+05  0.000E+00  0.000E+00  0.000E+00  4.17575E+01  1.780E-01  2.000E+01  2.000E+04 -1.808E-01
   1   12   16     1    16    1.4311E+05 -4.9798E+03   1.4809E+05  0.000E+00  0.000E+00  0.000E+00  4.12835E+01  1.812E-01  2.000E+01  2.000E+04 -2.490E-01
   1   12   17     1    17    1.4809E+05 -2.7692E+03   1.5086E+05  0.000E+00  0.000E+00  0.000E+00  4.08091E+01  1.841E-01  2.000E+01  2.000E+04 -1.385E-01
   1   12   18     1    18    1.5086E+05 -2.4264E+03   1.5329E+05  0.000E+00  0.000E+00  0.000E+00  4.03337E+01  1.860E-01  2.000E+01  2.000E+04 -1.213E-01
   1   12   19     1    19    1.5329E+05 -3.2821E+03   1.5657E+05  0.000E+00  0.000E+00  0.000E+00  3.98586E+01  1.881E-01  2.000E+01  2.000E+04 -1.641E-01
   1   13   20     1    20    1.5657E+05 -1.4178E+03   1.5799E+05  0.000E+00  0.000E+00  0.000E+00  3.93830E+01  1.898E-01  2.000E+01  2.000E+04 -7.089E-02
   1   14   21     1    21    1.5799E+05 -1.1918E+03   1.5918E+05  0.000E+00  0.000E+00  0.000E+00  3.89067E+01  1.908E-01  2.000E+01  2.000E+04 -5.959E-02
   1   14   22     1    22    1.5918E+05  4.8007E+03   1.5438E+05  0.000E+00  0.000E+00  0.000E+00  3.84281E+01  1.895E-01  2.000E+01  2.000E+04  2.400E-01
   1    9   30     2     1    5.0000E+04 -7.9403E+02   5.0794E+04  0.000E+00  0.000E+00  0.000E+00  4.02414E+01  1.164E-01  2.000E+01  2.000E+04 -3.970E-02
   1    9   29     2     2    5.0794E+04 -3.1422E+02   5.1108E+04  0.000E+00  0.000E+00  0.000E+00  3.99922E+01  1.172E-01  2.000E+01  2.000E+04 -1.571E-02
   1    9   28     2     3    5.1108E+04  1.8716E+03   4.9237E+04  0.000E+00  0.000E+00  0.000E+00  3.97411E+01  1.161E-01  2.000E+01  2.000E+04  9.358E-02
   1    9   27     2     4    4.9237E+04 -2.0075E+03   5.1244E+04  0.000E+00  0.000E+00  0.000E+00  3.94912E+01  1.162E-01  2.000E+01  2.000E+04 -1.004E-01
   1   10   26     2     5    5.1244E+04 -2.6495E+03   5.3894E+04  0.000E+00  0.000E+00  0.000E+00  3.92444E+01  1.194E-01  2.000E+01  2.000E+04 -1.325E-01
   1   11   25     2     6    5.3894E+04 -2.6364E+03   5.6530E+04  0.000E+00  0.000E+00  0.000E+00  3.89980E+01  1.230E-01  2.000E+01  2.000E+04 -1.318E-01
   1   12   24     2     7    5.6530E+04 -2.6778E+03   5.9208E+04  0.000E+00  0.000E+00  0.000E+00  3.87515E+01  1.265E-01  2.000E+01  2.000E+04 -1.339E-01
   1   13   23     2     8    5.9208E+04 -5.3938E+02   5.9747E+04  0.000E+00  0.000E+00  0.000E+00  3.85036E+01  1.286E-01  2.000E+01  2.000E+04 -2.697E-02
   1   14   22     2     9    5.9747E+04  1.3007E+03   5.8447E+04  0.000E+00  0.000E+00  0.000E+00  3.82531E+01  1.281E-01  2.000E+01  2.000E+04  6.504E-02
   1   14   22     3     1    2.1283E+05 -8.8262E+03   2.2165E+05  0.000E+00  0.000E+00  0.000E+00  3.77467E+01  1.912E-01  2.000E+01  2.000E+04 -4.413E-01
   1   15   23     3     2    2.2165E+05 -8.2637E+02   2.2248E+05  0.000E+00  0.000E+00  0.000E+00  3.68604E+01  1.937E-01  2.000E+01  2.000E+04 -4.132E-02
   1   15   24     3     3    2.2248E+05 -6.2937E+02   2.2311E+05  0.000E+00  0.000E+00  0.000E+00  3.59719E+01  1.941E-01  2.000E+01  2.000E+04 -3.147E-02
   1   15   25     3     4    2.2311E+05 -6.5402E+02   2.2376E+05  0.000E+00  0.000E+00  0.000E+00  3.50833E+01  1.944E-01  2.000E+01  2.000E+04 -3.270E-02
   1   15   26     3     5    2.2376E+05 -7.6424E+02   2.2453E+05  0.000E+00  0.000E+00  0.000E+00  3.41948E+01  1.948E-01  2.000E+01  2.000E+04 -3.821E-02
   1   16   27     3     6    2.2453E+05 -8.8468E+02   2.2541E+05  0.000E+00  0.000E+00  0.000E+00  3.33064E+01  1.952E-01  2.000E+01  2.000E+04 -4.423E-02
   1   17   28     3     7    2.2541E+05 -3.2057E+03   2.2862E+05  0.000E+00  0.000E+00  0.000E+00  3.24185E+01  1.963E-01  2.000E+01  2.000E+04 -1.603E-01
   1   18   29     3     8    2.2862E+05 -4.9513E+03   2.3357E+05  0.000E+00  0.000E+00  0.000E+00  3.15317E+01  1.984E-01  2.000E+01  2.000E+04 -2.476E-01
   1   18   30     3     9    2.3357E+05 -4.6229E+03   2.3819E+05  0.000E+00  0.000E+00  0.000E+00  3.06453E+01  2.009E-01  2.000E+01  2.000E+04 -2.311E-01



1
              HEAD IN LAYER   1 AT END OF TIME STEP   1 IN STRESS PERIOD    2
  ---------------------------------------------------------------------------

          1      2      3      4      5      6      7      8      9     10
         11     12     13     14     15     16     17     18     19     20
         21     22     23     24     25     26     27     28     29     30
 .........................................................................
   1  ****** ****** ****** ****** ****** ****** ****** ****** ****** ******
      ****** ****** ****** ****** ****** ****** ****** ****** ****** ******
      ****** ****** ****** ****** ****** ****** ****** ****** ****** ******
   2  ****** ****** ****** ****** ****** ****** ****** ****** ****** ******
      ****** ****** ****** ****** ****** ****** ****** ****** ****** ******
      ****** ****** ****** ****** ****** ****** ****** ****** ****** ******
   3  ****** ****** ****** ****** ****** ****** ****** ****** ****** ******
      ****** ****** ****** ****** ****** ****** ****** ****** ****** ******
      ****** ****** ****** ****** ****** ****** ****** ****** ****** ******
   4  ****** ****** ****** ****** ****** ****** ****** ****** ****** ******
      ****** ****** ****** ****** ****** ****** ****** ****** ****** ******
      ****** ****** ****** ****** ****** ****** ****** ****** ****** ******
   5  ****** ****** ****** ****** ****** ****** ****** ****** ****** ******
      ****** ****** ****** ****** ****** ****** ****** ****** ****** ******
      ****** ****** ****** ****** ****** ****** ****** ****** ****** ******
   6  ****** ****** ****** ****** ****** ****** ****** ****** ****** ******
      ****** ****** ****** ****** ****** ****** ****** ****** ****** ******
      ****** ****** ****** ****** ****** ****** ****** ****** ****** ******
   7  ****** ****** ****** ****** ****** ****** ****** ****** ****** ******
      ****** ****** ****** ****** ****** ****** ****** ****** ****** ******
      ****** ****** ****** ****** ****** ****** ****** ****** ****** ******
   8  ****** ****** ****** ****** ****** ****** ****** ****** ****** ******
      ****** ****** ****** ****** ****** ****** ****** ****** ****** ******
      ****** ****** ****** ****** ****** ****** ****** ****** ****** ******
   9  ****** ****** ****** ****** ****** ****** ****** ****** ****** ******
      ****** ****** ****** ****** ****** ****** ****** ****** ****** ******
      ****** ****** ****** ****** ****** ****** ****** ****** ****** ******
  10  ****** ****** ****** ****** ****** ****** ****** ****** ****** ******
      ****** ****** ****** ****** ****** ****** ****** ****** ****** ******
      ****** ****** ****** ****** ****** ****** ****** ****** ****** ******
  11  ****** ****** ****** ****** ****** ****** ****** ****** ****** ******
      ****** ****** ****** ****** ****** ****** ****** ****** ****** ******
      ****** ****** ****** ****** ****** ****** ****** ****** ****** ******
  12  ****** ****** ****** ****** ****** ****** ****** ****** ****** ******
      ****** ****** ****** ****** ****** ****** ****** ****** ****** ******
      ****** ****** ****** ****** ****** ****** ****** ****** ****** ******
  13  ****** ****** ****** ****** ****** ****** ****** ****** ****** ******
      ****** ****** ****** ****** ****** ****** ****** ****** ****** ******
      ****** ****** ****** ****** ****** ****** ****** ****** ****** ******
  14  ****** ****** ****** ****** ****** ****** ****** ****** ****** ******
      ****** ****** ****** ****** ****** ****** ****** ****** ****** ******
      ****** ****** ****** ****** ****** ****** ****** ****** ****** ******
  15  ****** ****** ****** ****** ****** ****** ****** ****** ****** ******
      ****** ****** ****** ****** ****** ****** ****** ****** ****** ******
      ****** ****** ****** ****** ****** ****** ****** ****** ****** ******
  16  ****** ****** ****** ****** ****** ****** ****** ****** ****** ******
      ****** ****** ****** ****** ****** ****** ****** ****** ****** ******
      ****** ****** ****** ****** ****** ****** ****** ****** ****** ******
  17  ****** ****** ****** ****** ****** ****** ****** ****** ****** ******
      ****** ****** ****** ****** ****** ****** ****** ****** ****** ******
      ****** ****** ****** ****** ****** ****** ****** ****** ****** ******
  18  ****** ****** ****** ****** ****** ****** ****** ****** ****** ******
      ****** ****** ****** ****** ****** ****** ****** ****** ****** ******
      ****** ****** ****** ****** ****** ****** ****** ****** ****** ******
  19  ****** ****** ****** ****** ****** ****** ****** ****** ****** ******
      ****** ****** ****** ****** ****** ****** ****** ****** ****** ******
      ****** ****** ****** ****** ****** ****** ****** ****** ****** ******
  20  ****** ****** ****** ****** ****** ****** ****** ****** ****** ******
      ****** ****** ****** ****** ****** ****** ****** ****** ****** ******
      ****** ****** ****** ****** ****** ****** ****** ****** ****** ******
  21  ****** ****** ****** ****** ****** ****** ****** ****** ****** ******
      ****** ****** ****** ****** ****** ****** ****** ****** ****** ******
      ****** ****** ****** ****** ****** ****** ****** ****** ****** ******
  22  ****** ****** ****** ****** ****** ****** ****** ****** ****** ******
      ****** ****** ****** ****** ****** ****** ****** ****** ****** ******
      ****** ****** ****** ****** ****** ****** ****** ****** ****** ******
  23  ****** ****** ****** ****** ****** ****** ****** ****** ****** ******
      ****** ****** ****** ****** ****** ****** ****** ****** ****** ******
      ****** ****** ****** ****** ****** ****** ****** ****** ****** ******
  24  ****** ****** ****** ****** ****** ****** ****** ****** ****** ******
      ****** ****** ****** ****** ****** ****** ****** ****** ****** ******
      ****** ****** ****** ****** ****** ****** ****** ****** ****** ******
  25  ****** ****** ****** ****** ****** ****** ****** ****** ****** ******
      ****** ****** ****** ****** ****** ****** ****** ****** ****** ******
      ****** ****** ****** ****** ****** ****** ****** ****** ****** ******

 HEAD WILL BE SAVED ON UNIT   51 AT END OF TIME STEP    1, STRESS PERIOD    2
1
  VOLUMETRIC BUDGET FOR ENTIRE MODEL AT END OF TIME STEP    1, STRESS PERIOD   2
  ------------------------------------------------------------------------------

     CUMULATIVE VOLUMES      L**3       RATES FOR THIS TIME STEP      L**3/T
     ------------------                 ------------------------

           IN:                                      IN:
           ---                                      ---
             STORAGE =    22786765.0309               STORAGE =       54160.7894
       CONSTANT HEAD =     2739785.3656         CONSTANT HEAD =       17301.0634
               WELLS =           0.0000                 WELLS =           0.0000
            RECHARGE =     6292800.0000              RECHARGE =       55200.0000
      STREAM LEAKAGE =     1120532.6200        STREAM LEAKAGE =        7973.0514

            TOTAL IN =    32939883.0164              TOTAL IN =      134634.9042

          OUT:                                     OUT:
          ----                                     ----
             STORAGE =           0.0000               STORAGE =           0.0000
       CONSTANT HEAD =           0.0000         CONSTANT HEAD =           0.0000
               WELLS =     7040250.3917                 WELLS =       38471.3136
            RECHARGE =           0.0000              RECHARGE =           0.0000
      STREAM LEAKAGE =    25899633.8955        STREAM LEAKAGE =       96163.6013

           TOTAL OUT =    32939884.2872             TOTAL OUT =      134634.9149

            IN - OUT =          -1.2708              IN - OUT =      -1.0756E-02

 PERCENT DISCREPANCY =          -0.00     PERCENT DISCREPANCY =          -0.00






         TIME SUMMARY AT END OF TIME STEP    1 IN STRESS PERIOD    2
                    SECONDS     MINUTES      HOURS       DAYS        YEARS
                    -----------------------------------------------------------
   TIME STEP LENGTH 7.86240E+06 1.31040E+05  2184.0      91.000     0.24914    
 STRESS PERIOD TIME 7.86240E+06 1.31040E+05  2184.0      91.000     0.24914    
         TOTAL TIME 1.58112E+07 2.63520E+05  4392.0      183.00     0.50103    
1
1
                            STRESS PERIOD NO.    3, LENGTH =   91.00000    
                            -----------------------------------------------

                              NUMBER OF TIME STEPS =     1

                               MULTIPLIER FOR DELT =     1.500

                            INITIAL TIME STEP SIZE =   91.00000    

 WELL NO.  LAYER   ROW   COL   STRESS RATE         
 --------------------------------------------------
      1      1      6     22      -8915.    
      2      1     16     17      -8329.    
      3      1      8     28     -0.1208E+05
      4      1     15     19      -9150.    

      4 WELLS

                 RECHARGE =   0.00000    

 REUSING STREAM SEGMENT DATA FROM LAST STRESS PERIOD
 
 SOLVING FOR HEAD 


     7 CALLS TO PCG ROUTINE FOR TIME STEP   1 IN STRESS PERIOD    3
    27 TOTAL ITERATIONS

 OUTPUT CONTROL FOR STRESS PERIOD    3   TIME STEP    1
    SAVE BUDGET
    SAVE HEAD FOR ALL LAYERS
    PRINT HEAD FOR ALL LAYERS
 UBDSV2 SAVING "STREAMFLOW OUT  " ON UNIT  50 AT TIME STEP  1, STRESS PERIOD   3



 STREAM LISTING     PERIOD      3   STEP        1

 LAYER ROW COL. STREAM  RCH.  FLOW INTO     FLOW TO   FLOW OUT OF   OVRLND.     DIRECT     STREAM       STREAM     STREAM     STREAM   STREAMBED  STREAMBED
                SEG.NO.  NO.  STRM. RCH.    AQUIFER    STRM. RCH.    RUNOFF     PRECIP       ET          HEAD       DEPTH      WIDTH   CONDCTNC.   GRADIENT

   1   13    1     1     1    1.0000E+05 -2.7564E+03   1.0276E+05  0.000E+00  0.000E+00  0.000E+00  4.84072E+01  1.458E-01  2.000E+01  2.000E+04 -1.378E-01
   1   13    2     1     2    1.0276E+05 -3.8660E+03   1.0662E+05  0.000E+00  0.000E+00  0.000E+00  4.79328E+01  1.487E-01  2.000E+01  2.000E+04 -1.933E-01
   1   14    3     1     3    1.0662E+05 -6.5381E+02   1.0728E+05  0.000E+00  0.000E+00  0.000E+00  4.74574E+01  1.506E-01  2.000E+01  2.000E+04 -3.269E-02
   1   15    4     1     4    1.0728E+05 -6.3520E+02   1.0791E+05  0.000E+00  0.000E+00  0.000E+00  4.69807E+01  1.511E-01  2.000E+01  2.000E+04 -3.176E-02
   1   16    5     1     5    1.0791E+05 -2.4126E+03   1.1032E+05  0.000E+00  0.000E+00  0.000E+00  4.65047E+01  1.524E-01  2.000E+01  2.000E+04 -1.206E-01
   1   16    6     1     6    1.1032E+05 -1.4677E+03   1.1179E+05  0.000E+00  0.000E+00  0.000E+00  4.60290E+01  1.540E-01  2.000E+01  2.000E+04 -7.338E-02
   1   16    7     1     7    1.1179E+05 -1.4205E+03   1.1321E+05  0.000E+00  0.000E+00  0.000E+00  4.55530E+01  1.552E-01  2.000E+01  2.000E+04 -7.102E-02
   1   16    8     1     8    1.1321E+05 -1.3914E+03   1.1460E+05  0.000E+00  0.000E+00  0.000E+00  4.50769E+01  1.564E-01  2.000E+01  2.000E+04 -6.957E-02
   1   16    9     1     9    1.1460E+05 -1.3474E+03   1.1595E+05  0.000E+00  0.000E+00  0.000E+00  4.46007E+01  1.575E-01  2.000E+01  2.000E+04 -6.737E-02
   1   16   10     1    10    1.1595E+05 -1.2787E+03   1.1723E+05  0.000E+00  0.000E+00  0.000E+00  4.41245E+01  1.586E-01  2.000E+01  2.000E+04 -6.394E-02
   1   16   11     1    11    1.1723E+05 -1.1923E+03   1.1842E+05  0.000E+00  0.000E+00  0.000E+00  4.36482E+01  1.596E-01  2.000E+01  2.000E+04 -5.962E-02
   1   16   12     1    12    1.1842E+05 -1.7518E+03   1.2017E+05  0.000E+00  0.000E+00  0.000E+00  4.31722E+01  1.608E-01  2.000E+01  2.000E+04 -8.759E-02
   1   15   13     1    13    1.2017E+05 -1.4505E+03   1.2162E+05  0.000E+00  0.000E+00  0.000E+00  4.26962E+01  1.621E-01  2.000E+01  2.000E+04 -7.252E-02
   1   14   14     1    14    1.2162E+05 -1.5207E+03   1.2315E+05  0.000E+00  0.000E+00  0.000E+00  4.22201E+01  1.633E-01  2.000E+01  2.000E+04 -7.604E-02
   1   13   15     1    15    1.2315E+05 -1.8519E+03   1.2500E+05  0.000E+00  0.000E+00  0.000E+00  4.17442E+01  1.646E-01  2.000E+01  2.000E+04 -9.260E-02
   1   12   16     1    16    1.2500E+05 -3.1631E+03   1.2816E+05  0.000E+00  0.000E+00  0.000E+00  4.12689E+01  1.666E-01  2.000E+01  2.000E+04 -1.582E-01
   1   12   17     1    17    1.2816E+05 -1.4341E+03   1.2959E+05  0.000E+00  0.000E+00  0.000E+00  4.07934E+01  1.684E-01  2.000E+01  2.000E+04 -7.170E-02
   1   12   18     1    18    1.2959E+05 -1.1022E+03   1.3070E+05  0.000E+00  0.000E+00  0.000E+00  4.03172E+01  1.694E-01  2.000E+01  2.000E+04 -5.511E-02
   1   12   19     1    19    1.3070E+05 -1.6139E+03   1.3231E+05  0.000E+00  0.000E+00  0.000E+00  3.98409E+01  1.705E-01  2.000E+01  2.000E+04 -8.069E-02
   1   13   20     1    20    1.3231E+05  1.2703E+02   1.3218E+05  0.000E+00  0.000E+00  0.000E+00  3.93642E+01  1.711E-01  2.000E+01  2.000E+04  6.352E-03
   1   14   21     1    21    1.3218E+05  3.9299E+02   1.3179E+05  0.000E+00  0.000E+00  0.000E+00  3.88868E+01  1.709E-01  2.000E+01  2.000E+04  1.965E-02
   1   14   22     1    22    1.3179E+05  5.1884E+03   1.2660E+05  0.000E+00  0.000E+00  0.000E+00  3.84073E+01  1.687E-01  2.000E+01  2.000E+04  2.594E-01
   1    9   30     2     1    5.0000E+04  4.8539E+02   4.9515E+04  0.000E+00  0.000E+00  0.000E+00  4.02405E+01  1.155E-01  2.000E+01  2.000E+04  2.427E-02
   1    9   29     2     2    4.9515E+04  9.6602E+02   4.8549E+04  0.000E+00  0.000E+00  0.000E+00  3.99895E+01  1.145E-01  2.000E+01  2.000E+04  4.830E-02
   1    9   28     2     3    4.8549E+04  3.1719E+03   4.5377E+04  0.000E+00  0.000E+00  0.000E+00  3.97366E+01  1.116E-01  2.000E+01  2.000E+04  1.586E-01
   1    9   27     2     4    4.5377E+04 -1.1448E+02   4.5491E+04  0.000E+00  0.000E+00  0.000E+00  3.94844E+01  1.094E-01  2.000E+01  2.000E+04 -5.724E-03
   1   10   26     2     5    4.5491E+04 -9.2450E+02   4.6416E+04  0.000E+00  0.000E+00  0.000E+00  3.92351E+01  1.101E-01  2.000E+01  2.000E+04 -4.622E-02
   1   11   25     2     6    4.6416E+04 -1.0459E+03   4.7462E+04  0.000E+00  0.000E+00  0.000E+00  3.89866E+01  1.116E-01  2.000E+01  2.000E+04 -5.230E-02
   1   12   24     2     7    4.7462E+04 -1.2609E+03   4.8723E+04  0.000E+00  0.000E+00  0.000E+00  3.87382E+01  1.132E-01  2.000E+01  2.000E+04 -6.304E-02
   1   13   23     2     8    4.8723E+04 -1.9490E+02   4.8917E+04  0.000E+00  0.000E+00  0.000E+00  3.84892E+01  1.142E-01  2.000E+01  2.000E+04 -9.745E-03
   1   14   22     2     9    4.8917E+04  1.8036E+03   4.7114E+04  0.000E+00  0.000E+00  0.000E+00  3.82381E+01  1.131E-01  2.000E+01  2.000E+04  9.018E-02
   1   14   22     3     1    1.7372E+05 -8.4546E+03   1.8217E+05  0.000E+00  0.000E+00  0.000E+00  3.77252E+01  1.696E-01  2.000E+01  2.000E+04 -4.227E-01
   1   15   23     3     2    1.8217E+05 -4.1399E+02   1.8258E+05  0.000E+00  0.000E+00  0.000E+00  3.68388E+01  1.721E-01  2.000E+01  2.000E+04 -2.070E-02
   1   15   24     3     3    1.8258E+05 -2.9947E+02   1.8288E+05  0.000E+00  0.000E+00  0.000E+00  3.59501E+01  1.723E-01  2.000E+01  2.000E+04 -1.497E-02
   1   15   25     3     4    1.8288E+05 -3.1014E+02   1.8319E+05  0.000E+00  0.000E+00  0.000E+00  3.50614E+01  1.725E-01  2.000E+01  2.000E+04 -1.551E-02
   1   15   26     3     5    1.8319E+05 -3.5774E+02   1.8355E+05  0.000E+00  0.000E+00  0.000E+00  3.41727E+01  1.727E-01  2.000E+01  2.000E+04 -1.789E-02
   1   16   27     3     6    1.8355E+05 -4.1450E+02   1.8397E+05  0.000E+00  0.000E+00  0.000E+00  3.32840E+01  1.729E-01  2.000E+01  2.000E+04 -2.073E-02
   1   17   28     3     7    1.8397E+05 -1.7769E+03   1.8574E+05  0.000E+00  0.000E+00  0.000E+00  3.23958E+01  1.735E-01  2.000E+01  2.000E+04 -8.884E-02
   1   18   29     3     8    1.8574E+05 -3.3981E+03   1.8914E+05  0.000E+00  0.000E+00  0.000E+00  3.15083E+01  1.750E-01  2.000E+01  2.000E+04 -1.699E-01
   1   18   30     3     9    1.8914E+05 -3.4649E+03   1.9261E+05  0.000E+00  0.000E+00  0.000E+00  3.06214E+01  1.769E-01  2.000E+01  2.000E+04 -1.732E-01



1
              HEAD IN LAYER   1 AT END OF TIME STEP   1 IN STRESS PERIOD    3
  ---------------------------------------------------------------------------

          1      2      3      4      5      6      7      8      9     10
         11     12     13     14     15     16     17     18     19     20
         21     22     23     24     25     26     27     28     29     30
 .........................................................................
   1  ****** ****** ****** ****** ****** ****** ****** ****** ****** ******
      ****** ****** ****** ****** ****** ****** ****** ****** ****** ******
      ****** ****** ****** ****** ****** ****** ****** ****** ****** ******
   2  ****** ****** ****** ****** ****** ****** ****** ****** ****** ******
      ****** ****** ****** ****** ****** ****** ****** ****** ****** ******
      ****** ****** ****** ****** ****** ****** ****** ****** ****** ******
   3  ****** ****** ****** ****** ****** ****** ****** ****** ****** ******
      ****** ****** ****** ****** ****** ****** ****** ****** ****** ******
      ****** ****** ****** ****** ****** ****** ****** ****** ****** ******
   4  ****** ****** ****** ****** ****** ****** ****** ****** ****** ******
      ****** ****** ****** ****** ****** ****** ****** ****** ****** ******
      ****** ****** ****** ****** ****** ****** ****** ****** ****** ******
   5  ****** ****** ****** ****** ****** ****** ****** ****** ****** ******
      ****** ****** ****** ****** ****** ****** ****** ****** ****** ******
      ****** ****** ****** ****** ****** ****** ****** ****** ****** ******
   6  ****** ****** ****** ****** ****** ****** ****** ****** ****** ******
      ****** ****** ****** ****** ****** ****** ****** ****** ****** ******
      ****** ****** ****** ****** ****** ****** ****** ****** ****** ******
   7  ****** ****** ****** ****** ****** ****** ****** ****** ****** ******
      ****** ****** ****** ****** ****** ****** ****** ****** ****** ******
      ****** ****** ****** ****** ****** ****** ****** ****** ****** ******
   8  ****** ****** ****** ****** ****** ****** ****** ****** ****** ******
      ****** ****** ****** ****** ****** ****** ****** ****** ****** ******
      ****** ****** ****** ****** ****** ****** ****** ****** ****** ******
   9  ****** ****** ****** ****** ****** ****** ****** ****** ****** ******
      ****** ****** ****** ****** ****** ****** ****** ****** ****** ******
      ****** ****** ****** ****** ****** ****** ****** ****** ****** ******
  10  ****** ****** ****** ****** ****** ****** ****** ****** ****** ******
      ****** ****** ****** ****** ****** ****** ****** ****** ****** ******
      ****** ****** ****** ****** ****** ****** ****** ****** ****** ******
  11  ****** ****** ****** ****** ****** ****** ****** ****** ****** ******
      ****** ****** ****** ****** ****** ****** ****** ****** ****** ******
      ****** ****** ****** ****** ****** ****** ****** ****** ****** ******
  12  ****** ****** ****** ****** ****** ****** ****** ****** ****** ******
      ****** ****** ****** ****** ****** ****** ****** ****** ****** ******
      ****** ****** ****** ****** ****** ****** ****** ****** ****** ******
  13  ****** ****** ****** ****** ****** ****** ****** ****** ****** ******
      ****** ****** ****** ****** ****** ****** ****** ****** ****** ******
      ****** ****** ****** ****** ****** ****** ****** ****** ****** ******
  14  ****** ****** ****** ****** ****** ****** ****** ****** ****** ******
      ****** ****** ****** ****** ****** ****** ****** ****** ****** ******
      ****** ****** ****** ****** ****** ****** ****** ****** ****** ******
  15  ****** ****** ****** ****** ****** ****** ****** ****** ****** ******
      ****** ****** ****** ****** ****** ****** ****** ****** ****** ******
      ****** ****** ****** ****** ****** ****** ****** ****** ****** ******
  16  ****** ****** ****** ****** ****** ****** ****** ****** ****** ******
      ****** ****** ****** ****** ****** ****** ****** ****** ****** ******
      ****** ****** ****** ****** ****** ****** ****** ****** ****** ******
  17  ****** ****** ****** ****** ****** ****** ****** ****** ****** ******
      ****** ****** ****** ****** ****** ****** ****** ****** ****** ******
      ****** ****** ****** ****** ****** ****** ****** ****** ****** ******
  18  ****** ****** ****** ****** ****** ****** ****** ****** ****** ******
      ****** ****** ****** ****** ****** ****** ****** ****** ****** ******
      ****** ****** ****** ****** ****** ****** ****** ****** ****** ******
  19  ****** ****** ****** ****** ****** ****** ****** ****** ****** ******
      ****** ****** ****** ****** ****** ****** ****** ****** ****** ******
      ****** ****** ****** ****** ****** ****** ****** ****** ****** ******
  20  ****** ****** ****** ****** ****** ****** ****** ****** ****** ******
      ****** ****** ****** ****** ****** ****** ****** ****** ****** ******
      ****** ****** ****** ****** ****** ****** ****** ****** ****** ******
  21  ****** ****** ****** ****** ****** ****** ****** ****** ****** ******
      ****** ****** ****** ****** ****** ****** ****** ****** ****** ******
      ****** ****** ****** ****** ****** ****** ****** ****** ****** ******
  22  ****** ****** ****** ****** ****** ****** ****** ****** ****** ******
      ****** ****** ****** ****** ****** ****** ****** ****** ****** ******
      ****** ****** ****** ****** ****** ****** ****** ****** ****** ******
  23  ****** ****** ****** ****** ****** ****** ****** ****** ****** ******
      ****** ****** ****** ****** ****** ****** ****** ****** ****** ******
      ****** ****** ****** ****** ****** ****** ****** ****** ****** ******
  24  ****** ****** ****** ****** ****** ****** ****** ****** ****** ******
      ****** ****** ****** ****** ****** ****** ****** ****** ****** ******
      ****** ****** ****** ****** ****** ****** ****** ****** ****** ******
  25  ****** ****** ****** ****** ****** ****** ****** ****** ****** ******
      ****** ****** ****** ****** ****** ****** ****** ****** ****** ******
      ****** ****** ****** ****** ****** ****** ****** ****** ****** ******

 HEAD WILL BE SAVED ON UNIT   51 AT END OF TIME STEP    1, STRESS PERIOD    3
1
  VOLUMETRIC BUDGET FOR ENTIRE MODEL AT END OF TIME STEP    1, STRESS PERIOD   3
  ------------------------------------------------------------------------------

     CUMULATIVE VOLUMES      L**3       RATES FOR THIS TIME STEP      L**3/T
     ------------------                 ------------------------

           IN:                                      IN:
           ---                                      ---
             STORAGE =    27805195.3368               STORAGE =       55147.5858
       CONSTANT HEAD =     5099392.9255         CONSTANT HEAD =       25929.7534
               WELLS =           0.0000                 WELLS =           0.0000
            RECHARGE =     6292800.0000              RECHARGE =           0.0000
      STREAM LEAKAGE =     2224846.1348        STREAM LEAKAGE =       12135.3133

            TOTAL IN =    41422234.3971              TOTAL IN =       93212.6525

          OUT:                                     OUT:
          ----                                     ----
             STORAGE =           0.0000               STORAGE =           0.0000
       CONSTANT HEAD =           0.0000         CONSTANT HEAD =           0.0000
               WELLS =    10541139.9308                 WELLS =       38471.3136
            RECHARGE =           0.0000              RECHARGE =           0.0000
      STREAM LEAKAGE =    30881096.4463        STREAM LEAKAGE =       54741.3467

           TOTAL OUT =    41422236.3770             TOTAL OUT =       93212.6603

            IN - OUT =          -1.9799              IN - OUT =      -7.7932E-03

 PERCENT DISCREPANCY =          -0.00     PERCENT DISCREPANCY =          -0.00






         TIME SUMMARY AT END OF TIME STEP    1 IN STRESS PERIOD    3
                    SECONDS     MINUTES      HOURS       DAYS        YEARS
                    -----------------------------------------------------------
   TIME STEP LENGTH 7.86240E+06 1.31040E+05  2184.0      91.000     0.24914    
 STRESS PERIOD TIME 7.86240E+06 1.31040E+05  2184.0      91.000     0.24914    
         TOTAL TIME 2.36736E+07 3.94560E+05  6576.0      274.00     0.75017    
1
1
                            STRESS PERIOD NO.    4, LENGTH =   91.00000    
                            -----------------------------------------------

                              NUMBER OF TIME STEPS =     1

                               MULTIPLIER FOR DELT =     1.500

                            INITIAL TIME STEP SIZE =   91.00000    

 WELL NO.  LAYER   ROW   COL   STRESS RATE         
 --------------------------------------------------
      1      1      6     22      -8915.    
      2      1     16     17      -8329.    
      3      1      8     28     -0.1208E+05
      4      1     15     19      -9150.    

      4 WELLS

                 RECHARGE =  1.000000E-03

 REUSING STREAM SEGMENT DATA FROM LAST STRESS PERIOD
 
 SOLVING FOR HEAD 


     6 CALLS TO PCG ROUTINE FOR TIME STEP   1 IN STRESS PERIOD    4
    23 TOTAL ITERATIONS

 OUTPUT CONTROL FOR STRESS PERIOD    4   TIME STEP    1
    SAVE BUDGET
    SAVE HEAD FOR ALL LAYERS
    PRINT HEAD FOR ALL LAYERS
 UBDSV2 SAVING "STREAMFLOW OUT  " ON UNIT  50 AT TIME STEP  1, STRESS PERIOD   4



 STREAM LISTING     PERIOD      4   STEP        1

 LAYER ROW COL. STREAM  RCH.  FLOW INTO     FLOW TO   FLOW OUT OF   OVRLND.     DIRECT     STREAM       STREAM     STREAM     STREAM   STREAMBED  STREAMBED
                SEG.NO.  NO.  STRM. RCH.    AQUIFER    STRM. RCH.    RUNOFF     PRECIP       ET          HEAD       DEPTH      WIDTH   CONDCTNC.   GRADIENT

   1   13    1     1     1    1.0000E+05 -2.5250E+03   1.0253E+05  0.000E+00  0.000E+00  0.000E+00  4.84071E+01  1.457E-01  2.000E+01  2.000E+04 -1.263E-01
   1   13    2     1     2    1.0253E+05 -3.5972E+03   1.0612E+05  0.000E+00  0.000E+00  0.000E+00  4.79325E+01  1.484E-01  2.000E+01  2.000E+04 -1.799E-01
   1   14    3     1     3    1.0612E+05 -6.2562E+02   1.0675E+05  0.000E+00  0.000E+00  0.000E+00  4.74570E+01  1.502E-01  2.000E+01  2.000E+04 -3.128E-02
   1   15    4     1     4    1.0675E+05 -5.9670E+02   1.0734E+05  0.000E+00  0.000E+00  0.000E+00  4.69802E+01  1.507E-01  2.000E+01  2.000E+04 -2.984E-02
   1   16    5     1     5    1.0734E+05 -2.1043E+03   1.0945E+05  0.000E+00  0.000E+00  0.000E+00  4.65041E+01  1.518E-01  2.000E+01  2.000E+04 -1.052E-01
   1   16    6     1     6    1.0945E+05 -1.3152E+03   1.1076E+05  0.000E+00  0.000E+00  0.000E+00  4.60283E+01  1.533E-01  2.000E+01  2.000E+04 -6.576E-02
   1   16    7     1     7    1.1076E+05 -1.2788E+03   1.1204E+05  0.000E+00  0.000E+00  0.000E+00  4.55521E+01  1.543E-01  2.000E+01  2.000E+04 -6.394E-02
   1   16    8     1     8    1.1204E+05 -1.2530E+03   1.1330E+05  0.000E+00  0.000E+00  0.000E+00  4.50758E+01  1.554E-01  2.000E+01  2.000E+04 -6.265E-02
   1   16    9     1     9    1.1330E+05 -1.2104E+03   1.1451E+05  0.000E+00  0.000E+00  0.000E+00  4.45996E+01  1.564E-01  2.000E+01  2.000E+04 -6.052E-02
   1   16   10     1    10    1.1451E+05 -1.1432E+03   1.1565E+05  0.000E+00  0.000E+00  0.000E+00  4.41233E+01  1.574E-01  2.000E+01  2.000E+04 -5.716E-02
   1   16   11     1    11    1.1565E+05 -1.0538E+03   1.1670E+05  0.000E+00  0.000E+00  0.000E+00  4.36469E+01  1.583E-01  2.000E+01  2.000E+04 -5.269E-02
   1   16   12     1    12    1.1670E+05 -1.4598E+03   1.1816E+05  0.000E+00  0.000E+00  0.000E+00  4.31707E+01  1.593E-01  2.000E+01  2.000E+04 -7.299E-02
   1   15   13     1    13    1.1816E+05 -1.1831E+03   1.1935E+05  0.000E+00  0.000E+00  0.000E+00  4.26945E+01  1.604E-01  2.000E+01  2.000E+04 -5.916E-02
   1   14   14     1    14    1.1935E+05 -1.2337E+03   1.2058E+05  0.000E+00  0.000E+00  0.000E+00  4.22182E+01  1.613E-01  2.000E+01  2.000E+04 -6.168E-02
   1   13   15     1    15    1.2058E+05 -1.5420E+03   1.2212E+05  0.000E+00  0.000E+00  0.000E+00  4.17420E+01  1.625E-01  2.000E+01  2.000E+04 -7.710E-02
   1   12   16     1    16    1.2212E+05 -2.7578E+03   1.2488E+05  0.000E+00  0.000E+00  0.000E+00  4.12665E+01  1.642E-01  2.000E+01  2.000E+04 -1.379E-01
   1   12   17     1    17    1.2488E+05 -1.1833E+03   1.2606E+05  0.000E+00  0.000E+00  0.000E+00  4.07907E+01  1.657E-01  2.000E+01  2.000E+04 -5.917E-02
   1   12   18     1    18    1.2606E+05 -8.6518E+02   1.2693E+05  0.000E+00  0.000E+00  0.000E+00  4.03143E+01  1.666E-01  2.000E+01  2.000E+04 -4.326E-02
   1   12   19     1    19    1.2693E+05 -1.3156E+03   1.2824E+05  0.000E+00  0.000E+00  0.000E+00  3.98379E+01  1.674E-01  2.000E+01  2.000E+04 -6.578E-02
   1   13   20     1    20    1.2824E+05  3.2796E+02   1.2792E+05  0.000E+00  0.000E+00  0.000E+00  3.93610E+01  1.678E-01  2.000E+01  2.000E+04  1.640E-02
   1   14   21     1    21    1.2792E+05  6.5867E+02   1.2726E+05  0.000E+00  0.000E+00  0.000E+00  3.88833E+01  1.674E-01  2.000E+01  2.000E+04  3.293E-02
   1   14   22     1    22    1.2726E+05  5.2335E+03   1.2202E+05  0.000E+00  0.000E+00  0.000E+00  3.84037E+01  1.651E-01  2.000E+01  2.000E+04  2.617E-01
   1    9   30     2     1    5.0000E+04  6.0403E+02   4.9396E+04  0.000E+00  0.000E+00  0.000E+00  4.02404E+01  1.154E-01  2.000E+01  2.000E+04  3.020E-02
   1    9   29     2     2    4.9396E+04  1.0925E+03   4.8303E+04  0.000E+00  0.000E+00  0.000E+00  3.99893E+01  1.143E-01  2.000E+01  2.000E+04  5.463E-02
   1    9   28     2     3    4.8303E+04  3.3213E+03   4.4982E+04  0.000E+00  0.000E+00  0.000E+00  3.97361E+01  1.111E-01  2.000E+01  2.000E+04  1.661E-01
   1    9   27     2     4    4.4982E+04  2.0959E+02   4.4773E+04  0.000E+00  0.000E+00  0.000E+00  3.94836E+01  1.086E-01  2.000E+01  2.000E+04  1.048E-02
   1   10   26     2     5    4.4773E+04 -7.3105E+02   4.5504E+04  0.000E+00  0.000E+00  0.000E+00  3.92340E+01  1.090E-01  2.000E+01  2.000E+04 -3.655E-02
   1   11   25     2     6    4.5504E+04 -9.0112E+02   4.6405E+04  0.000E+00  0.000E+00  0.000E+00  3.89851E+01  1.101E-01  2.000E+01  2.000E+04 -4.506E-02
   1   12   24     2     7    4.6405E+04 -1.1376E+03   4.7542E+04  0.000E+00  0.000E+00  0.000E+00  3.87366E+01  1.116E-01  2.000E+01  2.000E+04 -5.688E-02
   1   13   23     2     8    4.7542E+04 -2.1690E+02   4.7759E+04  0.000E+00  0.000E+00  0.000E+00  3.84876E+01  1.126E-01  2.000E+01  2.000E+04 -1.084E-02
   1   14   22     2     9    4.7759E+04  1.8866E+03   4.5873E+04  0.000E+00  0.000E+00  0.000E+00  3.82364E+01  1.114E-01  2.000E+01  2.000E+04  9.433E-02
   1   14   22     3     1    1.6790E+05 -8.4049E+03   1.7630E+05  0.000E+00  0.000E+00  0.000E+00  3.77218E+01  1.663E-01  2.000E+01  2.000E+04 -4.202E-01
   1   15   23     3     2    1.7630E+05 -3.8299E+02   1.7668E+05  0.000E+00  0.000E+00  0.000E+00  3.68355E+01  1.688E-01  2.000E+01  2.000E+04 -1.915E-02
   1   15   24     3     3    1.7668E+05 -2.9542E+02   1.7698E+05  0.000E+00  0.000E+00  0.000E+00  3.59468E+01  1.690E-01  2.000E+01  2.000E+04 -1.477E-02
   1   15   25     3     4    1.7698E+05 -3.0687E+02   1.7729E+05  0.000E+00  0.000E+00  0.000E+00  3.50580E+01  1.692E-01  2.000E+01  2.000E+04 -1.534E-02
   1   15   26     3     5    1.7729E+05 -3.6535E+02   1.7765E+05  0.000E+00  0.000E+00  0.000E+00  3.41693E+01  1.693E-01  2.000E+01  2.000E+04 -1.827E-02
   1   16   27     3     6    1.7765E+05 -4.1226E+02   1.7806E+05  0.000E+00  0.000E+00  0.000E+00  3.32807E+01  1.696E-01  2.000E+01  2.000E+04 -2.061E-02
   1   17   28     3     7    1.7806E+05 -1.7044E+03   1.7977E+05  0.000E+00  0.000E+00  0.000E+00  3.23924E+01  1.702E-01  2.000E+01  2.000E+04 -8.522E-02
   1   18   29     3     8    1.7977E+05 -3.1619E+03   1.8293E+05  0.000E+00  0.000E+00  0.000E+00  3.15049E+01  1.716E-01  2.000E+01  2.000E+04 -1.581E-01
   1   18   30     3     9    1.8293E+05 -3.3459E+03   1.8628E+05  0.000E+00  0.000E+00  0.000E+00  3.06178E+01  1.734E-01  2.000E+01  2.000E+04 -1.673E-01



1
              HEAD IN LAYER   1 AT END OF TIME STEP   1 IN STRESS PERIOD    4
  ---------------------------------------------------------------------------

          1      2      3      4      5      6      7      8      9     10
         11     12     13     14     15     16     17     18     19     20
         21     22     23     24     25     26     27     28     29     30
 .........................................................................
   1  ****** ****** ****** ****** ****** ****** ****** ****** ****** ******
      ****** ****** ****** ****** ****** ****** ****** ****** ****** ******
      ****** ****** ****** ****** ****** ****** ****** ****** ****** ******
   2  ****** ****** ****** ****** ****** ****** ****** ****** ****** ******
      ****** ****** ****** ****** ****** ****** ****** ****** ****** ******
      ****** ****** ****** ****** ****** ****** ****** ****** ****** ******
   3  ****** ****** ****** ****** ****** ****** ****** ****** ****** ******
      ****** ****** ****** ****** ****** ****** ****** ****** ****** ******
      ****** ****** ****** ****** ****** ****** ****** ****** ****** ******
   4  ****** ****** ****** ****** ****** ****** ****** ****** ****** ******
      ****** ****** ****** ****** ****** ****** ****** ****** ****** ******
      ****** ****** ****** ****** ****** ****** ****** ****** ****** ******
   5  ****** ****** ****** ****** ****** ****** ****** ****** ****** ******
      ****** ****** ****** ****** ****** ****** ****** ****** ****** ******
      ****** ****** ****** ****** ****** ****** ****** ****** ****** ******
   6  ****** ****** ****** ****** ****** ****** ****** ****** ****** ******
      ****** ****** ****** ****** ****** ****** ****** ****** ****** ******
      ****** ****** ****** ****** ****** ****** ****** ****** ****** ******
   7  ****** ****** ****** ****** ****** ****** ****** ****** ****** ******
      ****** ****** ****** ****** ****** ****** ****** ****** ****** ******
      ****** ****** ****** ****** ****** ****** ****** ****** ****** ******
   8  ****** ****** ****** ****** ****** ****** ****** ****** ****** ******
      ****** ****** ****** ****** ****** ****** ****** ****** ****** ******
      ****** ****** ****** ****** ****** ****** ****** ****** ****** ******
   9  ****** ****** ****** ****** ****** ****** ****** ****** ****** ******
      ****** ****** ****** ****** ****** ****** ****** ****** ****** ******
      ****** ****** ****** ****** ****** ****** ****** ****** ****** ******
  10  ****** ****** ****** ****** ****** ****** ****** ****** ****** ******
      ****** ****** ****** ****** ****** ****** ****** ****** ****** ******
      ****** ****** ****** ****** ****** ****** ****** ****** ****** ******
  11  ****** ****** ****** ****** ****** ****** ****** ****** ****** ******
      ****** ****** ****** ****** ****** ****** ****** ****** ****** ******
      ****** ****** ****** ****** ****** ****** ****** ****** ****** ******
  12  ****** ****** ****** ****** ****** ****** ****** ****** ****** ******
      ****** ****** ****** ****** ****** ****** ****** ****** ****** ******
      ****** ****** ****** ****** ****** ****** ****** ****** ****** ******
  13  ****** ****** ****** ****** ****** ****** ****** ****** ****** ******
      ****** ****** ****** ****** ****** ****** ****** ****** ****** ******
      ****** ****** ****** ****** ****** ****** ****** ****** ****** ******
  14  ****** ****** ****** ****** ****** ****** ****** ****** ****** ******
      ****** ****** ****** ****** ****** ****** ****** ****** ****** ******
      ****** ****** ****** ****** ****** ****** ****** ****** ****** ******
  15  ****** ****** ****** ****** ****** ****** ****** ****** ****** ******
      ****** ****** ****** ****** ****** ****** ****** ****** ****** ******
      ****** ****** ****** ****** ****** ****** ****** ****** ****** ******
  16  ****** ****** ****** ****** ****** ****** ****** ****** ****** ******
      ****** ****** ****** ****** ****** ****** ****** ****** ****** ******
      ****** ****** ****** ****** ****** ****** ****** ****** ****** ******
  17  ****** ****** ****** ****** ****** ****** ****** ****** ****** ******
      ****** ****** ****** ****** ****** ****** ****** ****** ****** ******
      ****** ****** ****** ****** ****** ****** ****** ****** ****** ******
  18  ****** ****** ****** ****** ****** ****** ****** ****** ****** ******
      ****** ****** ****** ****** ****** ****** ****** ****** ****** ******
      ****** ****** ****** ****** ****** ****** ****** ****** ****** ******
  19  ****** ****** ****** ****** ****** ****** ****** ****** ****** ******
      ****** ****** ****** ****** ****** ****** ****** ****** ****** ******
      ****** ****** ****** ****** ****** ****** ****** ****** ****** ******
  20  ****** ****** ****** ****** ****** ****** ****** ****** ****** ******
      ****** ****** ****** ****** ****** ****** ****** ****** ****** ******
      ****** ****** ****** ****** ****** ****** ****** ****** ****** ******
  21  ****** ****** ****** ****** ****** ****** ****** ****** ****** ******
      ****** ****** ****** ****** ****** ****** ****** ****** ****** ******
      ****** ****** ****** ****** ****** ****** ****** ****** ****** ******
  22  ****** ****** ****** ****** ****** ****** ****** ****** ****** ******
      ****** ****** ****** ****** ****** ****** ****** ****** ****** ******
      ****** ****** ****** ****** ****** ****** ****** ****** ****** ******
  23  ****** ****** ****** ****** ****** ****** ****** ****** ****** ******
      ****** ****** ****** ****** ****** ****** ****** ****** ****** ******
      ****** ****** ****** ****** ****** ****** ****** ****** ****** ******
  24  ****** ****** ****** ****** ****** ****** ****** ****** ****** ******
      ****** ****** ****** ****** ****** ****** ****** ****** ****** ******
      ****** ****** ****** ****** ****** ****** ****** ****** ****** ******
  25  ****** ****** ****** ****** ****** ****** ****** ****** ****** ******
      ****** ****** ****** ****** ****** ****** ****** ****** ****** ******
      ****** ****** ****** ****** ****** ****** ****** ****** ****** ******

 HEAD WILL BE SAVED ON UNIT   51 AT END OF TIME STEP    1, STRESS PERIOD    4
1
  VOLUMETRIC BUDGET FOR ENTIRE MODEL AT END OF TIME STEP    1, STRESS PERIOD   4
  ------------------------------------------------------------------------------

     CUMULATIVE VOLUMES      L**3       RATES FOR THIS TIME STEP      L**3/T
     ------------------                 ------------------------

           IN:                                      IN:
           ---                                      ---
             STORAGE =    29496226.1975               STORAGE =       18582.7567
       CONSTANT HEAD =     7699923.4435         CONSTANT HEAD =       28577.2584
               WELLS =           0.0000                 WELLS =           0.0000
            RECHARGE =     8804400.0000              RECHARGE =       27600.0000
      STREAM LEAKAGE =     3438250.7936        STREAM LEAKAGE =       13334.1171

            TOTAL IN =    49438800.4346              TOTAL IN =       88094.1323

          OUT:                                     OUT:
          ----                                     ----
             STORAGE =        1134.1485               STORAGE =          12.4632
       CONSTANT HEAD =           0.0000         CONSTANT HEAD =           0.0000
               WELLS =    14042029.4698                 WELLS =       38471.3136
            RECHARGE =           0.0000              RECHARGE =           0.0000
      STREAM LEAKAGE =    35395638.8693        STREAM LEAKAGE =       49610.3563

           TOTAL OUT =    49438802.4876             TOTAL OUT =       88094.1331

            IN - OUT =          -2.0530              IN - OUT =      -8.0260E-04

 PERCENT DISCREPANCY =          -0.00     PERCENT DISCREPANCY =          -0.00






         TIME SUMMARY AT END OF TIME STEP    1 IN STRESS PERIOD    4
                    SECONDS     MINUTES      HOURS       DAYS        YEARS
                    -----------------------------------------------------------
   TIME STEP LENGTH 7.86240E+06 1.31040E+05  2184.0      91.000     0.24914    
 STRESS PERIOD TIME 7.86240E+06 1.31040E+05  2184.0      91.000     0.24914    
         TOTAL TIME 3.15360E+07 5.25600E+05  8760.0      365.00     0.99932    
1
1
                            STRESS PERIOD NO.    5, LENGTH =   92.00000    
                            -----------------------------------------------

                              NUMBER OF TIME STEPS =     1

                               MULTIPLIER FOR DELT =     1.500

                            INITIAL TIME STEP SIZE =   92.00000    

 WELL NO.  LAYER   ROW   COL   STRESS RATE         
 --------------------------------------------------
      1      1      6     22      -8915.    
      2      1     16     17      -8329.    
      3      1      8     28     -0.1208E+05
      4      1     15     19      -9150.    

      4 WELLS

                 RECHARGE =  5.000000E-04

 REUSING STREAM SEGMENT DATA FROM LAST STRESS PERIOD
 
 SOLVING FOR HEAD 


     7 CALLS TO PCG ROUTINE FOR TIME STEP   1 IN STRESS PERIOD    5
    26 TOTAL ITERATIONS

 OUTPUT CONTROL FOR STRESS PERIOD    5   TIME STEP    1
    SAVE BUDGET
    SAVE HEAD FOR ALL LAYERS
    PRINT HEAD FOR ALL LAYERS
 UBDSV2 SAVING "STREAMFLOW OUT  " ON UNIT  50 AT TIME STEP  1, STRESS PERIOD   5



 STREAM LISTING     PERIOD      5   STEP        1

 LAYER ROW COL. STREAM  RCH.  FLOW INTO     FLOW TO   FLOW OUT OF   OVRLND.     DIRECT     STREAM       STREAM     STREAM     STREAM   STREAMBED  STREAMBED
                SEG.NO.  NO.  STRM. RCH.    AQUIFER    STRM. RCH.    RUNOFF     PRECIP       ET          HEAD       DEPTH      WIDTH   CONDCTNC.   GRADIENT

   1   13    1     1     1    1.0000E+05 -2.1135E+03   1.0211E+05  0.000E+00  0.000E+00  0.000E+00  4.84069E+01  1.456E-01  2.000E+01  2.000E+04 -1.057E-01
   1   13    2     1     2    1.0211E+05 -3.1323E+03   1.0525E+05  0.000E+00  0.000E+00  0.000E+00  4.79319E+01  1.478E-01  2.000E+01  2.000E+04 -1.566E-01
   1   14    3     1     3    1.0525E+05 -5.0383E+02   1.0575E+05  0.000E+00  0.000E+00  0.000E+00  4.74562E+01  1.494E-01  2.000E+01  2.000E+04 -2.519E-02
   1   15    4     1     4    1.0575E+05 -4.6807E+02   1.0622E+05  0.000E+00  0.000E+00  0.000E+00  4.69793E+01  1.498E-01  2.000E+01  2.000E+04 -2.340E-02
   1   16    5     1     5    1.0622E+05 -1.6702E+03   1.0789E+05  0.000E+00  0.000E+00  0.000E+00  4.65030E+01  1.507E-01  2.000E+01  2.000E+04 -8.351E-02
   1   16    6     1     6    1.0789E+05 -1.0613E+03   1.0895E+05  0.000E+00  0.000E+00  0.000E+00  4.60268E+01  1.518E-01  2.000E+01  2.000E+04 -5.307E-02
   1   16    7     1     7    1.0895E+05 -1.0351E+03   1.0998E+05  0.000E+00  0.000E+00  0.000E+00  4.55504E+01  1.527E-01  2.000E+01  2.000E+04 -5.176E-02
   1   16    8     1     8    1.0998E+05 -1.0126E+03   1.1100E+05  0.000E+00  0.000E+00  0.000E+00  4.50740E+01  1.536E-01  2.000E+01  2.000E+04 -5.063E-02
   1   16    9     1     9    1.1100E+05 -9.7242E+02   1.1197E+05  0.000E+00  0.000E+00  0.000E+00  4.45976E+01  1.544E-01  2.000E+01  2.000E+04 -4.862E-02
   1   16   10     1    10    1.1197E+05 -9.0780E+02   1.1288E+05  0.000E+00  0.000E+00  0.000E+00  4.41211E+01  1.552E-01  2.000E+01  2.000E+04 -4.539E-02
   1   16   11     1    11    1.1288E+05 -8.1670E+02   1.1369E+05  0.000E+00  0.000E+00  0.000E+00  4.36445E+01  1.559E-01  2.000E+01  2.000E+04 -4.083E-02
   1   16   12     1    12    1.1369E+05 -1.0337E+03   1.1473E+05  0.000E+00  0.000E+00  0.000E+00  4.31680E+01  1.567E-01  2.000E+01  2.000E+04 -5.169E-02
   1   15   13     1    13    1.1473E+05 -7.3799E+02   1.1547E+05  0.000E+00  0.000E+00  0.000E+00  4.26915E+01  1.574E-01  2.000E+01  2.000E+04 -3.690E-02
   1   14   14     1    14    1.1547E+05 -7.6207E+02   1.1623E+05  0.000E+00  0.000E+00  0.000E+00  4.22148E+01  1.580E-01  2.000E+01  2.000E+04 -3.810E-02
   1   13   15     1    15    1.1623E+05 -1.0538E+03   1.1728E+05  0.000E+00  0.000E+00  0.000E+00  4.17383E+01  1.587E-01  2.000E+01  2.000E+04 -5.269E-02
   1   12   16     1    16    1.1728E+05 -2.2233E+03   1.1950E+05  0.000E+00  0.000E+00  0.000E+00  4.12623E+01  1.601E-01  2.000E+01  2.000E+04 -1.112E-01
   1   12   17     1    17    1.1950E+05 -8.2158E+02   1.2033E+05  0.000E+00  0.000E+00  0.000E+00  4.07863E+01  1.613E-01  2.000E+01  2.000E+04 -4.108E-02
   1   12   18     1    18    1.2033E+05 -5.1936E+02   1.2085E+05  0.000E+00  0.000E+00  0.000E+00  4.03096E+01  1.618E-01  2.000E+01  2.000E+04 -2.597E-02
   1   12   19     1    19    1.2085E+05 -8.9448E+02   1.2174E+05  0.000E+00  0.000E+00  0.000E+00  3.98329E+01  1.624E-01  2.000E+01  2.000E+04 -4.472E-02
   1   13   20     1    20    1.2174E+05  6.9564E+02   1.2104E+05  0.000E+00  0.000E+00  0.000E+00  3.93557E+01  1.625E-01  2.000E+01  2.000E+04  3.478E-02
   1   14   21     1    21    1.2104E+05  1.0525E+03   1.1999E+05  0.000E+00  0.000E+00  0.000E+00  3.88777E+01  1.618E-01  2.000E+01  2.000E+04  5.263E-02
   1   14   22     1    22    1.1999E+05  5.3182E+03   1.1467E+05  0.000E+00  0.000E+00  0.000E+00  3.83978E+01  1.592E-01  2.000E+01  2.000E+04  2.659E-01
   1    9   30     2     1    5.0000E+04  8.4756E+02   4.9152E+04  0.000E+00  0.000E+00  0.000E+00  4.02403E+01  1.153E-01  2.000E+01  2.000E+04  4.238E-02
   1    9   29     2     2    4.9152E+04  1.3399E+03   4.7813E+04  0.000E+00  0.000E+00  0.000E+00  3.99887E+01  1.137E-01  2.000E+01  2.000E+04  6.700E-02
   1    9   28     2     3    4.7813E+04  3.5815E+03   4.4231E+04  0.000E+00  0.000E+00  0.000E+00  3.97352E+01  1.102E-01  2.000E+01  2.000E+04  1.791E-01
   1    9   27     2     4    4.4231E+04  6.2137E+02   4.3610E+04  0.000E+00  0.000E+00  0.000E+00  3.94822E+01  1.072E-01  2.000E+01  2.000E+04  3.107E-02
   1   10   26     2     5    4.3610E+04 -3.7661E+02   4.3986E+04  0.000E+00  0.000E+00  0.000E+00  3.92320E+01  1.070E-01  2.000E+01  2.000E+04 -1.883E-02
   1   11   25     2     6    4.3986E+04 -5.7793E+02   4.4564E+04  0.000E+00  0.000E+00  0.000E+00  3.89827E+01  1.077E-01  2.000E+01  2.000E+04 -2.890E-02
   1   12   24     2     7    4.4564E+04 -8.4310E+02   4.5407E+04  0.000E+00  0.000E+00  0.000E+00  3.87337E+01  1.087E-01  2.000E+01  2.000E+04 -4.216E-02
   1   13   23     2     8    4.5407E+04 -1.4698E+02   4.5554E+04  0.000E+00  0.000E+00  0.000E+00  3.84845E+01  1.095E-01  2.000E+01  2.000E+04 -7.349E-03
   1   14   22     2     9    4.5554E+04  2.0233E+03   4.3531E+04  0.000E+00  0.000E+00  0.000E+00  3.82331E+01  1.081E-01  2.000E+01  2.000E+04  1.012E-01
   1   14   22     3     1    1.5820E+05 -8.3168E+03   1.6652E+05  0.000E+00  0.000E+00  0.000E+00  3.77161E+01  1.605E-01  2.000E+01  2.000E+04 -4.158E-01
   1   15   23     3     2    1.6652E+05 -2.8070E+02   1.6680E+05  0.000E+00  0.000E+00  0.000E+00  3.68297E+01  1.631E-01  2.000E+01  2.000E+04 -1.403E-02
   1   15   24     3     3    1.6680E+05 -2.2130E+02   1.6702E+05  0.000E+00  0.000E+00  0.000E+00  3.59410E+01  1.632E-01  2.000E+01  2.000E+04 -1.107E-02
   1   15   25     3     4    1.6702E+05 -2.3377E+02   1.6726E+05  0.000E+00  0.000E+00  0.000E+00  3.50523E+01  1.634E-01  2.000E+01  2.000E+04 -1.169E-02
   1   15   26     3     5    1.6726E+05 -2.9210E+02   1.6755E+05  0.000E+00  0.000E+00  0.000E+00  3.41635E+01  1.635E-01  2.000E+01  2.000E+04 -1.461E-02
   1   16   27     3     6    1.6755E+05 -3.1972E+02   1.6787E+05  0.000E+00  0.000E+00  0.000E+00  3.32748E+01  1.637E-01  2.000E+01  2.000E+04 -1.599E-02
   1   17   28     3     7    1.6787E+05 -1.4295E+03   1.6930E+05  0.000E+00  0.000E+00  0.000E+00  3.23864E+01  1.642E-01  2.000E+01  2.000E+04 -7.147E-02
   1   18   29     3     8    1.6930E+05 -2.7729E+03   1.7207E+05  0.000E+00  0.000E+00  0.000E+00  3.14988E+01  1.654E-01  2.000E+01  2.000E+04 -1.386E-01
   1   18   30     3     9    1.7207E+05 -3.0794E+03   1.7515E+05  0.000E+00  0.000E+00  0.000E+00  3.06116E+01  1.671E-01  2.000E+01  2.000E+04 -1.540E-01



1
              HEAD IN LAYER   1 AT END OF TIME STEP   1 IN STRESS PERIOD    5
  ---------------------------------------------------------------------------

          1      2      3      4      5      6      7      8      9     10
         11     12     13     14     15     16     17     18     19     20
         21     22     23     24     25     26     27     28     29     30
 .........................................................................
   1  ****** ****** ****** ****** ****** ****** ****** ****** ****** ******
      ****** ****** ****** ****** ****** ****** ****** ****** ****** ******
      ****** ****** ****** ****** ****** ****** ****** ****** ****** ******
   2  ****** ****** ****** ****** ****** ****** ****** ****** ****** ******
      ****** ****** ****** ****** ****** ****** ****** ****** ****** ******
      ****** ****** ****** ****** ****** ****** ****** ****** ****** ******
   3  ****** ****** ****** ****** ****** ****** ****** ****** ****** ******
      ****** ****** ****** ****** ****** ****** ****** ****** ****** ******
      ****** ****** ****** ****** ****** ****** ****** ****** ****** ******
   4  ****** ****** ****** ****** ****** ****** ****** ****** ****** ******
      ****** ****** ****** ****** ****** ****** ****** ****** ****** ******
      ****** ****** ****** ****** ****** ****** ****** ****** ****** ******
   5  ****** ****** ****** ****** ****** ****** ****** ****** ****** ******
      ****** ****** ****** ****** ****** ****** ****** ****** ****** ******
      ****** ****** ****** ****** ****** ****** ****** ****** ****** ******
   6  ****** ****** ****** ****** ****** ****** ****** ****** ****** ******
      ****** ****** ****** ****** ****** ****** ****** ****** ****** ******
      ****** ****** ****** ****** ****** ****** ****** ****** ****** ******
   7  ****** ****** ****** ****** ****** ****** ****** ****** ****** ******
      ****** ****** ****** ****** ****** ****** ****** ****** ****** ******
      ****** ****** ****** ****** ****** ****** ****** ****** ****** ******
   8  ****** ****** ****** ****** ****** ****** ****** ****** ****** ******
      ****** ****** ****** ****** ****** ****** ****** ****** ****** ******
      ****** ****** ****** ****** ****** ****** ****** ****** ****** ******
   9  ****** ****** ****** ****** ****** ****** ****** ****** ****** ******
      ****** ****** ****** ****** ****** ****** ****** ****** ****** ******
      ****** ****** ****** ****** ****** ****** ****** ****** ****** ******
  10  ****** ****** ****** ****** ****** ****** ****** ****** ****** ******
      ****** ****** ****** ****** ****** ****** ****** ****** ****** ******
      ****** ****** ****** ****** ****** ****** ****** ****** ****** ******
  11  ****** ****** ****** ****** ****** ****** ****** ****** ****** ******
      ****** ****** ****** ****** ****** ****** ****** ****** ****** ******
      ****** ****** ****** ****** ****** ****** ****** ****** ****** ******
  12  ****** ****** ****** ****** ****** ****** ****** ****** ****** ******
      ****** ****** ****** ****** ****** ****** ****** ****** ****** ******
      ****** ****** ****** ****** ****** ****** ****** ****** ****** ******
  13  ****** ****** ****** ****** ****** ****** ****** ****** ****** ******
      ****** ****** ****** ****** ****** ****** ****** ****** ****** ******
      ****** ****** ****** ****** ****** ****** ****** ****** ****** ******
  14  ****** ****** ****** ****** ****** ****** ****** ****** ****** ******
      ****** ****** ****** ****** ****** ****** ****** ****** ****** ******
      ****** ****** ****** ****** ****** ****** ****** ****** ****** ******
  15  ****** ****** ****** ****** ****** ****** ****** ****** ****** ******
      ****** ****** ****** ****** ****** ****** ****** ****** ****** ******
      ****** ****** ****** ****** ****** ****** ****** ****** ****** ******
  16  ****** ****** ****** ****** ****** ****** ****** ****** ****** ******
      ****** ****** ****** ****** ****** ****** ****** ****** ****** ******
      ****** ****** ****** ****** ****** ****** ****** ****** ****** ******
  17  ****** ****** ****** ****** ****** ****** ****** ****** ****** ******
      ****** ****** ****** ****** ****** ****** ****** ****** ****** ******
      ****** ****** ****** ****** ****** ****** ****** ****** ****** ******
  18  ****** ****** ****** ****** ****** ****** ****** ****** ****** ******
      ****** ****** ****** ****** ****** ****** ****** ****** ****** ******
      ****** ****** ****** ****** ****** ****** ****** ****** ****** ******
  19  ****** ****** ****** ****** ****** ****** ****** ****** ****** ******
      ****** ****** ****** ****** ****** ****** ****** ****** ****** ******
      ****** ****** ****** ****** ****** ****** ****** ****** ****** ******
  20  ****** ****** ****** ****** ****** ****** ****** ****** ****** ******
      ****** ****** ****** ****** ****** ****** ****** ****** ****** ******
      ****** ****** ****** ****** ****** ****** ****** ****** ****** ******
  21  ****** ****** ****** ****** ****** ****** ****** ****** ****** ******
      ****** ****** ****** ****** ****** ****** ****** ****** ****** ******
      ****** ****** ****** ****** ****** ****** ****** ****** ****** ******
  22  ****** ****** ****** ****** ****** ****** ****** ****** ****** ******
      ****** ****** ****** ****** ****** ****** ****** ****** ****** ******
      ****** ****** ****** ****** ****** ****** ****** ****** ****** ******
  23  ****** ****** ****** ****** ****** ****** ****** ****** ****** ******
      ****** ****** ****** ****** ****** ****** ****** ****** ****** ******
      ****** ****** ****** ****** ****** ****** ****** ****** ****** ******
  24  ****** ****** ****** ****** ****** ****** ****** ****** ****** ******
      ****** ****** ****** ****** ****** ****** ****** ****** ****** ******
      ****** ****** ****** ****** ****** ****** ****** ****** ****** ******
  25  ****** ****** ****** ****** ****** ****** ****** ****** ****** ******
      ****** ****** ****** ****** ****** ****** ****** ****** ****** ******
      ****** ****** ****** ****** ****** ****** ****** ****** ****** ******

 HEAD WILL BE SAVED ON UNIT   51 AT END OF TIME STEP    1, STRESS PERIOD    5
1
  VOLUMETRIC BUDGET FOR ENTIRE MODEL AT END OF TIME STEP    1, STRESS PERIOD   5
  ------------------------------------------------------------------------------

     CUMULATIVE VOLUMES      L**3       RATES FOR THIS TIME STEP      L**3/T
     ------------------                 ------------------------

           IN:                                      IN:
           ---                                      ---
             STORAGE =    31179847.8625               STORAGE =       18300.2355
       CONSTANT HEAD =    10599948.4378         CONSTANT HEAD =       31522.0108
               WELLS =           0.0000                 WELLS =           0.0000
            RECHARGE =    10074000.0000              RECHARGE =       13800.0000
      STREAM LEAKAGE =     4862413.8990        STREAM LEAKAGE =       15480.0338

            TOTAL IN =    56716210.1993              TOTAL IN =       79102.2801

          OUT:                                     OUT:
          ----                                     ----
             STORAGE =        1134.1485               STORAGE =           0.0000
       CONSTANT HEAD =           0.0000         CONSTANT HEAD =           0.0000
               WELLS =    17581390.3225                 WELLS =       38471.3136
            RECHARGE =           0.0000              RECHARGE =           0.0000
      STREAM LEAKAGE =    39133688.0716        STREAM LEAKAGE =       40630.9696

           TOTAL OUT =    56716212.5426             TOTAL OUT =       79102.2832

            IN - OUT =          -2.3434              IN - OUT =      -3.1564E-03

 PERCENT DISCREPANCY =          -0.00     PERCENT DISCREPANCY =          -0.00






         TIME SUMMARY AT END OF TIME STEP    1 IN STRESS PERIOD    5
                    SECONDS     MINUTES      HOURS       DAYS        YEARS
                    -----------------------------------------------------------
   TIME STEP LENGTH 7.94880E+06 1.32480E+05  2208.0      92.000     0.25188    
 STRESS PERIOD TIME 7.94880E+06 1.32480E+05  2208.0      92.000     0.25188    
         TOTAL TIME 3.94848E+07 6.58080E+05  10968.      457.00      1.2512    
1
1
                            STRESS PERIOD NO.    6, LENGTH =   91.00000    
                            -----------------------------------------------

                              NUMBER OF TIME STEPS =     1

                               MULTIPLIER FOR DELT =     1.500

                            INITIAL TIME STEP SIZE =   91.00000    

 WELL NO.  LAYER   ROW   COL   STRESS RATE         
 --------------------------------------------------
      1      1      6     22      -8915.    
      2      1     16     17      -8329.    
      3      1      8     28     -0.1208E+05
      4      1     15     19      -9150.    

      4 WELLS

                 RECHARGE =  2.000000E-03

 REUSING STREAM SEGMENT DATA FROM LAST STRESS PERIOD
 
 SOLVING FOR HEAD 


     7 CALLS TO PCG ROUTINE FOR TIME STEP   1 IN STRESS PERIOD    6
    26 TOTAL ITERATIONS

 OUTPUT CONTROL FOR STRESS PERIOD    6   TIME STEP    1
    SAVE BUDGET
    SAVE HEAD FOR ALL LAYERS
    PRINT HEAD FOR ALL LAYERS
 UBDSV2 SAVING "STREAMFLOW OUT  " ON UNIT  50 AT TIME STEP  1, STRESS PERIOD   6



 STREAM LISTING     PERIOD      6   STEP        1

 LAYER ROW COL. STREAM  RCH.  FLOW INTO     FLOW TO   FLOW OUT OF   OVRLND.     DIRECT     STREAM       STREAM     STREAM     STREAM   STREAMBED  STREAMBED
                SEG.NO.  NO.  STRM. RCH.    AQUIFER    STRM. RCH.    RUNOFF     PRECIP       ET          HEAD       DEPTH      WIDTH   CONDCTNC.   GRADIENT

   1   13    1     1     1    1.0000E+05 -2.4314E+03   1.0243E+05  0.000E+00  0.000E+00  0.000E+00  4.84071E+01  1.457E-01  2.000E+01  2.000E+04 -1.216E-01
   1   13    2     1     2    1.0243E+05 -3.4808E+03   1.0591E+05  0.000E+00  0.000E+00  0.000E+00  4.79323E+01  1.482E-01  2.000E+01  2.000E+04 -1.740E-01
   1   14    3     1     3    1.0591E+05 -6.5921E+02   1.0657E+05  0.000E+00  0.000E+00  0.000E+00  4.74568E+01  1.500E-01  2.000E+01  2.000E+04 -3.296E-02
   1   15    4     1     4    1.0657E+05 -6.3469E+02   1.0721E+05  0.000E+00  0.000E+00  0.000E+00  4.69801E+01  1.506E-01  2.000E+01  2.000E+04 -3.173E-02
   1   16    5     1     5    1.0721E+05 -2.1651E+03   1.0937E+05  0.000E+00  0.000E+00  0.000E+00  4.65040E+01  1.517E-01  2.000E+01  2.000E+04 -1.083E-01
   1   16    6     1     6    1.0937E+05 -1.3518E+03   1.1072E+05  0.000E+00  0.000E+00  0.000E+00  4.60282E+01  1.532E-01  2.000E+01  2.000E+04 -6.759E-02
   1   16    7     1     7    1.1072E+05 -1.3104E+03   1.1203E+05  0.000E+00  0.000E+00  0.000E+00  4.55520E+01  1.543E-01  2.000E+01  2.000E+04 -6.552E-02
   1   16    8     1     8    1.1203E+05 -1.2831E+03   1.1332E+05  0.000E+00  0.000E+00  0.000E+00  4.50758E+01  1.554E-01  2.000E+01  2.000E+04 -6.416E-02
   1   16    9     1     9    1.1332E+05 -1.2422E+03   1.1456E+05  0.000E+00  0.000E+00  0.000E+00  4.45996E+01  1.564E-01  2.000E+01  2.000E+04 -6.211E-02
   1   16   10     1    10    1.1456E+05 -1.1788E+03   1.1574E+05  0.000E+00  0.000E+00  0.000E+00  4.41233E+01  1.574E-01  2.000E+01  2.000E+04 -5.894E-02
   1   16   11     1    11    1.1574E+05 -1.0904E+03   1.1683E+05  0.000E+00  0.000E+00  0.000E+00  4.36470E+01  1.584E-01  2.000E+01  2.000E+04 -5.452E-02
   1   16   12     1    12    1.1683E+05 -1.4748E+03   1.1830E+05  0.000E+00  0.000E+00  0.000E+00  4.31708E+01  1.594E-01  2.000E+01  2.000E+04 -7.374E-02
   1   15   13     1    13    1.1830E+05 -1.1905E+03   1.1949E+05  0.000E+00  0.000E+00  0.000E+00  4.26946E+01  1.605E-01  2.000E+01  2.000E+04 -5.953E-02
   1   14   14     1    14    1.1949E+05 -1.2103E+03   1.2070E+05  0.000E+00  0.000E+00  0.000E+00  4.22183E+01  1.615E-01  2.000E+01  2.000E+04 -6.051E-02
   1   13   15     1    15    1.2070E+05 -1.4829E+03   1.2219E+05  0.000E+00  0.000E+00  0.000E+00  4.17421E+01  1.625E-01  2.000E+01  2.000E+04 -7.415E-02
   1   12   16     1    16    1.2219E+05 -2.6062E+03   1.2479E+05  0.000E+00  0.000E+00  0.000E+00  4.12664E+01  1.642E-01  2.000E+01  2.000E+04 -1.303E-01
   1   12   17     1    17    1.2479E+05 -1.1327E+03   1.2593E+05  0.000E+00  0.000E+00  0.000E+00  4.07907E+01  1.657E-01  2.000E+01  2.000E+04 -5.663E-02
   1   12   18     1    18    1.2593E+05 -8.3368E+02   1.2676E+05  0.000E+00  0.000E+00  0.000E+00  4.03142E+01  1.664E-01  2.000E+01  2.000E+04 -4.168E-02
   1   12   19     1    19    1.2676E+05 -1.2843E+03   1.2804E+05  0.000E+00  0.000E+00  0.000E+00  3.98377E+01  1.673E-01  2.000E+01  2.000E+04 -6.422E-02
   1   13   20     1    20    1.2804E+05  2.7838E+02   1.2776E+05  0.000E+00  0.000E+00  0.000E+00  3.93609E+01  1.677E-01  2.000E+01  2.000E+04  1.392E-02
   1   14   21     1    21    1.2776E+05  6.4679E+02   1.2712E+05  0.000E+00  0.000E+00  0.000E+00  3.88832E+01  1.673E-01  2.000E+01  2.000E+04  3.234E-02
   1   14   22     1    22    1.2712E+05  5.2105E+03   1.2191E+05  0.000E+00  0.000E+00  0.000E+00  3.84036E+01  1.650E-01  2.000E+01  2.000E+04  2.605E-01
   1    9   30     2     1    5.0000E+04  4.8853E+02   4.9511E+04  0.000E+00  0.000E+00  0.000E+00  4.02405E+01  1.155E-01  2.000E+01  2.000E+04  2.443E-02
   1    9   29     2     2    4.9511E+04  9.8538E+02   4.8526E+04  0.000E+00  0.000E+00  0.000E+00  3.99895E+01  1.145E-01  2.000E+01  2.000E+04  4.927E-02
   1    9   28     2     3    4.8526E+04  3.2341E+03   4.5292E+04  0.000E+00  0.000E+00  0.000E+00  3.97365E+01  1.115E-01  2.000E+01  2.000E+04  1.617E-01
   1    9   27     2     4    4.5292E+04  1.8432E+02   4.5108E+04  0.000E+00  0.000E+00  0.000E+00  3.94841E+01  1.091E-01  2.000E+01  2.000E+04  9.216E-03
   1   10   26     2     5    4.5108E+04 -8.4087E+02   4.5949E+04  0.000E+00  0.000E+00  0.000E+00  3.92345E+01  1.095E-01  2.000E+01  2.000E+04 -4.204E-02
   1   11   25     2     6    4.5949E+04 -1.0289E+03   4.6977E+04  0.000E+00  0.000E+00  0.000E+00  3.89859E+01  1.109E-01  2.000E+01  2.000E+04 -5.144E-02
   1   12   24     2     7    4.6977E+04 -1.2498E+03   4.8227E+04  0.000E+00  0.000E+00  0.000E+00  3.87375E+01  1.125E-01  2.000E+01  2.000E+04 -6.249E-02
   1   13   23     2     8    4.8227E+04 -2.8436E+02   4.8512E+04  0.000E+00  0.000E+00  0.000E+00  3.84886E+01  1.136E-01  2.000E+01  2.000E+04 -1.422E-02
   1   14   22     2     9    4.8512E+04  1.8871E+03   4.6625E+04  0.000E+00  0.000E+00  0.000E+00  3.82375E+01  1.125E-01  2.000E+01  2.000E+04  9.435E-02
   1   14   22     3     1    1.6853E+05 -8.4184E+03   1.7695E+05  0.000E+00  0.000E+00  0.000E+00  3.77222E+01  1.666E-01  2.000E+01  2.000E+04 -4.209E-01
   1   15   23     3     2    1.7695E+05 -4.1656E+02   1.7737E+05  0.000E+00  0.000E+00  0.000E+00  3.68358E+01  1.692E-01  2.000E+01  2.000E+04 -2.083E-02
   1   15   24     3     3    1.7737E+05 -3.4248E+02   1.7771E+05  0.000E+00  0.000E+00  0.000E+00  3.59472E+01  1.694E-01  2.000E+01  2.000E+04 -1.712E-02
   1   15   25     3     4    1.7771E+05 -3.5956E+02   1.7807E+05  0.000E+00  0.000E+00  0.000E+00  3.50585E+01  1.696E-01  2.000E+01  2.000E+04 -1.798E-02
   1   15   26     3     5    1.7807E+05 -4.4310E+02   1.7851E+05  0.000E+00  0.000E+00  0.000E+00  3.41698E+01  1.698E-01  2.000E+01  2.000E+04 -2.216E-02
   1   16   27     3     6    1.7851E+05 -4.8774E+02   1.7900E+05  0.000E+00  0.000E+00  0.000E+00  3.32812E+01  1.701E-01  2.000E+01  2.000E+04 -2.439E-02
   1   17   28     3     7    1.7900E+05 -1.8901E+03   1.8089E+05  0.000E+00  0.000E+00  0.000E+00  3.23930E+01  1.708E-01  2.000E+01  2.000E+04 -9.451E-02
   1   18   29     3     8    1.8089E+05 -3.2082E+03   1.8410E+05  0.000E+00  0.000E+00  0.000E+00  3.15055E+01  1.722E-01  2.000E+01  2.000E+04 -1.604E-01
   1   18   30     3     9    1.8410E+05 -3.4331E+03   1.8753E+05  0.000E+00  0.000E+00  0.000E+00  3.06185E+01  1.741E-01  2.000E+01  2.000E+04 -1.717E-01



1
              HEAD IN LAYER   1 AT END OF TIME STEP   1 IN STRESS PERIOD    6
  ---------------------------------------------------------------------------

          1      2      3      4      5      6      7      8      9     10
         11     12     13     14     15     16     17     18     19     20
         21     22     23     24     25     26     27     28     29     30
 .........................................................................
   1  ****** ****** ****** ****** ****** ****** ****** ****** ****** ******
      ****** ****** ****** ****** ****** ****** ****** ****** ****** ******
      ****** ****** ****** ****** ****** ****** ****** ****** ****** ******
   2  ****** ****** ****** ****** ****** ****** ****** ****** ****** ******
      ****** ****** ****** ****** ****** ****** ****** ****** ****** ******
      ****** ****** ****** ****** ****** ****** ****** ****** ****** ******
   3  ****** ****** ****** ****** ****** ****** ****** ****** ****** ******
      ****** ****** ****** ****** ****** ****** ****** ****** ****** ******
      ****** ****** ****** ****** ****** ****** ****** ****** ****** ******
   4  ****** ****** ****** ****** ****** ****** ****** ****** ****** ******
      ****** ****** ****** ****** ****** ****** ****** ****** ****** ******
      ****** ****** ****** ****** ****** ****** ****** ****** ****** ******
   5  ****** ****** ****** ****** ****** ****** ****** ****** ****** ******
      ****** ****** ****** ****** ****** ****** ****** ****** ****** ******
      ****** ****** ****** ****** ****** ****** ****** ****** ****** ******
   6  ****** ****** ****** ****** ****** ****** ****** ****** ****** ******
      ****** ****** ****** ****** ****** ****** ****** ****** ****** ******
      ****** ****** ****** ****** ****** ****** ****** ****** ****** ******
   7  ****** ****** ****** ****** ****** ****** ****** ****** ****** ******
      ****** ****** ****** ****** ****** ****** ****** ****** ****** ******
      ****** ****** ****** ****** ****** ****** ****** ****** ****** ******
   8  ****** ****** ****** ****** ****** ****** ****** ****** ****** ******
      ****** ****** ****** ****** ****** ****** ****** ****** ****** ******
      ****** ****** ****** ****** ****** ****** ****** ****** ****** ******
   9  ****** ****** ****** ****** ****** ****** ****** ****** ****** ******
      ****** ****** ****** ****** ****** ****** ****** ****** ****** ******
      ****** ****** ****** ****** ****** ****** ****** ****** ****** ******
  10  ****** ****** ****** ****** ****** ****** ****** ****** ****** ******
      ****** ****** ****** ****** ****** ****** ****** ****** ****** ******
      ****** ****** ****** ****** ****** ****** ****** ****** ****** ******
  11  ****** ****** ****** ****** ****** ****** ****** ****** ****** ******
      ****** ****** ****** ****** ****** ****** ****** ****** ****** ******
      ****** ****** ****** ****** ****** ****** ****** ****** ****** ******
  12  ****** ****** ****** ****** ****** ****** ****** ****** ****** ******
      ****** ****** ****** ****** ****** ****** ****** ****** ****** ******
      ****** ****** ****** ****** ****** ****** ****** ****** ****** ******
  13  ****** ****** ****** ****** ****** ****** ****** ****** ****** ******
      ****** ****** ****** ****** ****** ****** ****** ****** ****** ******
      ****** ****** ****** ****** ****** ****** ****** ****** ****** ******
  14  ****** ****** ****** ****** ****** ****** ****** ****** ****** ******
      ****** ****** ****** ****** ****** ****** ****** ****** ****** ******
      ****** ****** ****** ****** ****** ****** ****** ****** ****** ******
  15  ****** ****** ****** ****** ****** ****** ****** ****** ****** ******
      ****** ****** ****** ****** ****** ****** ****** ****** ****** ******
      ****** ****** ****** ****** ****** ****** ****** ****** ****** ******
  16  ****** ****** ****** ****** ****** ****** ****** ****** ****** ******
      ****** ****** ****** ****** ****** ****** ****** ****** ****** ******
      ****** ****** ****** ****** ****** ****** ****** ****** ****** ******
  17  ****** ****** ****** ****** ****** ****** ****** ****** ****** ******
      ****** ****** ****** ****** ****** ****** ****** ****** ****** ******
      ****** ****** ****** ****** ****** ****** ****** ****** ****** ******
  18  ****** ****** ****** ****** ****** ****** ****** ****** ****** ******
      ****** ****** ****** ****** ****** ****** ****** ****** ****** ******
      ****** ****** ****** ****** ****** ****** ****** ****** ****** ******
  19  ****** ****** ****** ****** ****** ****** ****** ****** ****** ******
      ****** ****** ****** ****** ****** ****** ****** ****** ****** ******
      ****** ****** ****** ****** ****** ****** ****** ****** ****** ******
  20  ****** ****** ****** ****** ****** ****** ****** ****** ****** ******
      ****** ****** ****** ****** ****** ****** ****** ****** ****** ******
      ****** ****** ****** ****** ****** ****** ****** ****** ****** ******
  21  ****** ****** ****** ****** ****** ****** ****** ****** ****** ******
      ****** ****** ****** ****** ****** ****** ****** ****** ****** ******
      ****** ****** ****** ****** ****** ****** ****** ****** ****** ******
  22  ****** ****** ****** ****** ****** ****** ****** ****** ****** ******
      ****** ****** ****** ****** ****** ****** ****** ****** ****** ******
      ****** ****** ****** ****** ****** ****** ****** ****** ****** ******
  23  ****** ****** ****** ****** ****** ****** ****** ****** ****** ******
      ****** ****** ****** ****** ****** ****** ****** ****** ****** ******
      ****** ****** ****** ****** ****** ****** ****** ****** ****** ******
  24  ****** ****** ****** ****** ****** ****** ****** ****** ****** ******
      ****** ****** ****** ****** ****** ****** ****** ****** ****** ******
      ****** ****** ****** ****** ****** ****** ****** ****** ****** ******
  25  ****** ****** ****** ****** ****** ****** ****** ****** ****** ******
      ****** ****** ****** ****** ****** ****** ****** ****** ****** ******
      ****** ****** ****** ****** ****** ****** ****** ****** ****** ******

 HEAD WILL BE SAVED ON UNIT   51 AT END OF TIME STEP    1, STRESS PERIOD    6
1
  VOLUMETRIC BUDGET FOR ENTIRE MODEL AT END OF TIME STEP    1, STRESS PERIOD   6
  ------------------------------------------------------------------------------

     CUMULATIVE VOLUMES      L**3       RATES FOR THIS TIME STEP      L**3/T
     ------------------                 ------------------------

           IN:                                      IN:
           ---                                      ---
             STORAGE =    31179847.8625               STORAGE =           0.0000
       CONSTANT HEAD =    13295650.4264         CONSTANT HEAD =       29623.0988
               WELLS =           0.0000                 WELLS =           0.0000
            RECHARGE =    15097200.0000              RECHARGE =       55200.0000
      STREAM LEAKAGE =     6037682.9748        STREAM LEAKAGE =       12915.0448

            TOTAL IN =    65610381.2637              TOTAL IN =       97738.1436

          OUT:                                     OUT:
          ----                                     ----
             STORAGE =      803791.8413               STORAGE =        8820.4142
       CONSTANT HEAD =           0.0000         CONSTANT HEAD =           0.0000
               WELLS =    21082279.8615                 WELLS =       38471.3136
            RECHARGE =           0.0000              RECHARGE =           0.0000
      STREAM LEAKAGE =    43724311.6359        STREAM LEAKAGE =       50446.4128

           TOTAL OUT =    65610383.3388             TOTAL OUT =       97738.1406

            IN - OUT =          -2.0750              IN - OUT =       2.9487E-03

 PERCENT DISCREPANCY =          -0.00     PERCENT DISCREPANCY =           0.00






         TIME SUMMARY AT END OF TIME STEP    1 IN STRESS PERIOD    6
                    SECONDS     MINUTES      HOURS       DAYS        YEARS
                    -----------------------------------------------------------
   TIME STEP LENGTH 7.86240E+06 1.31040E+05  2184.0      91.000     0.24914    
 STRESS PERIOD TIME 7.86240E+06 1.31040E+05  2184.0      91.000     0.24914    
         TOTAL TIME 4.73472E+07 7.89120E+05  13152.      548.00      1.5003    
1
1
                            STRESS PERIOD NO.    7, LENGTH =   91.00000    
                            -----------------------------------------------

                              NUMBER OF TIME STEPS =     1

                               MULTIPLIER FOR DELT =     1.500

                            INITIAL TIME STEP SIZE =   91.00000    

 WELL NO.  LAYER   ROW   COL   STRESS RATE         
 --------------------------------------------------
      1      1      6     22      -8915.    
      2      1     16     17      -8329.    
      3      1      8     28     -0.1208E+05
      4      1     15     19      -9150.    

      4 WELLS

                 RECHARGE =   0.00000    

 REUSING STREAM SEGMENT DATA FROM LAST STRESS PERIOD
 
 SOLVING FOR HEAD 


     7 CALLS TO PCG ROUTINE FOR TIME STEP   1 IN STRESS PERIOD    7
    26 TOTAL ITERATIONS

 OUTPUT CONTROL FOR STRESS PERIOD    7   TIME STEP    1
    SAVE BUDGET
    SAVE HEAD FOR ALL LAYERS
    PRINT HEAD FOR ALL LAYERS
 UBDSV2 SAVING "STREAMFLOW OUT  " ON UNIT  50 AT TIME STEP  1, STRESS PERIOD   7



 STREAM LISTING     PERIOD      7   STEP        1

 LAYER ROW COL. STREAM  RCH.  FLOW INTO     FLOW TO   FLOW OUT OF   OVRLND.     DIRECT     STREAM       STREAM     STREAM     STREAM   STREAMBED  STREAMBED
                SEG.NO.  NO.  STRM. RCH.    AQUIFER    STRM. RCH.    RUNOFF     PRECIP       ET          HEAD       DEPTH      WIDTH   CONDCTNC.   GRADIENT

   1   13    1     1     1    1.0000E+05 -1.7682E+03   1.0177E+05  0.000E+00  0.000E+00  0.000E+00  4.84068E+01  1.454E-01  2.000E+01  2.000E+04 -8.841E-02
   1   13    2     1     2    1.0177E+05 -2.7390E+03   1.0451E+05  0.000E+00  0.000E+00  0.000E+00  4.79314E+01  1.474E-01  2.000E+01  2.000E+04 -1.369E-01
   1   14    3     1     3    1.0451E+05 -4.0774E+02   1.0491E+05  0.000E+00  0.000E+00  0.000E+00  4.74555E+01  1.487E-01  2.000E+01  2.000E+04 -2.039E-02
   1   15    4     1     4    1.0491E+05 -3.7230E+02   1.0529E+05  0.000E+00  0.000E+00  0.000E+00  4.69786E+01  1.490E-01  2.000E+01  2.000E+04 -1.861E-02
   1   16    5     1     5    1.0529E+05 -1.4110E+03   1.0670E+05  0.000E+00  0.000E+00  0.000E+00  4.65021E+01  1.498E-01  2.000E+01  2.000E+04 -7.055E-02
   1   16    6     1     6    1.0670E+05 -8.9721E+02   1.0760E+05  0.000E+00  0.000E+00  0.000E+00  4.60258E+01  1.508E-01  2.000E+01  2.000E+04 -4.486E-02
   1   16    7     1     7    1.0760E+05 -8.7412E+02   1.0847E+05  0.000E+00  0.000E+00  0.000E+00  4.55492E+01  1.515E-01  2.000E+01  2.000E+04 -4.371E-02
   1   16    8     1     8    1.0847E+05 -8.5271E+02   1.0932E+05  0.000E+00  0.000E+00  0.000E+00  4.50727E+01  1.522E-01  2.000E+01  2.000E+04 -4.264E-02
   1   16    9     1     9    1.0932E+05 -8.1481E+02   1.1014E+05  0.000E+00  0.000E+00  0.000E+00  4.45961E+01  1.529E-01  2.000E+01  2.000E+04 -4.074E-02
   1   16   10     1    10    1.1014E+05 -7.5363E+02   1.1089E+05  0.000E+00  0.000E+00  0.000E+00  4.41195E+01  1.536E-01  2.000E+01  2.000E+04 -3.768E-02
   1   16   11     1    11    1.1089E+05 -6.6365E+02   1.1155E+05  0.000E+00  0.000E+00  0.000E+00  4.36428E+01  1.542E-01  2.000E+01  2.000E+04 -3.318E-02
   1   16   12     1    12    1.1155E+05 -7.5719E+02   1.1231E+05  0.000E+00  0.000E+00  0.000E+00  4.31661E+01  1.548E-01  2.000E+01  2.000E+04 -3.786E-02
   1   15   13     1    13    1.1231E+05 -4.2196E+02   1.1273E+05  0.000E+00  0.000E+00  0.000E+00  4.26894E+01  1.553E-01  2.000E+01  2.000E+04 -2.110E-02
   1   14   14     1    14    1.1273E+05 -4.1446E+02   1.1315E+05  0.000E+00  0.000E+00  0.000E+00  4.22124E+01  1.556E-01  2.000E+01  2.000E+04 -2.072E-02
   1   13   15     1    15    1.1315E+05 -6.8547E+02   1.1383E+05  0.000E+00  0.000E+00  0.000E+00  4.17356E+01  1.561E-01  2.000E+01  2.000E+04 -3.427E-02
   1   12   16     1    16    1.1383E+05 -1.8154E+03   1.1565E+05  0.000E+00  0.000E+00  0.000E+00  4.12594E+01  1.571E-01  2.000E+01  2.000E+04 -9.077E-02
   1   12   17     1    17    1.1565E+05 -5.5651E+02   1.1621E+05  0.000E+00  0.000E+00  0.000E+00  4.07831E+01  1.581E-01  2.000E+01  2.000E+04 -2.783E-02
   1   12   18     1    18    1.1621E+05 -2.7108E+02   1.1648E+05  0.000E+00  0.000E+00  0.000E+00  4.03061E+01  1.584E-01  2.000E+01  2.000E+04 -1.355E-02
   1   12   19     1    19    1.1648E+05 -5.9659E+02   1.1707E+05  0.000E+00  0.000E+00  0.000E+00  3.98292E+01  1.588E-01  2.000E+01  2.000E+04 -2.983E-02
   1   13   20     1    20    1.1707E+05  9.4914E+02   1.1612E+05  0.000E+00  0.000E+00  0.000E+00  3.93518E+01  1.586E-01  2.000E+01  2.000E+04  4.746E-02
   1   14   21     1    21    1.1612E+05  1.3098E+03   1.1481E+05  0.000E+00  0.000E+00  0.000E+00  3.88736E+01  1.577E-01  2.000E+01  2.000E+04  6.549E-02
   1   14   22     1    22    1.1481E+05  5.3723E+03   1.0944E+05  0.000E+00  0.000E+00  0.000E+00  3.83936E+01  1.549E-01  2.000E+01  2.000E+04  2.686E-01
   1    9   30     2     1    5.0000E+04  1.0040E+03   4.8996E+04  0.000E+00  0.000E+00  0.000E+00  4.02402E+01  1.152E-01  2.000E+01  2.000E+04  5.020E-02
   1    9   29     2     2    4.8996E+04  1.4991E+03   4.7497E+04  0.000E+00  0.000E+00  0.000E+00  3.99884E+01  1.134E-01  2.000E+01  2.000E+04  7.496E-02
   1    9   28     2     3    4.7497E+04  3.7492E+03   4.3748E+04  0.000E+00  0.000E+00  0.000E+00  3.97347E+01  1.097E-01  2.000E+01  2.000E+04  1.875E-01
   1    9   27     2     4    4.3748E+04  8.8471E+02   4.2863E+04  0.000E+00  0.000E+00  0.000E+00  3.94813E+01  1.063E-01  2.000E+01  2.000E+04  4.424E-02
   1   10   26     2     5    4.2863E+04 -1.3990E+02   4.3003E+04  0.000E+00  0.000E+00  0.000E+00  3.92307E+01  1.057E-01  2.000E+01  2.000E+04 -6.995E-03
   1   11   25     2     6    4.3003E+04 -3.5714E+02   4.3360E+04  0.000E+00  0.000E+00  0.000E+00  3.89811E+01  1.061E-01  2.000E+01  2.000E+04 -1.786E-02
   1   12   24     2     7    4.3360E+04 -6.3766E+02   4.3998E+04  0.000E+00  0.000E+00  0.000E+00  3.87318E+01  1.068E-01  2.000E+01  2.000E+04 -3.188E-02
   1   13   23     2     8    4.3998E+04 -9.2443E+01   4.4090E+04  0.000E+00  0.000E+00  0.000E+00  3.84824E+01  1.074E-01  2.000E+01  2.000E+04 -4.622E-03
   1   14   22     2     9    4.4090E+04  2.1186E+03   4.1971E+04  0.000E+00  0.000E+00  0.000E+00  3.82309E+01  1.059E-01  2.000E+01  2.000E+04  1.059E-01
   1   14   22     3     1    1.5141E+05 -8.2588E+03   1.5967E+05  0.000E+00  0.000E+00  0.000E+00  3.77120E+01  1.565E-01  2.000E+01  2.000E+04 -4.129E-01
   1   15   23     3     2    1.5967E+05 -2.0988E+02   1.5988E+05  0.000E+00  0.000E+00  0.000E+00  3.68257E+01  1.590E-01  2.000E+01  2.000E+04 -1.049E-02
   1   15   24     3     3    1.5988E+05 -1.6874E+02   1.6005E+05  0.000E+00  0.000E+00  0.000E+00  3.59369E+01  1.591E-01  2.000E+01  2.000E+04 -8.437E-03
   1   15   25     3     4    1.6005E+05 -1.8278E+02   1.6023E+05  0.000E+00  0.000E+00  0.000E+00  3.50481E+01  1.592E-01  2.000E+01  2.000E+04 -9.139E-03
   1   15   26     3     5    1.6023E+05 -2.4189E+02   1.6048E+05  0.000E+00  0.000E+00  0.000E+00  3.41593E+01  1.593E-01  2.000E+01  2.000E+04 -1.209E-02
   1   16   27     3     6    1.6048E+05 -2.5536E+02   1.6073E+05  0.000E+00  0.000E+00  0.000E+00  3.32706E+01  1.595E-01  2.000E+01  2.000E+04 -1.277E-02
   1   17   28     3     7    1.6073E+05 -1.2485E+03   1.6198E+05  0.000E+00  0.000E+00  0.000E+00  3.23822E+01  1.599E-01  2.000E+01  2.000E+04 -6.242E-02
   1   18   29     3     8    1.6198E+05 -2.5215E+03   1.6450E+05  0.000E+00  0.000E+00  0.000E+00  3.14944E+01  1.611E-01  2.000E+01  2.000E+04 -1.261E-01
   1   18   30     3     9    1.6450E+05 -2.9043E+03   1.6740E+05  0.000E+00  0.000E+00  0.000E+00  3.06071E+01  1.627E-01  2.000E+01  2.000E+04 -1.452E-01



1
              HEAD IN LAYER   1 AT END OF TIME STEP   1 IN STRESS PERIOD    7
  ---------------------------------------------------------------------------

          1      2      3      4      5      6      7      8      9     10
         11     12     13     14     15     16     17     18     19     20
         21     22     23     24     25     26     27     28     29     30
 .........................................................................
   1  ****** ****** ****** ****** ****** ****** ****** ****** ****** ******
      ****** ****** ****** ****** ****** ****** ****** ****** ****** ******
      ****** ****** ****** ****** ****** ****** ****** ****** ****** ******
   2  ****** ****** ****** ****** ****** ****** ****** ****** ****** ******
      ****** ****** ****** ****** ****** ****** ****** ****** ****** ******
      ****** ****** ****** ****** ****** ****** ****** ****** ****** ******
   3  ****** ****** ****** ****** ****** ****** ****** ****** ****** ******
      ****** ****** ****** ****** ****** ****** ****** ****** ****** ******
      ****** ****** ****** ****** ****** ****** ****** ****** ****** ******
   4  ****** ****** ****** ****** ****** ****** ****** ****** ****** ******
      ****** ****** ****** ****** ****** ****** ****** ****** ****** ******
      ****** ****** ****** ****** ****** ****** ****** ****** ****** ******
   5  ****** ****** ****** ****** ****** ****** ****** ****** ****** ******
      ****** ****** ****** ****** ****** ****** ****** ****** ****** ******
      ****** ****** ****** ****** ****** ****** ****** ****** ****** ******
   6  ****** ****** ****** ****** ****** ****** ****** ****** ****** ******
      ****** ****** ****** ****** ****** ****** ****** ****** ****** ******
      ****** ****** ****** ****** ****** ****** ****** ****** ****** ******
   7  ****** ****** ****** ****** ****** ****** ****** ****** ****** ******
      ****** ****** ****** ****** ****** ****** ****** ****** ****** ******
      ****** ****** ****** ****** ****** ****** ****** ****** ****** ******
   8  ****** ****** ****** ****** ****** ****** ****** ****** ****** ******
      ****** ****** ****** ****** ****** ****** ****** ****** ****** ******
      ****** ****** ****** ****** ****** ****** ****** ****** ****** ******
   9  ****** ****** ****** ****** ****** ****** ****** ****** ****** ******
      ****** ****** ****** ****** ****** ****** ****** ****** ****** ******
      ****** ****** ****** ****** ****** ****** ****** ****** ****** ******
  10  ****** ****** ****** ****** ****** ****** ****** ****** ****** ******
      ****** ****** ****** ****** ****** ****** ****** ****** ****** ******
      ****** ****** ****** ****** ****** ****** ****** ****** ****** ******
  11  ****** ****** ****** ****** ****** ****** ****** ****** ****** ******
      ****** ****** ****** ****** ****** ****** ****** ****** ****** ******
      ****** ****** ****** ****** ****** ****** ****** ****** ****** ******
  12  ****** ****** ****** ****** ****** ****** ****** ****** ****** ******
      ****** ****** ****** ****** ****** ****** ****** ****** ****** ******
      ****** ****** ****** ****** ****** ****** ****** ****** ****** ******
  13  ****** ****** ****** ****** ****** ****** ****** ****** ****** ******
      ****** ****** ****** ****** ****** ****** ****** ****** ****** ******
      ****** ****** ****** ****** ****** ****** ****** ****** ****** ******
  14  ****** ****** ****** ****** ****** ****** ****** ****** ****** ******
      ****** ****** ****** ****** ****** ****** ****** ****** ****** ******
      ****** ****** ****** ****** ****** ****** ****** ****** ****** ******
  15  ****** ****** ****** ****** ****** ****** ****** ****** ****** ******
      ****** ****** ****** ****** ****** ****** ****** ****** ****** ******
      ****** ****** ****** ****** ****** ****** ****** ****** ****** ******
  16  ****** ****** ****** ****** ****** ****** ****** ****** ****** ******
      ****** ****** ****** ****** ****** ****** ****** ****** ****** ******
      ****** ****** ****** ****** ****** ****** ****** ****** ****** ******
  17  ****** ****** ****** ****** ****** ****** ****** ****** ****** ******
      ****** ****** ****** ****** ****** ****** ****** ****** ****** ******
      ****** ****** ****** ****** ****** ****** ****** ****** ****** ******
  18  ****** ****** ****** ****** ****** ****** ****** ****** ****** ******
      ****** ****** ****** ****** ****** ****** ****** ****** ****** ******
      ****** ****** ****** ****** ****** ****** ****** ****** ****** ******
  19  ****** ****** ****** ****** ****** ****** ****** ****** ****** ******
      ****** ****** ****** ****** ****** ****** ****** ****** ****** ******
      ****** ****** ****** ****** ****** ****** ****** ****** ****** ******
  20  ****** ****** ****** ****** ****** ****** ****** ****** ****** ******
      ****** ****** ****** ****** ****** ****** ****** ****** ****** ******
      ****** ****** ****** ****** ****** ****** ****** ****** ****** ******
  21  ****** ****** ****** ****** ****** ****** ****** ****** ****** ******
      ****** ****** ****** ****** ****** ****** ****** ****** ****** ******
      ****** ****** ****** ****** ****** ****** ****** ****** ****** ******
  22  ****** ****** ****** ****** ****** ****** ****** ****** ****** ******
      ****** ****** ****** ****** ****** ****** ****** ****** ****** ******
      ****** ****** ****** ****** ****** ****** ****** ****** ****** ******
  23  ****** ****** ****** ****** ****** ****** ****** ****** ****** ******
      ****** ****** ****** ****** ****** ****** ****** ****** ****** ******
      ****** ****** ****** ****** ****** ****** ****** ****** ****** ******
  24  ****** ****** ****** ****** ****** ****** ****** ****** ****** ******
      ****** ****** ****** ****** ****** ****** ****** ****** ****** ******
      ****** ****** ****** ****** ****** ****** ****** ****** ****** ******
  25  ****** ****** ****** ****** ****** ****** ****** ****** ****** ******
      ****** ****** ****** ****** ****** ****** ****** ****** ****** ******
      ****** ****** ****** ****** ****** ****** ****** ****** ****** ******

 HEAD WILL BE SAVED ON UNIT   51 AT END OF TIME STEP    1, STRESS PERIOD    7
1
  VOLUMETRIC BUDGET FOR ENTIRE MODEL AT END OF TIME STEP    1, STRESS PERIOD   7
  ------------------------------------------------------------------------------

     CUMULATIVE VOLUMES      L**3       RATES FOR THIS TIME STEP      L**3/T
     ------------------                 ------------------------

           IN:                                      IN:
           ---                                      ---
             STORAGE =    33211453.5618               STORAGE =       22325.3374
       CONSTANT HEAD =    16348765.6281         CONSTANT HEAD =       33550.7165
               WELLS =           0.0000                 WELLS =           0.0000
            RECHARGE =    15097200.0000              RECHARGE =           0.0000
      STREAM LEAKAGE =     7574397.7449        STREAM LEAKAGE =       16886.9755

            TOTAL IN =    72231816.9347              TOTAL IN =       72763.0294

          OUT:                                     OUT:
          ----                                     ----
             STORAGE =      803791.8413               STORAGE =           0.0000
       CONSTANT HEAD =           0.0000         CONSTANT HEAD =           0.0000
               WELLS =    24583169.4006                 WELLS =       38471.3136
            RECHARGE =           0.0000              RECHARGE =           0.0000
      STREAM LEAKAGE =    46844858.2773        STREAM LEAKAGE =       34291.7213

           TOTAL OUT =    72231819.5192             TOTAL OUT =       72763.0349

            IN - OUT =          -2.5845              IN - OUT =      -5.5988E-03

 PERCENT DISCREPANCY =          -0.00     PERCENT DISCREPANCY =          -0.00






         TIME SUMMARY AT END OF TIME STEP    1 IN STRESS PERIOD    7
                    SECONDS     MINUTES      HOURS       DAYS        YEARS
                    -----------------------------------------------------------
   TIME STEP LENGTH 7.86240E+06 1.31040E+05  2184.0      91.000     0.24914    
 STRESS PERIOD TIME 7.86240E+06 1.31040E+05  2184.0      91.000     0.24914    
         TOTAL TIME 5.52096E+07 9.20160E+05  15336.      639.00      1.7495    
1
1
                            STRESS PERIOD NO.    8, LENGTH =   91.00000    
                            -----------------------------------------------

                              NUMBER OF TIME STEPS =     1

                               MULTIPLIER FOR DELT =     1.500

                            INITIAL TIME STEP SIZE =   91.00000    

 WELL NO.  LAYER   ROW   COL   STRESS RATE         
 --------------------------------------------------
      1      1      6     22      -8915.    
      2      1     16     17      -8329.    
      3      1      8     28     -0.1208E+05
      4      1     15     19      -9150.    

      4 WELLS

                 RECHARGE =  1.000000E-03

 REUSING STREAM SEGMENT DATA FROM LAST STRESS PERIOD
 
 SOLVING FOR HEAD 


     6 CALLS TO PCG ROUTINE FOR TIME STEP   1 IN STRESS PERIOD    8
    22 TOTAL ITERATIONS

 OUTPUT CONTROL FOR STRESS PERIOD    8   TIME STEP    1
    SAVE BUDGET
    SAVE HEAD FOR ALL LAYERS
    PRINT HEAD FOR ALL LAYERS
 UBDSV2 SAVING "STREAMFLOW OUT  " ON UNIT  50 AT TIME STEP  1, STRESS PERIOD   8



 STREAM LISTING     PERIOD      8   STEP        1

 LAYER ROW COL. STREAM  RCH.  FLOW INTO     FLOW TO   FLOW OUT OF   OVRLND.     DIRECT     STREAM       STREAM     STREAM     STREAM   STREAMBED  STREAMBED
                SEG.NO.  NO.  STRM. RCH.    AQUIFER    STRM. RCH.    RUNOFF     PRECIP       ET          HEAD       DEPTH      WIDTH   CONDCTNC.   GRADIENT

   1   13    1     1     1    1.0000E+05 -1.8438E+03   1.0184E+05  0.000E+00  0.000E+00  0.000E+00  4.84068E+01  1.455E-01  2.000E+01  2.000E+04 -9.219E-02
   1   13    2     1     2    1.0184E+05 -2.8146E+03   1.0466E+05  0.000E+00  0.000E+00  0.000E+00  4.79315E+01  1.475E-01  2.000E+01  2.000E+04 -1.407E-01
   1   14    3     1     3    1.0466E+05 -4.7214E+02   1.0513E+05  0.000E+00  0.000E+00  0.000E+00  4.74557E+01  1.489E-01  2.000E+01  2.000E+04 -2.361E-02
   1   15    4     1     4    1.0513E+05 -4.4123E+02   1.0557E+05  0.000E+00  0.000E+00  0.000E+00  4.69788E+01  1.492E-01  2.000E+01  2.000E+04 -2.206E-02
   1   16    5     1     5    1.0557E+05 -1.5845E+03   1.0716E+05  0.000E+00  0.000E+00  0.000E+00  4.65024E+01  1.501E-01  2.000E+01  2.000E+04 -7.923E-02
   1   16    6     1     6    1.0716E+05 -1.0041E+03   1.0816E+05  0.000E+00  0.000E+00  0.000E+00  4.60262E+01  1.512E-01  2.000E+01  2.000E+04 -5.021E-02
   1   16    7     1     7    1.0816E+05 -9.7604E+02   1.0914E+05  0.000E+00  0.000E+00  0.000E+00  4.55498E+01  1.520E-01  2.000E+01  2.000E+04 -4.880E-02
   1   16    8     1     8    1.0914E+05 -9.5377E+02   1.1009E+05  0.000E+00  0.000E+00  0.000E+00  4.50733E+01  1.528E-01  2.000E+01  2.000E+04 -4.769E-02
   1   16    9     1     9    1.1009E+05 -9.1695E+02   1.1101E+05  0.000E+00  0.000E+00  0.000E+00  4.45968E+01  1.536E-01  2.000E+01  2.000E+04 -4.585E-02
   1   16   10     1    10    1.1101E+05 -8.5817E+02   1.1187E+05  0.000E+00  0.000E+00  0.000E+00  4.41203E+01  1.544E-01  2.000E+01  2.000E+04 -4.291E-02
   1   16   11     1    11    1.1187E+05 -7.7109E+02   1.1264E+05  0.000E+00  0.000E+00  0.000E+00  4.36437E+01  1.550E-01  2.000E+01  2.000E+04 -3.855E-02
   1   16   12     1    12    1.1264E+05 -9.1769E+02   1.1355E+05  0.000E+00  0.000E+00  0.000E+00  4.31671E+01  1.557E-01  2.000E+01  2.000E+04 -4.588E-02
   1   15   13     1    13    1.1355E+05 -5.8973E+02   1.1414E+05  0.000E+00  0.000E+00  0.000E+00  4.26904E+01  1.564E-01  2.000E+01  2.000E+04 -2.949E-02
   1   14   14     1    14    1.1414E+05 -5.7532E+02   1.1472E+05  0.000E+00  0.000E+00  0.000E+00  4.22137E+01  1.568E-01  2.000E+01  2.000E+04 -2.877E-02
   1   13   15     1    15    1.1472E+05 -8.3343E+02   1.1555E+05  0.000E+00  0.000E+00  0.000E+00  4.17370E+01  1.574E-01  2.000E+01  2.000E+04 -4.167E-02
   1   12   16     1    16    1.1555E+05 -1.9251E+03   1.1748E+05  0.000E+00  0.000E+00  0.000E+00  4.12608E+01  1.585E-01  2.000E+01  2.000E+04 -9.625E-02
   1   12   17     1    17    1.1748E+05 -6.6663E+02   1.1814E+05  0.000E+00  0.000E+00  0.000E+00  4.07846E+01  1.596E-01  2.000E+01  2.000E+04 -3.333E-02
   1   12   18     1    18    1.1814E+05 -3.8787E+02   1.1853E+05  0.000E+00  0.000E+00  0.000E+00  4.03078E+01  1.600E-01  2.000E+01  2.000E+04 -1.939E-02
   1   12   19     1    19    1.1853E+05 -7.4375E+02   1.1928E+05  0.000E+00  0.000E+00  0.000E+00  3.98309E+01  1.605E-01  2.000E+01  2.000E+04 -3.719E-02
   1   13   20     1    20    1.1928E+05  7.7235E+02   1.1850E+05  0.000E+00  0.000E+00  0.000E+00  3.93537E+01  1.605E-01  2.000E+01  2.000E+04  3.862E-02
   1   14   21     1    21    1.1850E+05  1.1527E+03   1.1735E+05  0.000E+00  0.000E+00  0.000E+00  3.88756E+01  1.597E-01  2.000E+01  2.000E+04  5.763E-02
   1   14   22     1    22    1.1735E+05  5.3238E+03   1.1203E+05  0.000E+00  0.000E+00  0.000E+00  3.83957E+01  1.570E-01  2.000E+01  2.000E+04  2.662E-01
   1    9   30     2     1    5.0000E+04  8.4195E+02   4.9158E+04  0.000E+00  0.000E+00  0.000E+00  4.02403E+01  1.153E-01  2.000E+01  2.000E+04  4.210E-02
   1    9   29     2     2    4.9158E+04  1.3399E+03   4.7818E+04  0.000E+00  0.000E+00  0.000E+00  3.99888E+01  1.138E-01  2.000E+01  2.000E+04  6.699E-02
   1    9   28     2     3    4.7818E+04  3.5957E+03   4.4222E+04  0.000E+00  0.000E+00  0.000E+00  3.97352E+01  1.102E-01  2.000E+01  2.000E+04  1.798E-01
   1    9   27     2     4    4.4222E+04  7.0906E+02   4.3513E+04  0.000E+00  0.000E+00  0.000E+00  3.94821E+01  1.071E-01  2.000E+01  2.000E+04  3.545E-02
   1   10   26     2     5    4.3513E+04 -3.4334E+02   4.3857E+04  0.000E+00  0.000E+00  0.000E+00  3.92318E+01  1.068E-01  2.000E+01  2.000E+04 -1.717E-02
   1   11   25     2     6    4.3857E+04 -5.5933E+02   4.4416E+04  0.000E+00  0.000E+00  0.000E+00  3.89825E+01  1.075E-01  2.000E+01  2.000E+04 -2.797E-02
   1   12   24     2     7    4.4416E+04 -8.2117E+02   4.5237E+04  0.000E+00  0.000E+00  0.000E+00  3.87335E+01  1.085E-01  2.000E+01  2.000E+04 -4.106E-02
   1   13   23     2     8    4.5237E+04 -1.6648E+02   4.5404E+04  0.000E+00  0.000E+00  0.000E+00  3.84842E+01  1.092E-01  2.000E+01  2.000E+04 -8.324E-03
   1   14   22     2     9    4.5404E+04  2.0671E+03   4.3337E+04  0.000E+00  0.000E+00  0.000E+00  3.82329E+01  1.079E-01  2.000E+01  2.000E+04  1.034E-01
   1   14   22     3     1    1.5536E+05 -8.3018E+03   1.6367E+05  0.000E+00  0.000E+00  0.000E+00  3.77144E+01  1.588E-01  2.000E+01  2.000E+04 -4.151E-01
   1   15   23     3     2    1.6367E+05 -2.7378E+02   1.6394E+05  0.000E+00  0.000E+00  0.000E+00  3.68281E+01  1.614E-01  2.000E+01  2.000E+04 -1.369E-02
   1   15   24     3     3    1.6394E+05 -2.2907E+02   1.6417E+05  0.000E+00  0.000E+00  0.000E+00  3.59393E+01  1.615E-01  2.000E+01  2.000E+04 -1.145E-02
   1   15   25     3     4    1.6417E+05 -2.4486E+02   1.6441E+05  0.000E+00  0.000E+00  0.000E+00  3.50506E+01  1.617E-01  2.000E+01  2.000E+04 -1.224E-02
   1   15   26     3     5    1.6441E+05 -3.1643E+02   1.6473E+05  0.000E+00  0.000E+00  0.000E+00  3.41618E+01  1.618E-01  2.000E+01  2.000E+04 -1.582E-02
   1   16   27     3     6    1.6473E+05 -3.3700E+02   1.6507E+05  0.000E+00  0.000E+00  0.000E+00  3.32732E+01  1.620E-01  2.000E+01  2.000E+04 -1.685E-02
   1   17   28     3     7    1.6507E+05 -1.4516E+03   1.6652E+05  0.000E+00  0.000E+00  0.000E+00  3.23848E+01  1.626E-01  2.000E+01  2.000E+04 -7.258E-02
   1   18   29     3     8    1.6652E+05 -2.6857E+03   1.6920E+05  0.000E+00  0.000E+00  0.000E+00  3.14971E+01  1.638E-01  2.000E+01  2.000E+04 -1.343E-01
   1   18   30     3     9    1.6920E+05 -3.0503E+03   1.7225E+05  0.000E+00  0.000E+00  0.000E+00  3.06099E+01  1.655E-01  2.000E+01  2.000E+04 -1.525E-01



1
              HEAD IN LAYER   1 AT END OF TIME STEP   1 IN STRESS PERIOD    8
  ---------------------------------------------------------------------------

          1      2      3      4      5      6      7      8      9     10
         11     12     13     14     15     16     17     18     19     20
         21     22     23     24     25     26     27     28     29     30
 .........................................................................
   1  ****** ****** ****** ****** ****** ****** ****** ****** ****** ******
      ****** ****** ****** ****** ****** ****** ****** ****** ****** ******
      ****** ****** ****** ****** ****** ****** ****** ****** ****** ******
   2  ****** ****** ****** ****** ****** ****** ****** ****** ****** ******
      ****** ****** ****** ****** ****** ****** ****** ****** ****** ******
      ****** ****** ****** ****** ****** ****** ****** ****** ****** ******
   3  ****** ****** ****** ****** ****** ****** ****** ****** ****** ******
      ****** ****** ****** ****** ****** ****** ****** ****** ****** ******
      ****** ****** ****** ****** ****** ****** ****** ****** ****** ******
   4  ****** ****** ****** ****** ****** ****** ****** ****** ****** ******
      ****** ****** ****** ****** ****** ****** ****** ****** ****** ******
      ****** ****** ****** ****** ****** ****** ****** ****** ****** ******
   5  ****** ****** ****** ****** ****** ****** ****** ****** ****** ******
      ****** ****** ****** ****** ****** ****** ****** ****** ****** ******
      ****** ****** ****** ****** ****** ****** ****** ****** ****** ******
   6  ****** ****** ****** ****** ****** ****** ****** ****** ****** ******
      ****** ****** ****** ****** ****** ****** ****** ****** ****** ******
      ****** ****** ****** ****** ****** ****** ****** ****** ****** ******
   7  ****** ****** ****** ****** ****** ****** ****** ****** ****** ******
      ****** ****** ****** ****** ****** ****** ****** ****** ****** ******
      ****** ****** ****** ****** ****** ****** ****** ****** ****** ******
   8  ****** ****** ****** ****** ****** ****** ****** ****** ****** ******
      ****** ****** ****** ****** ****** ****** ****** ****** ****** ******
      ****** ****** ****** ****** ****** ****** ****** ****** ****** ******
   9  ****** ****** ****** ****** ****** ****** ****** ****** ****** ******
      ****** ****** ****** ****** ****** ****** ****** ****** ****** ******
      ****** ****** ****** ****** ****** ****** ****** ****** ****** ******
  10  ****** ****** ****** ****** ****** ****** ****** ****** ****** ******
      ****** ****** ****** ****** ****** ****** ****** ****** ****** ******
      ****** ****** ****** ****** ****** ****** ****** ****** ****** ******
  11  ****** ****** ****** ****** ****** ****** ****** ****** ****** ******
      ****** ****** ****** ****** ****** ****** ****** ****** ****** ******
      ****** ****** ****** ****** ****** ****** ****** ****** ****** ******
  12  ****** ****** ****** ****** ****** ****** ****** ****** ****** ******
      ****** ****** ****** ****** ****** ****** ****** ****** ****** ******
      ****** ****** ****** ****** ****** ****** ****** ****** ****** ******
  13  ****** ****** ****** ****** ****** ****** ****** ****** ****** ******
      ****** ****** ****** ****** ****** ****** ****** ****** ****** ******
      ****** ****** ****** ****** ****** ****** ****** ****** ****** ******
  14  ****** ****** ****** ****** ****** ****** ****** ****** ****** ******
      ****** ****** ****** ****** ****** ****** ****** ****** ****** ******
      ****** ****** ****** ****** ****** ****** ****** ****** ****** ******
  15  ****** ****** ****** ****** ****** ****** ****** ****** ****** ******
      ****** ****** ****** ****** ****** ****** ****** ****** ****** ******
      ****** ****** ****** ****** ****** ****** ****** ****** ****** ******
  16  ****** ****** ****** ****** ****** ****** ****** ****** ****** ******
      ****** ****** ****** ****** ****** ****** ****** ****** ****** ******
      ****** ****** ****** ****** ****** ****** ****** ****** ****** ******
  17  ****** ****** ****** ****** ****** ****** ****** ****** ****** ******
      ****** ****** ****** ****** ****** ****** ****** ****** ****** ******
      ****** ****** ****** ****** ****** ****** ****** ****** ****** ******
  18  ****** ****** ****** ****** ****** ****** ****** ****** ****** ******
      ****** ****** ****** ****** ****** ****** ****** ****** ****** ******
      ****** ****** ****** ****** ****** ****** ****** ****** ****** ******
  19  ****** ****** ****** ****** ****** ****** ****** ****** ****** ******
      ****** ****** ****** ****** ****** ****** ****** ****** ****** ******
      ****** ****** ****** ****** ****** ****** ****** ****** ****** ******
  20  ****** ****** ****** ****** ****** ****** ****** ****** ****** ******
      ****** ****** ****** ****** ****** ****** ****** ****** ****** ******
      ****** ****** ****** ****** ****** ****** ****** ****** ****** ******
  21  ****** ****** ****** ****** ****** ****** ****** ****** ****** ******
      ****** ****** ****** ****** ****** ****** ****** ****** ****** ******
      ****** ****** ****** ****** ****** ****** ****** ****** ****** ******
  22  ****** ****** ****** ****** ****** ****** ****** ****** ****** ******
      ****** ****** ****** ****** ****** ****** ****** ****** ****** ******
      ****** ****** ****** ****** ****** ****** ****** ****** ****** ******
  23  ****** ****** ****** ****** ****** ****** ****** ****** ****** ******
      ****** ****** ****** ****** ****** ****** ****** ****** ****** ******
      ****** ****** ****** ****** ****** ****** ****** ****** ****** ******
  24  ****** ****** ****** ****** ****** ****** ****** ****** ****** ******
      ****** ****** ****** ****** ****** ****** ****** ****** ****** ******
      ****** ****** ****** ****** ****** ****** ****** ****** ****** ******
  25  ****** ****** ****** ****** ****** ****** ****** ****** ****** ******
      ****** ****** ****** ****** ****** ****** ****** ****** ****** ******
      ****** ****** ****** ****** ****** ****** ****** ****** ****** ******

 HEAD WILL BE SAVED ON UNIT   51 AT END OF TIME STEP    1, STRESS PERIOD    8
1
  VOLUMETRIC BUDGET FOR ENTIRE MODEL AT END OF TIME STEP    1, STRESS PERIOD   8
  ------------------------------------------------------------------------------

     CUMULATIVE VOLUMES      L**3       RATES FOR THIS TIME STEP      L**3/T
     ------------------                 ------------------------

           IN:                                      IN:
           ---                                      ---
             STORAGE =    33340405.4814               STORAGE =        1417.0541
       CONSTANT HEAD =    19374907.3884         CONSTANT HEAD =       33254.3051
               WELLS =           0.0000                 WELLS =           0.0000
            RECHARGE =    17608800.0000              RECHARGE =       27600.0000
      STREAM LEAKAGE =     9012432.8141        STREAM LEAKAGE =       15802.5832

            TOTAL IN =    79336545.6839              TOTAL IN =       78073.9423

          OUT:                                     OUT:
          ----                                     ----
             STORAGE =      944458.2361               STORAGE =        1545.7846
       CONSTANT HEAD =           0.0000         CONSTANT HEAD =           0.0000
               WELLS =    28084058.9396                 WELLS =       38471.3136
            RECHARGE =           0.0000              RECHARGE =           0.0000
      STREAM LEAKAGE =    50308030.3202        STREAM LEAKAGE =       38056.8356

           TOTAL OUT =    79336547.4959             TOTAL OUT =       78073.9338

            IN - OUT =          -1.8120              IN - OUT =       8.4893E-03

 PERCENT DISCREPANCY =          -0.00     PERCENT DISCREPANCY =           0.00






         TIME SUMMARY AT END OF TIME STEP    1 IN STRESS PERIOD    8
                    SECONDS     MINUTES      HOURS       DAYS        YEARS
                    -----------------------------------------------------------
   TIME STEP LENGTH 7.86240E+06 1.31040E+05  2184.0      91.000     0.24914    
 STRESS PERIOD TIME 7.86240E+06 1.31040E+05  2184.0      91.000     0.24914    
         TOTAL TIME 6.30720E+07 1.05120E+06  17520.      730.00      1.9986    
1
1
                            STRESS PERIOD NO.    9, LENGTH =   92.00000    
                            -----------------------------------------------

                              NUMBER OF TIME STEPS =     1

                               MULTIPLIER FOR DELT =     1.500

                            INITIAL TIME STEP SIZE =   92.00000    

 WELL NO.  LAYER   ROW   COL   STRESS RATE         
 --------------------------------------------------
      1      1      6     22      -8915.    
      2      1     16     17      -8329.    
      3      1      8     28     -0.1208E+05
      4      1     15     19      -9150.    

      4 WELLS

                 RECHARGE =  5.000000E-04

 REUSING STREAM SEGMENT DATA FROM LAST STRESS PERIOD
 
 SOLVING FOR HEAD 


     6 CALLS TO PCG ROUTINE FOR TIME STEP   1 IN STRESS PERIOD    9
    23 TOTAL ITERATIONS

 OUTPUT CONTROL FOR STRESS PERIOD    9   TIME STEP    1
    SAVE BUDGET
    SAVE HEAD FOR ALL LAYERS
    PRINT HEAD FOR ALL LAYERS
 UBDSV2 SAVING "STREAMFLOW OUT  " ON UNIT  50 AT TIME STEP  1, STRESS PERIOD   9



 STREAM LISTING     PERIOD      9   STEP        1

 LAYER ROW COL. STREAM  RCH.  FLOW INTO     FLOW TO   FLOW OUT OF   OVRLND.     DIRECT     STREAM       STREAM     STREAM     STREAM   STREAMBED  STREAMBED
                SEG.NO.  NO.  STRM. RCH.    AQUIFER    STRM. RCH.    RUNOFF     PRECIP       ET          HEAD       DEPTH      WIDTH   CONDCTNC.   GRADIENT

   1   13    1     1     1    1.0000E+05 -1.6310E+03   1.0163E+05  0.000E+00  0.000E+00  0.000E+00  4.84067E+01  1.454E-01  2.000E+01  2.000E+04 -8.155E-02
   1   13    2     1     2    1.0163E+05 -2.5737E+03   1.0420E+05  0.000E+00  0.000E+00  0.000E+00  4.79313E+01  1.472E-01  2.000E+01  2.000E+04 -1.287E-01
   1   14    3     1     3    1.0420E+05 -4.0161E+02   1.0461E+05  0.000E+00  0.000E+00  0.000E+00  4.74553E+01  1.484E-01  2.000E+01  2.000E+04 -2.008E-02
   1   15    4     1     4    1.0461E+05 -3.6961E+02   1.0498E+05  0.000E+00  0.000E+00  0.000E+00  4.69783E+01  1.488E-01  2.000E+01  2.000E+04 -1.848E-02
   1   16    5     1     5    1.0498E+05 -1.3920E+03   1.0637E+05  0.000E+00  0.000E+00  0.000E+00  4.65018E+01  1.495E-01  2.000E+01  2.000E+04 -6.960E-02
   1   16    6     1     6    1.0637E+05 -8.8425E+02   1.0725E+05  0.000E+00  0.000E+00  0.000E+00  4.60255E+01  1.505E-01  2.000E+01  2.000E+04 -4.421E-02
   1   16    7     1     7    1.0725E+05 -8.5991E+02   1.0811E+05  0.000E+00  0.000E+00  0.000E+00  4.55489E+01  1.512E-01  2.000E+01  2.000E+04 -4.300E-02
   1   16    8     1     8    1.0811E+05 -8.3914E+02   1.0895E+05  0.000E+00  0.000E+00  0.000E+00  4.50724E+01  1.519E-01  2.000E+01  2.000E+04 -4.196E-02
   1   16    9     1     9    1.0895E+05 -8.0389E+02   1.0976E+05  0.000E+00  0.000E+00  0.000E+00  4.45958E+01  1.526E-01  2.000E+01  2.000E+04 -4.019E-02
   1   16   10     1    10    1.0976E+05 -7.4706E+02   1.1050E+05  0.000E+00  0.000E+00  0.000E+00  4.41192E+01  1.533E-01  2.000E+01  2.000E+04 -3.735E-02
   1   16   11     1    11    1.1050E+05 -6.6090E+02   1.1116E+05  0.000E+00  0.000E+00  0.000E+00  4.36425E+01  1.539E-01  2.000E+01  2.000E+04 -3.304E-02
   1   16   12     1    12    1.1116E+05 -7.2910E+02   1.1189E+05  0.000E+00  0.000E+00  0.000E+00  4.31658E+01  1.544E-01  2.000E+01  2.000E+04 -3.646E-02
   1   15   13     1    13    1.1189E+05 -3.8023E+02   1.1227E+05  0.000E+00  0.000E+00  0.000E+00  4.26890E+01  1.549E-01  2.000E+01  2.000E+04 -1.901E-02
   1   14   14     1    14    1.1227E+05 -3.5260E+02   1.1263E+05  0.000E+00  0.000E+00  0.000E+00  4.22120E+01  1.552E-01  2.000E+01  2.000E+04 -1.763E-02
   1   13   15     1    15    1.1263E+05 -6.0501E+02   1.1323E+05  0.000E+00  0.000E+00  0.000E+00  4.17351E+01  1.556E-01  2.000E+01  2.000E+04 -3.025E-02
   1   12   16     1    16    1.1323E+05 -1.6886E+03   1.1492E+05  0.000E+00  0.000E+00  0.000E+00  4.12588E+01  1.565E-01  2.000E+01  2.000E+04 -8.443E-02
   1   12   17     1    17    1.1492E+05 -5.0400E+02   1.1542E+05  0.000E+00  0.000E+00  0.000E+00  4.07824E+01  1.574E-01  2.000E+01  2.000E+04 -2.520E-02
   1   12   18     1    18    1.1542E+05 -2.3260E+02   1.1566E+05  0.000E+00  0.000E+00  0.000E+00  4.03055E+01  1.577E-01  2.000E+01  2.000E+04 -1.163E-02
   1   12   19     1    19    1.1566E+05 -5.5674E+02   1.1621E+05  0.000E+00  0.000E+00  0.000E+00  3.98285E+01  1.581E-01  2.000E+01  2.000E+04 -2.784E-02
   1   13   20     1    20    1.1621E+05  9.4615E+02   1.1527E+05  0.000E+00  0.000E+00  0.000E+00  3.93511E+01  1.579E-01  2.000E+01  2.000E+04  4.731E-02
   1   14   21     1    21    1.1527E+05  1.3247E+03   1.1394E+05  0.000E+00  0.000E+00  0.000E+00  3.88729E+01  1.570E-01  2.000E+01  2.000E+04  6.623E-02
   1   14   22     1    22    1.1394E+05  5.3631E+03   1.0858E+05  0.000E+00  0.000E+00  0.000E+00  3.83929E+01  1.542E-01  2.000E+01  2.000E+04  2.682E-01
   1    9   30     2     1    5.0000E+04  9.6564E+02   4.9034E+04  0.000E+00  0.000E+00  0.000E+00  4.02402E+01  1.152E-01  2.000E+01  2.000E+04  4.828E-02
   1    9   29     2     2    4.9034E+04  1.4638E+03   4.7571E+04  0.000E+00  0.000E+00  0.000E+00  3.99885E+01  1.135E-01  2.000E+01  2.000E+04  7.319E-02
   1    9   28     2     3    4.7571E+04  3.7216E+03   4.3849E+04  0.000E+00  0.000E+00  0.000E+00  3.97348E+01  1.098E-01  2.000E+01  2.000E+04  1.861E-01
   1    9   27     2     4    4.3849E+04  8.8620E+02   4.2963E+04  0.000E+00  0.000E+00  0.000E+00  3.94814E+01  1.064E-01  2.000E+01  2.000E+04  4.431E-02
   1   10   26     2     5    4.2963E+04 -1.6933E+02   4.3132E+04  0.000E+00  0.000E+00  0.000E+00  3.92309E+01  1.059E-01  2.000E+01  2.000E+04 -8.467E-03
   1   11   25     2     6    4.3132E+04 -3.9292E+02   4.3525E+04  0.000E+00  0.000E+00  0.000E+00  3.89813E+01  1.063E-01  2.000E+01  2.000E+04 -1.965E-02
   1   12   24     2     7    4.3525E+04 -6.6822E+02   4.4193E+04  0.000E+00  0.000E+00  0.000E+00  3.87321E+01  1.071E-01  2.000E+01  2.000E+04 -3.341E-02
   1   13   23     2     8    4.4193E+04 -1.1937E+02   4.4313E+04  0.000E+00  0.000E+00  0.000E+00  3.84827E+01  1.077E-01  2.000E+01  2.000E+04 -5.968E-03
   1   14   22     2     9    4.4313E+04  2.1301E+03   4.2182E+04  0.000E+00  0.000E+00  0.000E+00  3.82312E+01  1.062E-01  2.000E+01  2.000E+04  1.065E-01
   1   14   22     3     1    1.5076E+05 -8.2615E+03   1.5902E+05  0.000E+00  0.000E+00  0.000E+00  3.77116E+01  1.561E-01  2.000E+01  2.000E+04 -4.131E-01
   1   15   23     3     2    1.5902E+05 -2.2114E+02   1.5924E+05  0.000E+00  0.000E+00  0.000E+00  3.68253E+01  1.586E-01  2.000E+01  2.000E+04 -1.106E-02
   1   15   24     3     3    1.5924E+05 -1.8603E+02   1.5943E+05  0.000E+00  0.000E+00  0.000E+00  3.59365E+01  1.587E-01  2.000E+01  2.000E+04 -9.301E-03
   1   15   25     3     4    1.5943E+05 -2.0156E+02   1.5963E+05  0.000E+00  0.000E+00  0.000E+00  3.50477E+01  1.589E-01  2.000E+01  2.000E+04 -1.008E-02
   1   15   26     3     5    1.5963E+05 -2.6883E+02   1.5990E+05  0.000E+00  0.000E+00  0.000E+00  3.41590E+01  1.590E-01  2.000E+01  2.000E+04 -1.344E-02
   1   16   27     3     6    1.5990E+05 -2.8097E+02   1.6018E+05  0.000E+00  0.000E+00  0.000E+00  3.32703E+01  1.592E-01  2.000E+01  2.000E+04 -1.405E-02
   1   17   28     3     7    1.6018E+05 -1.2980E+03   1.6148E+05  0.000E+00  0.000E+00  0.000E+00  3.23819E+01  1.596E-01  2.000E+01  2.000E+04 -6.490E-02
   1   18   29     3     8    1.6148E+05 -2.5096E+03   1.6399E+05  0.000E+00  0.000E+00  0.000E+00  3.14941E+01  1.608E-01  2.000E+01  2.000E+04 -1.255E-01
   1   18   30     3     9    1.6399E+05 -2.9179E+03   1.6691E+05  0.000E+00  0.000E+00  0.000E+00  3.06068E+01  1.624E-01  2.000E+01  2.000E+04 -1.459E-01



1
              HEAD IN LAYER   1 AT END OF TIME STEP   1 IN STRESS PERIOD    9
  ---------------------------------------------------------------------------

          1      2      3      4      5      6      7      8      9     10
         11     12     13     14     15     16     17     18     19     20
         21     22     23     24     25     26     27     28     29     30
 .........................................................................
   1  ****** ****** ****** ****** ****** ****** ****** ****** ****** ******
      ****** ****** ****** ****** ****** ****** ****** ****** ****** ******
      ****** ****** ****** ****** ****** ****** ****** ****** ****** ******
   2  ****** ****** ****** ****** ****** ****** ****** ****** ****** ******
      ****** ****** ****** ****** ****** ****** ****** ****** ****** ******
      ****** ****** ****** ****** ****** ****** ****** ****** ****** ******
   3  ****** ****** ****** ****** ****** ****** ****** ****** ****** ******
      ****** ****** ****** ****** ****** ****** ****** ****** ****** ******
      ****** ****** ****** ****** ****** ****** ****** ****** ****** ******
   4  ****** ****** ****** ****** ****** ****** ****** ****** ****** ******
      ****** ****** ****** ****** ****** ****** ****** ****** ****** ******
      ****** ****** ****** ****** ****** ****** ****** ****** ****** ******
   5  ****** ****** ****** ****** ****** ****** ****** ****** ****** ******
      ****** ****** ****** ****** ****** ****** ****** ****** ****** ******
      ****** ****** ****** ****** ****** ****** ****** ****** ****** ******
   6  ****** ****** ****** ****** ****** ****** ****** ****** ****** ******
      ****** ****** ****** ****** ****** ****** ****** ****** ****** ******
      ****** ****** ****** ****** ****** ****** ****** ****** ****** ******
   7  ****** ****** ****** ****** ****** ****** ****** ****** ****** ******
      ****** ****** ****** ****** ****** ****** ****** ****** ****** ******
      ****** ****** ****** ****** ****** ****** ****** ****** ****** ******
   8  ****** ****** ****** ****** ****** ****** ****** ****** ****** ******
      ****** ****** ****** ****** ****** ****** ****** ****** ****** ******
      ****** ****** ****** ****** ****** ****** ****** ****** ****** ******
   9  ****** ****** ****** ****** ****** ****** ****** ****** ****** ******
      ****** ****** ****** ****** ****** ****** ****** ****** ****** ******
      ****** ****** ****** ****** ****** ****** ****** ****** ****** ******
  10  ****** ****** ****** ****** ****** ****** ****** ****** ****** ******
      ****** ****** ****** ****** ****** ****** ****** ****** ****** ******
      ****** ****** ****** ****** ****** ****** ****** ****** ****** ******
  11  ****** ****** ****** ****** ****** ****** ****** ****** ****** ******
      ****** ****** ****** ****** ****** ****** ****** ****** ****** ******
      ****** ****** ****** ****** ****** ****** ****** ****** ****** ******
  12  ****** ****** ****** ****** ****** ****** ****** ****** ****** ******
      ****** ****** ****** ****** ****** ****** ****** ****** ****** ******
      ****** ****** ****** ****** ****** ****** ****** ****** ****** ******
  13  ****** ****** ****** ****** ****** ****** ****** ****** ****** ******
      ****** ****** ****** ****** ****** ****** ****** ****** ****** ******
      ****** ****** ****** ****** ****** ****** ****** ****** ****** ******
  14  ****** ****** ****** ****** ****** ****** ****** ****** ****** ******
      ****** ****** ****** ****** ****** ****** ****** ****** ****** ******
      ****** ****** ****** ****** ****** ****** ****** ****** ****** ******
  15  ****** ****** ****** ****** ****** ****** ****** ****** ****** ******
      ****** ****** ****** ****** ****** ****** ****** ****** ****** ******
      ****** ****** ****** ****** ****** ****** ****** ****** ****** ******
  16  ****** ****** ****** ****** ****** ****** ****** ****** ****** ******
      ****** ****** ****** ****** ****** ****** ****** ****** ****** ******
      ****** ****** ****** ****** ****** ****** ****** ****** ****** ******
  17  ****** ****** ****** ****** ****** ****** ****** ****** ****** ******
      ****** ****** ****** ****** ****** ****** ****** ****** ****** ******
      ****** ****** ****** ****** ****** ****** ****** ****** ****** ******
  18  ****** ****** ****** ****** ****** ****** ****** ****** ****** ******
      ****** ****** ****** ****** ****** ****** ****** ****** ****** ******
      ****** ****** ****** ****** ****** ****** ****** ****** ****** ******
  19  ****** ****** ****** ****** ****** ****** ****** ****** ****** ******
      ****** ****** ****** ****** ****** ****** ****** ****** ****** ******
      ****** ****** ****** ****** ****** ****** ****** ****** ****** ******
  20  ****** ****** ****** ****** ****** ****** ****** ****** ****** ******
      ****** ****** ****** ****** ****** ****** ****** ****** ****** ******
      ****** ****** ****** ****** ****** ****** ****** ****** ****** ******
  21  ****** ****** ****** ****** ****** ****** ****** ****** ****** ******
      ****** ****** ****** ****** ****** ****** ****** ****** ****** ******
      ****** ****** ****** ****** ****** ****** ****** ****** ****** ******
  22  ****** ****** ****** ****** ****** ****** ****** ****** ****** ******
      ****** ****** ****** ****** ****** ****** ****** ****** ****** ******
      ****** ****** ****** ****** ****** ****** ****** ****** ****** ******
  23  ****** ****** ****** ****** ****** ****** ****** ****** ****** ******
      ****** ****** ****** ****** ****** ****** ****** ****** ****** ******
      ****** ****** ****** ****** ****** ****** ****** ****** ****** ******
  24  ****** ****** ****** ****** ****** ****** ****** ****** ****** ******
      ****** ****** ****** ****** ****** ****** ****** ****** ****** ******
      ****** ****** ****** ****** ****** ****** ****** ****** ****** ******
  25  ****** ****** ****** ****** ****** ****** ****** ****** ****** ******
      ****** ****** ****** ****** ****** ****** ****** ****** ****** ******
      ****** ****** ****** ****** ****** ****** ****** ****** ****** ******

 HEAD WILL BE SAVED ON UNIT   51 AT END OF TIME STEP    1, STRESS PERIOD    9
1
  VOLUMETRIC BUDGET FOR ENTIRE MODEL AT END OF TIME STEP    1, STRESS PERIOD   9
  ------------------------------------------------------------------------------

     CUMULATIVE VOLUMES      L**3       RATES FOR THIS TIME STEP      L**3/T
     ------------------                 ------------------------

           IN:                                      IN:
           ---                                      ---
             STORAGE =    33999112.8674               STORAGE =        7159.8629
       CONSTANT HEAD =    22541325.8360         CONSTANT HEAD =       34417.5918
               WELLS =           0.0000                 WELLS =           0.0000
            RECHARGE =    18878400.0000              RECHARGE =       13800.0000
      STREAM LEAKAGE =    10558145.6934        STREAM LEAKAGE =       16801.2269

            TOTAL IN =    85976984.3968              TOTAL IN =       72178.6817

          OUT:                                     OUT:
          ----                                     ----
             STORAGE =      944458.2361               STORAGE =           0.0000
       CONSTANT HEAD =           0.0000         CONSTANT HEAD =           0.0000
               WELLS =    31623419.7923                 WELLS =       38471.3136
            RECHARGE =           0.0000              RECHARGE =           0.0000
      STREAM LEAKAGE =    53409108.2515        STREAM LEAKAGE =       33707.3688

           TOTAL OUT =    85976986.2799             TOTAL OUT =       72178.6824

            IN - OUT =          -1.8831              IN - OUT =      -7.7261E-04

 PERCENT DISCREPANCY =          -0.00     PERCENT DISCREPANCY =          -0.00






         TIME SUMMARY AT END OF TIME STEP    1 IN STRESS PERIOD    9
                    SECONDS     MINUTES      HOURS       DAYS        YEARS
                    -----------------------------------------------------------
   TIME STEP LENGTH 7.94880E+06 1.32480E+05  2208.0      92.000     0.25188    
 STRESS PERIOD TIME 7.94880E+06 1.32480E+05  2208.0      92.000     0.25188    
         TOTAL TIME 7.10208E+07 1.18368E+06  19728.      822.00      2.2505    
1
1
                            STRESS PERIOD NO.   10, LENGTH =   91.00000    
                            -----------------------------------------------

                              NUMBER OF TIME STEPS =     1

                               MULTIPLIER FOR DELT =     1.500

                            INITIAL TIME STEP SIZE =   91.00000    

 WELL NO.  LAYER   ROW   COL   STRESS RATE         
 --------------------------------------------------
      1      1      6     22      -8915.    
      2      1     16     17      -8329.    
      3      1      8     28     -0.1208E+05
      4      1     15     19      -9150.    

      4 WELLS

                 RECHARGE =  2.000000E-03

 REUSING STREAM SEGMENT DATA FROM LAST STRESS PERIOD
 
 SOLVING FOR HEAD 


     7 CALLS TO PCG ROUTINE FOR TIME STEP   1 IN STRESS PERIOD   10
    26 TOTAL ITERATIONS

 OUTPUT CONTROL FOR STRESS PERIOD   10   TIME STEP    1
    SAVE BUDGET
    SAVE HEAD FOR ALL LAYERS
    PRINT HEAD FOR ALL LAYERS
 UBDSV2 SAVING "STREAMFLOW OUT  " ON UNIT  50 AT TIME STEP  1, STRESS PERIOD  10



 STREAM LISTING     PERIOD     10   STEP        1

 LAYER ROW COL. STREAM  RCH.  FLOW INTO     FLOW TO   FLOW OUT OF   OVRLND.     DIRECT     STREAM       STREAM     STREAM     STREAM   STREAMBED  STREAMBED
                SEG.NO.  NO.  STRM. RCH.    AQUIFER    STRM. RCH.    RUNOFF     PRECIP       ET          HEAD       DEPTH      WIDTH   CONDCTNC.   GRADIENT

   1   13    1     1     1    1.0000E+05 -2.0847E+03   1.0208E+05  0.000E+00  0.000E+00  0.000E+00  4.84069E+01  1.456E-01  2.000E+01  2.000E+04 -1.042E-01
   1   13    2     1     2    1.0208E+05 -3.0766E+03   1.0516E+05  0.000E+00  0.000E+00  0.000E+00  4.79319E+01  1.478E-01  2.000E+01  2.000E+04 -1.538E-01
   1   14    3     1     3    1.0516E+05 -5.8835E+02   1.0575E+05  0.000E+00  0.000E+00  0.000E+00  4.74562E+01  1.493E-01  2.000E+01  2.000E+04 -2.942E-02
   1   15    4     1     4    1.0575E+05 -5.6921E+02   1.0632E+05  0.000E+00  0.000E+00  0.000E+00  4.69794E+01  1.498E-01  2.000E+01  2.000E+04 -2.846E-02
   1   16    5     1     5    1.0632E+05 -2.0111E+03   1.0833E+05  0.000E+00  0.000E+00  0.000E+00  4.65032E+01  1.509E-01  2.000E+01  2.000E+04 -1.006E-01
   1   16    6     1     6    1.0833E+05 -1.2466E+03   1.0958E+05  0.000E+00  0.000E+00  0.000E+00  4.60273E+01  1.523E-01  2.000E+01  2.000E+04 -6.233E-02
   1   16    7     1     7    1.0958E+05 -1.2045E+03   1.1078E+05  0.000E+00  0.000E+00  0.000E+00  4.55510E+01  1.533E-01  2.000E+01  2.000E+04 -6.022E-02
   1   16    8     1     8    1.1078E+05 -1.1782E+03   1.1196E+05  0.000E+00  0.000E+00  0.000E+00  4.50748E+01  1.543E-01  2.000E+01  2.000E+04 -5.891E-02
   1   16    9     1     9    1.1196E+05 -1.1414E+03   1.1310E+05  0.000E+00  0.000E+00  0.000E+00  4.45985E+01  1.553E-01  2.000E+01  2.000E+04 -5.707E-02
   1   16   10     1    10    1.1310E+05 -1.0847E+03   1.1419E+05  0.000E+00  0.000E+00  0.000E+00  4.41221E+01  1.562E-01  2.000E+01  2.000E+04 -5.424E-02
   1   16   11     1    11    1.1419E+05 -1.0020E+03   1.1519E+05  0.000E+00  0.000E+00  0.000E+00  4.36457E+01  1.570E-01  2.000E+01  2.000E+04 -5.010E-02
   1   16   12     1    12    1.1519E+05 -1.2985E+03   1.1649E+05  0.000E+00  0.000E+00  0.000E+00  4.31694E+01  1.580E-01  2.000E+01  2.000E+04 -6.492E-02
   1   15   13     1    13    1.1649E+05 -9.6691E+02   1.1745E+05  0.000E+00  0.000E+00  0.000E+00  4.26930E+01  1.589E-01  2.000E+01  2.000E+04 -4.835E-02
   1   14   14     1    14    1.1745E+05 -9.4665E+02   1.1840E+05  0.000E+00  0.000E+00  0.000E+00  4.22165E+01  1.597E-01  2.000E+01  2.000E+04 -4.733E-02
   1   13   15     1    15    1.1840E+05 -1.1892E+03   1.1959E+05  0.000E+00  0.000E+00  0.000E+00  4.17401E+01  1.606E-01  2.000E+01  2.000E+04 -5.946E-02
   1   12   16     1    16    1.1959E+05 -2.2516E+03   1.2184E+05  0.000E+00  0.000E+00  0.000E+00  4.12642E+01  1.619E-01  2.000E+01  2.000E+04 -1.126E-01
   1   12   17     1    17    1.2184E+05 -9.2995E+02   1.2277E+05  0.000E+00  0.000E+00  0.000E+00  4.07882E+01  1.632E-01  2.000E+01  2.000E+04 -4.650E-02
   1   12   18     1    18    1.2277E+05 -6.5429E+02   1.2342E+05  0.000E+00  0.000E+00  0.000E+00  4.03116E+01  1.639E-01  2.000E+01  2.000E+04 -3.271E-02
   1   12   19     1    19    1.2342E+05 -1.0756E+03   1.2450E+05  0.000E+00  0.000E+00  0.000E+00  3.98350E+01  1.645E-01  2.000E+01  2.000E+04 -5.378E-02
   1   13   20     1    20    1.2450E+05  4.2480E+02   1.2408E+05  0.000E+00  0.000E+00  0.000E+00  3.93580E+01  1.648E-01  2.000E+01  2.000E+04  2.124E-02
   1   14   21     1    21    1.2408E+05  7.9971E+02   1.2328E+05  0.000E+00  0.000E+00  0.000E+00  3.88802E+01  1.643E-01  2.000E+01  2.000E+04  3.999E-02
   1   14   22     1    22    1.2328E+05  5.2335E+03   1.1804E+05  0.000E+00  0.000E+00  0.000E+00  3.84005E+01  1.619E-01  2.000E+01  2.000E+04  2.617E-01
   1    9   30     2     1    5.0000E+04  5.5147E+02   4.9449E+04  0.000E+00  0.000E+00  0.000E+00  4.02405E+01  1.155E-01  2.000E+01  2.000E+04  2.757E-02
   1    9   29     2     2    4.9449E+04  1.0519E+03   4.8397E+04  0.000E+00  0.000E+00  0.000E+00  3.99894E+01  1.144E-01  2.000E+01  2.000E+04  5.260E-02
   1    9   28     2     3    4.8397E+04  3.3105E+03   4.5086E+04  0.000E+00  0.000E+00  0.000E+00  3.97363E+01  1.113E-01  2.000E+01  2.000E+04  1.655E-01
   1    9   27     2     4    4.5086E+04  3.3342E+02   4.4753E+04  0.000E+00  0.000E+00  0.000E+00  3.94837E+01  1.087E-01  2.000E+01  2.000E+04  1.667E-02
   1   10   26     2     5    4.4753E+04 -7.2217E+02   4.5475E+04  0.000E+00  0.000E+00  0.000E+00  3.92339E+01  1.089E-01  2.000E+01  2.000E+04 -3.611E-02
   1   11   25     2     6    4.5475E+04 -9.2126E+02   4.6396E+04  0.000E+00  0.000E+00  0.000E+00  3.89851E+01  1.101E-01  2.000E+01  2.000E+04 -4.606E-02
   1   12   24     2     7    4.6396E+04 -1.1464E+03   4.7543E+04  0.000E+00  0.000E+00  0.000E+00  3.87366E+01  1.116E-01  2.000E+01  2.000E+04 -5.732E-02
   1   13   23     2     8    4.7543E+04 -2.6803E+02   4.7811E+04  0.000E+00  0.000E+00  0.000E+00  3.84876E+01  1.126E-01  2.000E+01  2.000E+04 -1.340E-02
   1   14   22     2     9    4.7811E+04  1.9509E+03   4.5860E+04  0.000E+00  0.000E+00  0.000E+00  3.82364E+01  1.114E-01  2.000E+01  2.000E+04  9.754E-02
   1   14   22     3     1    1.6390E+05 -8.3878E+03   1.7229E+05  0.000E+00  0.000E+00  0.000E+00  3.77195E+01  1.639E-01  2.000E+01  2.000E+04 -4.194E-01
   1   15   23     3     2    1.7229E+05 -3.8361E+02   1.7267E+05  0.000E+00  0.000E+00  0.000E+00  3.68331E+01  1.665E-01  2.000E+01  2.000E+04 -1.918E-02
   1   15   24     3     3    1.7267E+05 -3.2316E+02   1.7300E+05  0.000E+00  0.000E+00  0.000E+00  3.59445E+01  1.667E-01  2.000E+01  2.000E+04 -1.616E-02
   1   15   25     3     4    1.7300E+05 -3.4211E+02   1.7334E+05  0.000E+00  0.000E+00  0.000E+00  3.50558E+01  1.669E-01  2.000E+01  2.000E+04 -1.711E-02
   1   15   26     3     5    1.7334E+05 -4.3104E+02   1.7377E+05  0.000E+00  0.000E+00  0.000E+00  3.41671E+01  1.671E-01  2.000E+01  2.000E+04 -2.155E-02
   1   16   27     3     6    1.7377E+05 -4.6679E+02   1.7424E+05  0.000E+00  0.000E+00  0.000E+00  3.32785E+01  1.674E-01  2.000E+01  2.000E+04 -2.334E-02
   1   17   28     3     7    1.7424E+05 -1.8185E+03   1.7605E+05  0.000E+00  0.000E+00  0.000E+00  3.23902E+01  1.680E-01  2.000E+01  2.000E+04 -9.093E-02
   1   18   29     3     8    1.7605E+05 -3.0607E+03   1.7912E+05  0.000E+00  0.000E+00  0.000E+00  3.15027E+01  1.694E-01  2.000E+01  2.000E+04 -1.530E-01
   1   18   30     3     9    1.7912E+05 -3.3431E+03   1.8246E+05  0.000E+00  0.000E+00  0.000E+00  3.06157E+01  1.712E-01  2.000E+01  2.000E+04 -1.672E-01



1
              HEAD IN LAYER   1 AT END OF TIME STEP   1 IN STRESS PERIOD   10
  ---------------------------------------------------------------------------

          1      2      3      4      5      6      7      8      9     10
         11     12     13     14     15     16     17     18     19     20
         21     22     23     24     25     26     27     28     29     30
 .........................................................................
   1  ****** ****** ****** ****** ****** ****** ****** ****** ****** ******
      ****** ****** ****** ****** ****** ****** ****** ****** ****** ******
      ****** ****** ****** ****** ****** ****** ****** ****** ****** ******
   2  ****** ****** ****** ****** ****** ****** ****** ****** ****** ******
      ****** ****** ****** ****** ****** ****** ****** ****** ****** ******
      ****** ****** ****** ****** ****** ****** ****** ****** ****** ******
   3  ****** ****** ****** ****** ****** ****** ****** ****** ****** ******
      ****** ****** ****** ****** ****** ****** ****** ****** ****** ******
      ****** ****** ****** ****** ****** ****** ****** ****** ****** ******
   4  ****** ****** ****** ****** ****** ****** ****** ****** ****** ******
      ****** ****** ****** ****** ****** ****** ****** ****** ****** ******
      ****** ****** ****** ****** ****** ****** ****** ****** ****** ******
   5  ****** ****** ****** ****** ****** ****** ****** ****** ****** ******
      ****** ****** ****** ****** ****** ****** ****** ****** ****** ******
      ****** ****** ****** ****** ****** ****** ****** ****** ****** ******
   6  ****** ****** ****** ****** ****** ****** ****** ****** ****** ******
      ****** ****** ****** ****** ****** ****** ****** ****** ****** ******
      ****** ****** ****** ****** ****** ****** ****** ****** ****** ******
   7  ****** ****** ****** ****** ****** ****** ****** ****** ****** ******
      ****** ****** ****** ****** ****** ****** ****** ****** ****** ******
      ****** ****** ****** ****** ****** ****** ****** ****** ****** ******
   8  ****** ****** ****** ****** ****** ****** ****** ****** ****** ******
      ****** ****** ****** ****** ****** ****** ****** ****** ****** ******
      ****** ****** ****** ****** ****** ****** ****** ****** ****** ******
   9  ****** ****** ****** ****** ****** ****** ****** ****** ****** ******
      ****** ****** ****** ****** ****** ****** ****** ****** ****** ******
      ****** ****** ****** ****** ****** ****** ****** ****** ****** ******
  10  ****** ****** ****** ****** ****** ****** ****** ****** ****** ******
      ****** ****** ****** ****** ****** ****** ****** ****** ****** ******
      ****** ****** ****** ****** ****** ****** ****** ****** ****** ******
  11  ****** ****** ****** ****** ****** ****** ****** ****** ****** ******
      ****** ****** ****** ****** ****** ****** ****** ****** ****** ******
      ****** ****** ****** ****** ****** ****** ****** ****** ****** ******
  12  ****** ****** ****** ****** ****** ****** ****** ****** ****** ******
      ****** ****** ****** ****** ****** ****** ****** ****** ****** ******
      ****** ****** ****** ****** ****** ****** ****** ****** ****** ******
  13  ****** ****** ****** ****** ****** ****** ****** ****** ****** ******
      ****** ****** ****** ****** ****** ****** ****** ****** ****** ******
      ****** ****** ****** ****** ****** ****** ****** ****** ****** ******
  14  ****** ****** ****** ****** ****** ****** ****** ****** ****** ******
      ****** ****** ****** ****** ****** ****** ****** ****** ****** ******
      ****** ****** ****** ****** ****** ****** ****** ****** ****** ******
  15  ****** ****** ****** ****** ****** ****** ****** ****** ****** ******
      ****** ****** ****** ****** ****** ****** ****** ****** ****** ******
      ****** ****** ****** ****** ****** ****** ****** ****** ****** ******
  16  ****** ****** ****** ****** ****** ****** ****** ****** ****** ******
      ****** ****** ****** ****** ****** ****** ****** ****** ****** ******
      ****** ****** ****** ****** ****** ****** ****** ****** ****** ******
  17  ****** ****** ****** ****** ****** ****** ****** ****** ****** ******
      ****** ****** ****** ****** ****** ****** ****** ****** ****** ******
      ****** ****** ****** ****** ****** ****** ****** ****** ****** ******
  18  ****** ****** ****** ****** ****** ****** ****** ****** ****** ******
      ****** ****** ****** ****** ****** ****** ****** ****** ****** ******
      ****** ****** ****** ****** ****** ****** ****** ****** ****** ******
  19  ****** ****** ****** ****** ****** ****** ****** ****** ****** ******
      ****** ****** ****** ****** ****** ****** ****** ****** ****** ******
      ****** ****** ****** ****** ****** ****** ****** ****** ****** ******
  20  ****** ****** ****** ****** ****** ****** ****** ****** ****** ******
      ****** ****** ****** ****** ****** ****** ****** ****** ****** ******
      ****** ****** ****** ****** ****** ****** ****** ****** ****** ******
  21  ****** ****** ****** ****** ****** ****** ****** ****** ****** ******
      ****** ****** ****** ****** ****** ****** ****** ****** ****** ******
      ****** ****** ****** ****** ****** ****** ****** ****** ****** ******
  22  ****** ****** ****** ****** ****** ****** ****** ****** ****** ******
      ****** ****** ****** ****** ****** ****** ****** ****** ****** ******
      ****** ****** ****** ****** ****** ****** ****** ****** ****** ******
  23  ****** ****** ****** ****** ****** ****** ****** ****** ****** ******
      ****** ****** ****** ****** ****** ****** ****** ****** ****** ******
      ****** ****** ****** ****** ****** ****** ****** ****** ****** ******
  24  ****** ****** ****** ****** ****** ****** ****** ****** ****** ******
      ****** ****** ****** ****** ****** ****** ****** ****** ****** ******
      ****** ****** ****** ****** ****** ****** ****** ****** ****** ******
  25  ****** ****** ****** ****** ****** ****** ****** ****** ****** ******
      ****** ****** ****** ****** ****** ****** ****** ****** ****** ******
      ****** ****** ****** ****** ****** ****** ****** ****** ****** ******

 HEAD WILL BE SAVED ON UNIT   51 AT END OF TIME STEP    1, STRESS PERIOD   10
1
  VOLUMETRIC BUDGET FOR ENTIRE MODEL AT END OF TIME STEP    1, STRESS PERIOD  10
  ------------------------------------------------------------------------------

     CUMULATIVE VOLUMES      L**3       RATES FOR THIS TIME STEP      L**3/T
     ------------------                 ------------------------

           IN:                                      IN:
           ---                                      ---
             STORAGE =    33999112.8674               STORAGE =           0.0000
       CONSTANT HEAD =    25404271.9613         CONSTANT HEAD =       31460.9464
               WELLS =           0.0000                 WELLS =           0.0000
            RECHARGE =    23901600.0000              RECHARGE =       55200.0000
      STREAM LEAKAGE =    11800857.5896        STREAM LEAKAGE =       13656.1747

            TOTAL IN =    95105842.4182              TOTAL IN =      100317.1211

          OUT:                                     OUT:
          ----                                     ----
             STORAGE =     2375992.7208               STORAGE =       15731.1482
       CONSTANT HEAD =           0.0000         CONSTANT HEAD =           0.0000
               WELLS =    35124309.3314                 WELLS =       38471.3136
            RECHARGE =           0.0000              RECHARGE =           0.0000
      STREAM LEAKAGE =    57605541.8925        STREAM LEAKAGE =       46114.6554

           TOTAL OUT =    95105843.9447             TOTAL OUT =      100317.1172

            IN - OUT =          -1.5265              IN - OUT =       3.9188E-03

 PERCENT DISCREPANCY =          -0.00     PERCENT DISCREPANCY =           0.00






         TIME SUMMARY AT END OF TIME STEP    1 IN STRESS PERIOD   10
                    SECONDS     MINUTES      HOURS       DAYS        YEARS
                    -----------------------------------------------------------
   TIME STEP LENGTH 7.86240E+06 1.31040E+05  2184.0      91.000     0.24914    
 STRESS PERIOD TIME 7.86240E+06 1.31040E+05  2184.0      91.000     0.24914    
         TOTAL TIME 7.88832E+07 1.31472E+06  21912.      913.00      2.4997    
1
1
                            STRESS PERIOD NO.   11, LENGTH =   91.00000    
                            -----------------------------------------------

                              NUMBER OF TIME STEPS =     1

                               MULTIPLIER FOR DELT =     1.500

                            INITIAL TIME STEP SIZE =   91.00000    

 WELL NO.  LAYER   ROW   COL   STRESS RATE         
 --------------------------------------------------
      1      1      6     22      -8915.    
      2      1     16     17      -8329.    
      3      1      8     28     -0.1208E+05
      4      1     15     19      -9150.    

      4 WELLS

                 RECHARGE =   0.00000    

 REUSING STREAM SEGMENT DATA FROM LAST STRESS PERIOD
 
 SOLVING FOR HEAD 


     7 CALLS TO PCG ROUTINE FOR TIME STEP   1 IN STRESS PERIOD   11
    26 TOTAL ITERATIONS

 OUTPUT CONTROL FOR STRESS PERIOD   11   TIME STEP    1
    SAVE BUDGET
    SAVE HEAD FOR ALL LAYERS
    PRINT HEAD FOR ALL LAYERS
 UBDSV2 SAVING "STREAMFLOW OUT  " ON UNIT  50 AT TIME STEP  1, STRESS PERIOD  11



 STREAM LISTING     PERIOD     11   STEP        1

 LAYER ROW COL. STREAM  RCH.  FLOW INTO     FLOW TO   FLOW OUT OF   OVRLND.     DIRECT     STREAM       STREAM     STREAM     STREAM   STREAMBED  STREAMBED
                SEG.NO.  NO.  STRM. RCH.    AQUIFER    STRM. RCH.    RUNOFF     PRECIP       ET          HEAD       DEPTH      WIDTH   CONDCTNC.   GRADIENT

   1   13    1     1     1    1.0000E+05 -1.5178E+03   1.0152E+05  0.000E+00  0.000E+00  0.000E+00  4.84067E+01  1.453E-01  2.000E+01  2.000E+04 -7.589E-02
   1   13    2     1     2    1.0152E+05 -2.4454E+03   1.0396E+05  0.000E+00  0.000E+00  0.000E+00  4.79311E+01  1.470E-01  2.000E+01  2.000E+04 -1.223E-01
   1   14    3     1     3    1.0396E+05 -3.5762E+02   1.0432E+05  0.000E+00  0.000E+00  0.000E+00  4.74550E+01  1.482E-01  2.000E+01  2.000E+04 -1.788E-02
   1   15    4     1     4    1.0432E+05 -3.2744E+02   1.0465E+05  0.000E+00  0.000E+00  0.000E+00  4.69781E+01  1.485E-01  2.000E+01  2.000E+04 -1.637E-02
   1   16    5     1     5    1.0465E+05 -1.3233E+03   1.0597E+05  0.000E+00  0.000E+00  0.000E+00  4.65015E+01  1.492E-01  2.000E+01  2.000E+04 -6.617E-02
   1   16    6     1     6    1.0597E+05 -8.3241E+02   1.0680E+05  0.000E+00  0.000E+00  0.000E+00  4.60251E+01  1.501E-01  2.000E+01  2.000E+04 -4.162E-02
   1   16    7     1     7    1.0680E+05 -8.0790E+02   1.0761E+05  0.000E+00  0.000E+00  0.000E+00  4.55485E+01  1.508E-01  2.000E+01  2.000E+04 -4.040E-02
   1   16    8     1     8    1.0761E+05 -7.8718E+02   1.0840E+05  0.000E+00  0.000E+00  0.000E+00  4.50719E+01  1.515E-01  2.000E+01  2.000E+04 -3.936E-02
   1   16    9     1     9    1.0840E+05 -7.5258E+02   1.0915E+05  0.000E+00  0.000E+00  0.000E+00  4.45953E+01  1.521E-01  2.000E+01  2.000E+04 -3.763E-02
   1   16   10     1    10    1.0915E+05 -6.9691E+02   1.0985E+05  0.000E+00  0.000E+00  0.000E+00  4.41187E+01  1.527E-01  2.000E+01  2.000E+04 -3.485E-02
   1   16   11     1    11    1.0985E+05 -6.1230E+02   1.1046E+05  0.000E+00  0.000E+00  0.000E+00  4.36419E+01  1.533E-01  2.000E+01  2.000E+04 -3.062E-02
   1   16   12     1    12    1.1046E+05 -6.5283E+02   1.1111E+05  0.000E+00  0.000E+00  0.000E+00  4.31652E+01  1.538E-01  2.000E+01  2.000E+04 -3.264E-02
   1   15   13     1    13    1.1111E+05 -2.7860E+02   1.1139E+05  0.000E+00  0.000E+00  0.000E+00  4.26883E+01  1.542E-01  2.000E+01  2.000E+04 -1.393E-02
   1   14   14     1    14    1.1139E+05 -2.4075E+02   1.1163E+05  0.000E+00  0.000E+00  0.000E+00  4.22112E+01  1.544E-01  2.000E+01  2.000E+04 -1.204E-02
   1   13   15     1    15    1.1163E+05 -4.8897E+02   1.1212E+05  0.000E+00  0.000E+00  0.000E+00  4.17343E+01  1.547E-01  2.000E+01  2.000E+04 -2.445E-02
   1   12   16     1    16    1.1212E+05 -1.5750E+03   1.1370E+05  0.000E+00  0.000E+00  0.000E+00  4.12579E+01  1.556E-01  2.000E+01  2.000E+04 -7.875E-02
   1   12   17     1    17    1.1370E+05 -4.2355E+02   1.1412E+05  0.000E+00  0.000E+00  0.000E+00  4.07814E+01  1.564E-01  2.000E+01  2.000E+04 -2.118E-02
   1   12   18     1    18    1.1412E+05 -1.5550E+02   1.1428E+05  0.000E+00  0.000E+00  0.000E+00  4.03044E+01  1.566E-01  2.000E+01  2.000E+04 -7.775E-03
   1   12   19     1    19    1.1428E+05 -4.6328E+02   1.1474E+05  0.000E+00  0.000E+00  0.000E+00  3.98274E+01  1.569E-01  2.000E+01  2.000E+04 -2.316E-02
   1   13   20     1    20    1.1474E+05  1.0370E+03   1.1370E+05  0.000E+00  0.000E+00  0.000E+00  3.93498E+01  1.567E-01  2.000E+01  2.000E+04  5.185E-02
   1   14   21     1    21    1.1370E+05  1.3967E+03   1.1231E+05  0.000E+00  0.000E+00  0.000E+00  3.88716E+01  1.557E-01  2.000E+01  2.000E+04  6.983E-02
   1   14   22     1    22    1.1231E+05  5.3833E+03   1.0692E+05  0.000E+00  0.000E+00  0.000E+00  3.83915E+01  1.528E-01  2.000E+01  2.000E+04  2.692E-01
   1    9   30     2     1    5.0000E+04  1.0395E+03   4.8960E+04  0.000E+00  0.000E+00  0.000E+00  4.02401E+01  1.151E-01  2.000E+01  2.000E+04  5.198E-02
   1    9   29     2     2    4.8960E+04  1.5369E+03   4.7424E+04  0.000E+00  0.000E+00  0.000E+00  3.99883E+01  1.133E-01  2.000E+01  2.000E+04  7.685E-02
   1    9   28     2     3    4.7424E+04  3.7933E+03   4.3630E+04  0.000E+00  0.000E+00  0.000E+00  3.97345E+01  1.095E-01  2.000E+01  2.000E+04  1.897E-01
   1    9   27     2     4    4.3630E+04  9.7295E+02   4.2657E+04  0.000E+00  0.000E+00  0.000E+00  3.94811E+01  1.061E-01  2.000E+01  2.000E+04  4.865E-02
   1   10   26     2     5    4.2657E+04 -6.8270E+01   4.2726E+04  0.000E+00  0.000E+00  0.000E+00  3.92304E+01  1.054E-01  2.000E+01  2.000E+04 -3.413E-03
   1   11   25     2     6    4.2726E+04 -2.9121E+02   4.3017E+04  0.000E+00  0.000E+00  0.000E+00  3.89807E+01  1.057E-01  2.000E+01  2.000E+04 -1.456E-02
   1   12   24     2     7    4.3017E+04 -5.7338E+02   4.3590E+04  0.000E+00  0.000E+00  0.000E+00  3.87313E+01  1.063E-01  2.000E+01  2.000E+04 -2.867E-02
   1   13   23     2     8    4.3590E+04 -8.2263E+01   4.3672E+04  0.000E+00  0.000E+00  0.000E+00  3.84818E+01  1.068E-01  2.000E+01  2.000E+04 -4.113E-03
   1   14   22     2     9    4.3672E+04  2.1585E+03   4.1514E+04  0.000E+00  0.000E+00  0.000E+00  3.82302E+01  1.052E-01  2.000E+01  2.000E+04  1.079E-01
   1   14   22     3     1    1.4844E+05 -8.2421E+03   1.5668E+05  0.000E+00  0.000E+00  0.000E+00  3.77102E+01  1.547E-01  2.000E+01  2.000E+04 -4.121E-01
   1   15   23     3     2    1.5668E+05 -1.9159E+02   1.5687E+05  0.000E+00  0.000E+00  0.000E+00  3.68239E+01  1.572E-01  2.000E+01  2.000E+04 -9.580E-03
   1   15   24     3     3    1.5687E+05 -1.5806E+02   1.5703E+05  0.000E+00  0.000E+00  0.000E+00  3.59351E+01  1.573E-01  2.000E+01  2.000E+04 -7.903E-03
   1   15   25     3     4    1.5703E+05 -1.7318E+02   1.5720E+05  0.000E+00  0.000E+00  0.000E+00  3.50463E+01  1.574E-01  2.000E+01  2.000E+04 -8.659E-03
   1   15   26     3     5    1.5720E+05 -2.3538E+02   1.5744E+05  0.000E+00  0.000E+00  0.000E+00  3.41575E+01  1.575E-01  2.000E+01  2.000E+04 -1.177E-02
   1   16   27     3     6    1.5744E+05 -2.4382E+02   1.5768E+05  0.000E+00  0.000E+00  0.000E+00  3.32688E+01  1.577E-01  2.000E+01  2.000E+04 -1.219E-02
   1   17   28     3     7    1.5768E+05 -1.2089E+03   1.5889E+05  0.000E+00  0.000E+00  0.000E+00  3.23803E+01  1.581E-01  2.000E+01  2.000E+04 -6.044E-02
   1   18   29     3     8    1.5889E+05 -2.4389E+03   1.6133E+05  0.000E+00  0.000E+00  0.000E+00  3.14925E+01  1.592E-01  2.000E+01  2.000E+04 -1.219E-01
   1   18   30     3     9    1.6133E+05 -2.8540E+03   1.6418E+05  0.000E+00  0.000E+00  0.000E+00  3.06052E+01  1.608E-01  2.000E+01  2.000E+04 -1.427E-01



1
              HEAD IN LAYER   1 AT END OF TIME STEP   1 IN STRESS PERIOD   11
  ---------------------------------------------------------------------------

          1      2      3      4      5      6      7      8      9     10
         11     12     13     14     15     16     17     18     19     20
         21     22     23     24     25     26     27     28     29     30
 .........................................................................
   1  ****** ****** ****** ****** ****** ****** ****** ****** ****** ******
      ****** ****** ****** ****** ****** ****** ****** ****** ****** ******
      ****** ****** ****** ****** ****** ****** ****** ****** ****** ******
   2  ****** ****** ****** ****** ****** ****** ****** ****** ****** ******
      ****** ****** ****** ****** ****** ****** ****** ****** ****** ******
      ****** ****** ****** ****** ****** ****** ****** ****** ****** ******
   3  ****** ****** ****** ****** ****** ****** ****** ****** ****** ******
      ****** ****** ****** ****** ****** ****** ****** ****** ****** ******
      ****** ****** ****** ****** ****** ****** ****** ****** ****** ******
   4  ****** ****** ****** ****** ****** ****** ****** ****** ****** ******
      ****** ****** ****** ****** ****** ****** ****** ****** ****** ******
      ****** ****** ****** ****** ****** ****** ****** ****** ****** ******
   5  ****** ****** ****** ****** ****** ****** ****** ****** ****** ******
      ****** ****** ****** ****** ****** ****** ****** ****** ****** ******
      ****** ****** ****** ****** ****** ****** ****** ****** ****** ******
   6  ****** ****** ****** ****** ****** ****** ****** ****** ****** ******
      ****** ****** ****** ****** ****** ****** ****** ****** ****** ******
      ****** ****** ****** ****** ****** ****** ****** ****** ****** ******
   7  ****** ****** ****** ****** ****** ****** ****** ****** ****** ******
      ****** ****** ****** ****** ****** ****** ****** ****** ****** ******
      ****** ****** ****** ****** ****** ****** ****** ****** ****** ******
   8  ****** ****** ****** ****** ****** ****** ****** ****** ****** ******
      ****** ****** ****** ****** ****** ****** ****** ****** ****** ******
      ****** ****** ****** ****** ****** ****** ****** ****** ****** ******
   9  ****** ****** ****** ****** ****** ****** ****** ****** ****** ******
      ****** ****** ****** ****** ****** ****** ****** ****** ****** ******
      ****** ****** ****** ****** ****** ****** ****** ****** ****** ******
  10  ****** ****** ****** ****** ****** ****** ****** ****** ****** ******
      ****** ****** ****** ****** ****** ****** ****** ****** ****** ******
      ****** ****** ****** ****** ****** ****** ****** ****** ****** ******
  11  ****** ****** ****** ****** ****** ****** ****** ****** ****** ******
      ****** ****** ****** ****** ****** ****** ****** ****** ****** ******
      ****** ****** ****** ****** ****** ****** ****** ****** ****** ******
  12  ****** ****** ****** ****** ****** ****** ****** ****** ****** ******
      ****** ****** ****** ****** ****** ****** ****** ****** ****** ******
      ****** ****** ****** ****** ****** ****** ****** ****** ****** ******
  13  ****** ****** ****** ****** ****** ****** ****** ****** ****** ******
      ****** ****** ****** ****** ****** ****** ****** ****** ****** ******
      ****** ****** ****** ****** ****** ****** ****** ****** ****** ******
  14  ****** ****** ****** ****** ****** ****** ****** ****** ****** ******
      ****** ****** ****** ****** ****** ****** ****** ****** ****** ******
      ****** ****** ****** ****** ****** ****** ****** ****** ****** ******
  15  ****** ****** ****** ****** ****** ****** ****** ****** ****** ******
      ****** ****** ****** ****** ****** ****** ****** ****** ****** ******
      ****** ****** ****** ****** ****** ****** ****** ****** ****** ******
  16  ****** ****** ****** ****** ****** ****** ****** ****** ****** ******
      ****** ****** ****** ****** ****** ****** ****** ****** ****** ******
      ****** ****** ****** ****** ****** ****** ****** ****** ****** ******
  17  ****** ****** ****** ****** ****** ****** ****** ****** ****** ******
      ****** ****** ****** ****** ****** ****** ****** ****** ****** ******
      ****** ****** ****** ****** ****** ****** ****** ****** ****** ******
  18  ****** ****** ****** ****** ****** ****** ****** ****** ****** ******
      ****** ****** ****** ****** ****** ****** ****** ****** ****** ******
      ****** ****** ****** ****** ****** ****** ****** ****** ****** ******
  19  ****** ****** ****** ****** ****** ****** ****** ****** ****** ******
      ****** ****** ****** ****** ****** ****** ****** ****** ****** ******
      ****** ****** ****** ****** ****** ****** ****** ****** ****** ******
  20  ****** ****** ****** ****** ****** ****** ****** ****** ****** ******
      ****** ****** ****** ****** ****** ****** ****** ****** ****** ******
      ****** ****** ****** ****** ****** ****** ****** ****** ****** ******
  21  ****** ****** ****** ****** ****** ****** ****** ****** ****** ******
      ****** ****** ****** ****** ****** ****** ****** ****** ****** ******
      ****** ****** ****** ****** ****** ****** ****** ****** ****** ******
  22  ****** ****** ****** ****** ****** ****** ****** ****** ****** ******
      ****** ****** ****** ****** ****** ****** ****** ****** ****** ******
      ****** ****** ****** ****** ****** ****** ****** ****** ****** ******
  23  ****** ****** ****** ****** ****** ****** ****** ****** ****** ******
      ****** ****** ****** ****** ****** ****** ****** ****** ****** ******
      ****** ****** ****** ****** ****** ****** ****** ****** ****** ******
  24  ****** ****** ****** ****** ****** ****** ****** ****** ****** ******
      ****** ****** ****** ****** ****** ****** ****** ****** ****** ******
      ****** ****** ****** ****** ****** ****** ****** ****** ****** ******
  25  ****** ****** ****** ****** ****** ****** ****** ****** ****** ******
      ****** ****** ****** ****** ****** ****** ****** ****** ****** ******
      ****** ****** ****** ****** ****** ****** ****** ****** ****** ******

 HEAD WILL BE SAVED ON UNIT   51 AT END OF TIME STEP    1, STRESS PERIOD   11
1
  VOLUMETRIC BUDGET FOR ENTIRE MODEL AT END OF TIME STEP    1, STRESS PERIOD  11
  ------------------------------------------------------------------------------

     CUMULATIVE VOLUMES      L**3       RATES FOR THIS TIME STEP      L**3/T
     ------------------                 ------------------------

           IN:                                      IN:
           ---                                      ---
             STORAGE =    35628899.8440               STORAGE =       17909.7470
       CONSTANT HEAD =    28565952.5382         CONSTANT HEAD =       34743.7426
               WELLS =           0.0000                 WELLS =           0.0000
            RECHARGE =    23901600.0000              RECHARGE =           0.0000
      STREAM LEAKAGE =    13376819.3377        STREAM LEAKAGE =       17318.2610

            TOTAL IN =   101473271.7199              TOTAL IN =       69971.7506

          OUT:                                     OUT:
          ----                                     ----
             STORAGE =     2375992.7208               STORAGE =           0.0000
       CONSTANT HEAD =           0.0000         CONSTANT HEAD =           0.0000
               WELLS =    38625198.8704                 WELLS =       38471.3136
            RECHARGE =           0.0000              RECHARGE =           0.0000
      STREAM LEAKAGE =    60472082.1041        STREAM LEAKAGE =       31500.4419

           TOTAL OUT =   101473273.6953             TOTAL OUT =       69971.7555

            IN - OUT =          -1.9754              IN - OUT =      -4.9336E-03

 PERCENT DISCREPANCY =          -0.00     PERCENT DISCREPANCY =          -0.00






         TIME SUMMARY AT END OF TIME STEP    1 IN STRESS PERIOD   11
                    SECONDS     MINUTES      HOURS       DAYS        YEARS
                    -----------------------------------------------------------
   TIME STEP LENGTH 7.86240E+06 1.31040E+05  2184.0      91.000     0.24914    
 STRESS PERIOD TIME 7.86240E+06 1.31040E+05  2184.0      91.000     0.24914    
         TOTAL TIME 8.67456E+07 1.44576E+06  24096.      1004.0      2.7488    
1
1
                            STRESS PERIOD NO.   12, LENGTH =   91.00000    
                            -----------------------------------------------

                              NUMBER OF TIME STEPS =     1

                               MULTIPLIER FOR DELT =     1.500

                            INITIAL TIME STEP SIZE =   91.00000    

 WELL NO.  LAYER   ROW   COL   STRESS RATE         
 --------------------------------------------------
      1      1      6     22      -8915.    
      2      1     16     17      -8329.    
      3      1      8     28     -0.1208E+05
      4      1     15     19      -9150.    

      4 WELLS

                 RECHARGE =  1.000000E-03

 REUSING STREAM SEGMENT DATA FROM LAST STRESS PERIOD
 
 SOLVING FOR HEAD 


     6 CALLS TO PCG ROUTINE FOR TIME STEP   1 IN STRESS PERIOD   12
    23 TOTAL ITERATIONS

 OUTPUT CONTROL FOR STRESS PERIOD   12   TIME STEP    1
    SAVE BUDGET
    SAVE HEAD FOR ALL LAYERS
    PRINT HEAD FOR ALL LAYERS
 UBDSV2 SAVING "STREAMFLOW OUT  " ON UNIT  50 AT TIME STEP  1, STRESS PERIOD  12



 STREAM LISTING     PERIOD     12   STEP        1

 LAYER ROW COL. STREAM  RCH.  FLOW INTO     FLOW TO   FLOW OUT OF   OVRLND.     DIRECT     STREAM       STREAM     STREAM     STREAM   STREAMBED  STREAMBED
                SEG.NO.  NO.  STRM. RCH.    AQUIFER    STRM. RCH.    RUNOFF     PRECIP       ET          HEAD       DEPTH      WIDTH   CONDCTNC.   GRADIENT

   1   13    1     1     1    1.0000E+05 -1.6627E+03   1.0166E+05  0.000E+00  0.000E+00  0.000E+00  4.84067E+01  1.454E-01  2.000E+01  2.000E+04 -8.313E-02
   1   13    2     1     2    1.0166E+05 -2.6012E+03   1.0426E+05  0.000E+00  0.000E+00  0.000E+00  4.79313E+01  1.472E-01  2.000E+01  2.000E+04 -1.301E-01
   1   14    3     1     3    1.0426E+05 -4.3629E+02   1.0470E+05  0.000E+00  0.000E+00  0.000E+00  4.74553E+01  1.485E-01  2.000E+01  2.000E+04 -2.181E-02
   1   15    4     1     4    1.0470E+05 -4.0990E+02   1.0511E+05  0.000E+00  0.000E+00  0.000E+00  4.69784E+01  1.489E-01  2.000E+01  2.000E+04 -2.050E-02
   1   16    5     1     5    1.0511E+05 -1.5332E+03   1.0664E+05  0.000E+00  0.000E+00  0.000E+00  4.65020E+01  1.497E-01  2.000E+01  2.000E+04 -7.666E-02
   1   16    6     1     6    1.0664E+05 -9.6295E+02   1.0761E+05  0.000E+00  0.000E+00  0.000E+00  4.60258E+01  1.508E-01  2.000E+01  2.000E+04 -4.815E-02
   1   16    7     1     7    1.0761E+05 -9.3337E+02   1.0854E+05  0.000E+00  0.000E+00  0.000E+00  4.55493E+01  1.515E-01  2.000E+01  2.000E+04 -4.667E-02
   1   16    8     1     8    1.0854E+05 -9.1160E+02   1.0945E+05  0.000E+00  0.000E+00  0.000E+00  4.50728E+01  1.523E-01  2.000E+01  2.000E+04 -4.558E-02
   1   16    9     1     9    1.0945E+05 -8.7741E+02   1.1033E+05  0.000E+00  0.000E+00  0.000E+00  4.45963E+01  1.531E-01  2.000E+01  2.000E+04 -4.387E-02
   1   16   10     1    10    1.1033E+05 -8.2304E+02   1.1115E+05  0.000E+00  0.000E+00  0.000E+00  4.41197E+01  1.538E-01  2.000E+01  2.000E+04 -4.115E-02
   1   16   11     1    11    1.1115E+05 -7.4062E+02   1.1189E+05  0.000E+00  0.000E+00  0.000E+00  4.36431E+01  1.544E-01  2.000E+01  2.000E+04 -3.703E-02
   1   16   12     1    12    1.1189E+05 -8.5457E+02   1.1275E+05  0.000E+00  0.000E+00  0.000E+00  4.31665E+01  1.551E-01  2.000E+01  2.000E+04 -4.273E-02
   1   15   13     1    13    1.1275E+05 -4.9576E+02   1.1324E+05  0.000E+00  0.000E+00  0.000E+00  4.26897E+01  1.557E-01  2.000E+01  2.000E+04 -2.479E-02
   1   14   14     1    14    1.1324E+05 -4.5859E+02   1.1370E+05  0.000E+00  0.000E+00  0.000E+00  4.22129E+01  1.560E-01  2.000E+01  2.000E+04 -2.293E-02
   1   13   15     1    15    1.1370E+05 -6.9960E+02   1.1440E+05  0.000E+00  0.000E+00  0.000E+00  4.17361E+01  1.565E-01  2.000E+01  2.000E+04 -3.498E-02
   1   12   16     1    16    1.1440E+05 -1.7593E+03   1.1616E+05  0.000E+00  0.000E+00  0.000E+00  4.12598E+01  1.575E-01  2.000E+01  2.000E+04 -8.797E-02
   1   12   17     1    17    1.1616E+05 -5.7743E+02   1.1674E+05  0.000E+00  0.000E+00  0.000E+00  4.07835E+01  1.585E-01  2.000E+01  2.000E+04 -2.887E-02
   1   12   18     1    18    1.1674E+05 -3.1147E+02   1.1705E+05  0.000E+00  0.000E+00  0.000E+00  4.03066E+01  1.589E-01  2.000E+01  2.000E+04 -1.557E-02
   1   12   19     1    19    1.1705E+05 -6.5611E+02   1.1771E+05  0.000E+00  0.000E+00  0.000E+00  3.98297E+01  1.592E-01  2.000E+01  2.000E+04 -3.281E-02
   1   13   20     1    20    1.1771E+05  8.2651E+02   1.1688E+05  0.000E+00  0.000E+00  0.000E+00  3.93524E+01  1.592E-01  2.000E+01  2.000E+04  4.133E-02
   1   14   21     1    21    1.1688E+05  1.2026E+03   1.1568E+05  0.000E+00  0.000E+00  0.000E+00  3.88743E+01  1.584E-01  2.000E+01  2.000E+04  6.013E-02
   1   14   22     1    22    1.1568E+05  5.3291E+03   1.1035E+05  0.000E+00  0.000E+00  0.000E+00  3.83943E+01  1.557E-01  2.000E+01  2.000E+04  2.665E-01
   1    9   30     2     1    5.0000E+04  8.6307E+02   4.9137E+04  0.000E+00  0.000E+00  0.000E+00  4.02403E+01  1.153E-01  2.000E+01  2.000E+04  4.315E-02
   1    9   29     2     2    4.9137E+04  1.3625E+03   4.7774E+04  0.000E+00  0.000E+00  0.000E+00  3.99887E+01  1.137E-01  2.000E+01  2.000E+04  6.813E-02
   1    9   28     2     3    4.7774E+04  3.6224E+03   4.4152E+04  0.000E+00  0.000E+00  0.000E+00  3.97352E+01  1.102E-01  2.000E+01  2.000E+04  1.811E-01
   1    9   27     2     4    4.4152E+04  7.6370E+02   4.3388E+04  0.000E+00  0.000E+00  0.000E+00  3.94820E+01  1.070E-01  2.000E+01  2.000E+04  3.818E-02
   1   10   26     2     5    4.3388E+04 -2.9817E+02   4.3687E+04  0.000E+00  0.000E+00  0.000E+00  3.92316E+01  1.066E-01  2.000E+01  2.000E+04 -1.491E-02
   1   11   25     2     6    4.3687E+04 -5.1720E+02   4.4204E+04  0.000E+00  0.000E+00  0.000E+00  3.89822E+01  1.072E-01  2.000E+01  2.000E+04 -2.586E-02
   1   12   24     2     7    4.4204E+04 -7.7964E+02   4.4983E+04  0.000E+00  0.000E+00  0.000E+00  3.87332E+01  1.082E-01  2.000E+01  2.000E+04 -3.898E-02
   1   13   23     2     8    4.4983E+04 -1.5989E+02   4.5143E+04  0.000E+00  0.000E+00  0.000E+00  3.84839E+01  1.089E-01  2.000E+01  2.000E+04 -7.994E-03
   1   14   22     2     9    4.5143E+04  2.0921E+03   4.3051E+04  0.000E+00  0.000E+00  0.000E+00  3.82325E+01  1.075E-01  2.000E+01  2.000E+04  1.046E-01
   1   14   22     3     1    1.5340E+05 -8.2925E+03   1.6169E+05  0.000E+00  0.000E+00  0.000E+00  3.77132E+01  1.577E-01  2.000E+01  2.000E+04 -4.146E-01
   1   15   23     3     2    1.6169E+05 -2.6360E+02   1.6195E+05  0.000E+00  0.000E+00  0.000E+00  3.68269E+01  1.602E-01  2.000E+01  2.000E+04 -1.318E-02
   1   15   24     3     3    1.6195E+05 -2.2313E+02   1.6218E+05  0.000E+00  0.000E+00  0.000E+00  3.59381E+01  1.604E-01  2.000E+01  2.000E+04 -1.116E-02
   1   15   25     3     4    1.6218E+05 -2.3952E+02   1.6242E+05  0.000E+00  0.000E+00  0.000E+00  3.50494E+01  1.605E-01  2.000E+01  2.000E+04 -1.198E-02
   1   15   26     3     5    1.6242E+05 -3.1285E+02   1.6273E+05  0.000E+00  0.000E+00  0.000E+00  3.41607E+01  1.607E-01  2.000E+01  2.000E+04 -1.564E-02
   1   16   27     3     6    1.6273E+05 -3.3058E+02   1.6306E+05  0.000E+00  0.000E+00  0.000E+00  3.32720E+01  1.609E-01  2.000E+01  2.000E+04 -1.653E-02
   1   17   28     3     7    1.6306E+05 -1.4296E+03   1.6449E+05  0.000E+00  0.000E+00  0.000E+00  3.23836E+01  1.614E-01  2.000E+01  2.000E+04 -7.148E-02
   1   18   29     3     8    1.6449E+05 -2.6395E+03   1.6713E+05  0.000E+00  0.000E+00  0.000E+00  3.14959E+01  1.626E-01  2.000E+01  2.000E+04 -1.320E-01
   1   18   30     3     9    1.6713E+05 -3.0221E+03   1.7015E+05  0.000E+00  0.000E+00  0.000E+00  3.06087E+01  1.642E-01  2.000E+01  2.000E+04 -1.511E-01



1
              HEAD IN LAYER   1 AT END OF TIME STEP   1 IN STRESS PERIOD   12
  ---------------------------------------------------------------------------

          1      2      3      4      5      6      7      8      9     10
         11     12     13     14     15     16     17     18     19     20
         21     22     23     24     25     26     27     28     29     30
 .........................................................................
   1  ****** ****** ****** ****** ****** ****** ****** ****** ****** ******
      ****** ****** ****** ****** ****** ****** ****** ****** ****** ******
      ****** ****** ****** ****** ****** ****** ****** ****** ****** ******
   2  ****** ****** ****** ****** ****** ****** ****** ****** ****** ******
      ****** ****** ****** ****** ****** ****** ****** ****** ****** ******
      ****** ****** ****** ****** ****** ****** ****** ****** ****** ******
   3  ****** ****** ****** ****** ****** ****** ****** ****** ****** ******
      ****** ****** ****** ****** ****** ****** ****** ****** ****** ******
      ****** ****** ****** ****** ****** ****** ****** ****** ****** ******
   4  ****** ****** ****** ****** ****** ****** ****** ****** ****** ******
      ****** ****** ****** ****** ****** ****** ****** ****** ****** ******
      ****** ****** ****** ****** ****** ****** ****** ****** ****** ******
   5  ****** ****** ****** ****** ****** ****** ****** ****** ****** ******
      ****** ****** ****** ****** ****** ****** ****** ****** ****** ******
      ****** ****** ****** ****** ****** ****** ****** ****** ****** ******
   6  ****** ****** ****** ****** ****** ****** ****** ****** ****** ******
      ****** ****** ****** ****** ****** ****** ****** ****** ****** ******
      ****** ****** ****** ****** ****** ****** ****** ****** ****** ******
   7  ****** ****** ****** ****** ****** ****** ****** ****** ****** ******
      ****** ****** ****** ****** ****** ****** ****** ****** ****** ******
      ****** ****** ****** ****** ****** ****** ****** ****** ****** ******
   8  ****** ****** ****** ****** ****** ****** ****** ****** ****** ******
      ****** ****** ****** ****** ****** ****** ****** ****** ****** ******
      ****** ****** ****** ****** ****** ****** ****** ****** ****** ******
   9  ****** ****** ****** ****** ****** ****** ****** ****** ****** ******
      ****** ****** ****** ****** ****** ****** ****** ****** ****** ******
      ****** ****** ****** ****** ****** ****** ****** ****** ****** ******
  10  ****** ****** ****** ****** ****** ****** ****** ****** ****** ******
      ****** ****** ****** ****** ****** ****** ****** ****** ****** ******
      ****** ****** ****** ****** ****** ****** ****** ****** ****** ******
  11  ****** ****** ****** ****** ****** ****** ****** ****** ****** ******
      ****** ****** ****** ****** ****** ****** ****** ****** ****** ******
      ****** ****** ****** ****** ****** ****** ****** ****** ****** ******
  12  ****** ****** ****** ****** ****** ****** ****** ****** ****** ******
      ****** ****** ****** ****** ****** ****** ****** ****** ****** ******
      ****** ****** ****** ****** ****** ****** ****** ****** ****** ******
  13  ****** ****** ****** ****** ****** ****** ****** ****** ****** ******
      ****** ****** ****** ****** ****** ****** ****** ****** ****** ******
      ****** ****** ****** ****** ****** ****** ****** ****** ****** ******
  14  ****** ****** ****** ****** ****** ****** ****** ****** ****** ******
      ****** ****** ****** ****** ****** ****** ****** ****** ****** ******
      ****** ****** ****** ****** ****** ****** ****** ****** ****** ******
  15  ****** ****** ****** ****** ****** ****** ****** ****** ****** ******
      ****** ****** ****** ****** ****** ****** ****** ****** ****** ******
      ****** ****** ****** ****** ****** ****** ****** ****** ****** ******
  16  ****** ****** ****** ****** ****** ****** ****** ****** ****** ******
      ****** ****** ****** ****** ****** ****** ****** ****** ****** ******
      ****** ****** ****** ****** ****** ****** ****** ****** ****** ******
  17  ****** ****** ****** ****** ****** ****** ****** ****** ****** ******
      ****** ****** ****** ****** ****** ****** ****** ****** ****** ******
      ****** ****** ****** ****** ****** ****** ****** ****** ****** ******
  18  ****** ****** ****** ****** ****** ****** ****** ****** ****** ******
      ****** ****** ****** ****** ****** ****** ****** ****** ****** ******
      ****** ****** ****** ****** ****** ****** ****** ****** ****** ******
  19  ****** ****** ****** ****** ****** ****** ****** ****** ****** ******
      ****** ****** ****** ****** ****** ****** ****** ****** ****** ******
      ****** ****** ****** ****** ****** ****** ****** ****** ****** ******
  20  ****** ****** ****** ****** ****** ****** ****** ****** ****** ******
      ****** ****** ****** ****** ****** ****** ****** ****** ****** ******
      ****** ****** ****** ****** ****** ****** ****** ****** ****** ******
  21  ****** ****** ****** ****** ****** ****** ****** ****** ****** ******
      ****** ****** ****** ****** ****** ****** ****** ****** ****** ******
      ****** ****** ****** ****** ****** ****** ****** ****** ****** ******
  22  ****** ****** ****** ****** ****** ****** ****** ****** ****** ******
      ****** ****** ****** ****** ****** ****** ****** ****** ****** ******
      ****** ****** ****** ****** ****** ****** ****** ****** ****** ******
  23  ****** ****** ****** ****** ****** ****** ****** ****** ****** ******
      ****** ****** ****** ****** ****** ****** ****** ****** ****** ******
      ****** ****** ****** ****** ****** ****** ****** ****** ****** ******
  24  ****** ****** ****** ****** ****** ****** ****** ****** ****** ******
      ****** ****** ****** ****** ****** ****** ****** ****** ****** ******
      ****** ****** ****** ****** ****** ****** ****** ****** ****** ******
  25  ****** ****** ****** ****** ****** ****** ****** ****** ****** ******
      ****** ****** ****** ****** ****** ****** ****** ****** ****** ******
      ****** ****** ****** ****** ****** ****** ****** ****** ****** ******

 HEAD WILL BE SAVED ON UNIT   51 AT END OF TIME STEP    1, STRESS PERIOD   12
1
  VOLUMETRIC BUDGET FOR ENTIRE MODEL AT END OF TIME STEP    1, STRESS PERIOD  12
  ------------------------------------------------------------------------------

     CUMULATIVE VOLUMES      L**3       RATES FOR THIS TIME STEP      L**3/T
     ------------------                 ------------------------

           IN:                                      IN:
           ---                                      ---
             STORAGE =    35629686.0505               STORAGE =           8.6396
       CONSTANT HEAD =    31664080.1008         CONSTANT HEAD =       34045.3578
               WELLS =           0.0000                 WELLS =           0.0000
            RECHARGE =    26413200.0000              RECHARGE =       27600.0000
      STREAM LEAKAGE =    14838453.9241        STREAM LEAKAGE =       16061.9185

            TOTAL IN =   108545420.0753              TOTAL IN =       77715.9160

          OUT:                                     OUT:
          ----                                     ----
             STORAGE =     2651832.8795               STORAGE =        3031.2105
       CONSTANT HEAD =           0.0000         CONSTANT HEAD =           0.0000
               WELLS =    42126088.4095                 WELLS =       38471.3136
            RECHARGE =           0.0000              RECHARGE =           0.0000
      STREAM LEAKAGE =    63767500.7024        STREAM LEAKAGE =       36213.3912

           TOTAL OUT =   108545421.9914             TOTAL OUT =       77715.9153

            IN - OUT =          -1.9161              IN - OUT =       6.5223E-04

 PERCENT DISCREPANCY =          -0.00     PERCENT DISCREPANCY =           0.00






         TIME SUMMARY AT END OF TIME STEP    1 IN STRESS PERIOD   12
                    SECONDS     MINUTES      HOURS       DAYS        YEARS
                    -----------------------------------------------------------
   TIME STEP LENGTH 7.86240E+06 1.31040E+05  2184.0      91.000     0.24914    
 STRESS PERIOD TIME 7.86240E+06 1.31040E+05  2184.0      91.000     0.24914    
         TOTAL TIME 9.46080E+07 1.57680E+06  26280.      1095.0      2.9979    
1

 Run end date and time (yyyy/mm/dd hh:mm:ss): 2018/10/11 13:16:49
 Elapsed run time:  0.072 Seconds

