                                  MODFLOW-2005     
      U.S. GEOLOGICAL SURVEY MODULAR FINITE-DIFFERENCE GROUND-WATER FLOW MODEL
                            VERSION 1.11.00 8/8/2013

 LIST FILE: supply2.lst
                         UNIT   10

 OPENING ..\data\supply.dis
 FILE TYPE:DIS   UNIT   11   STATUS:OLD    
 FORMAT:FORMATTED              ACCESS:SEQUENTIAL          

 OPENING ..\data\supply.ba6
 FILE TYPE:BAS6   UNIT   12   STATUS:OLD    
 FORMAT:FORMATTED              ACCESS:SEQUENTIAL          

 OPENING ..\data\supply_het.bc6
 FILE TYPE:BCF6   UNIT   13   STATUS:OLD    
 FORMAT:FORMATTED              ACCESS:SEQUENTIAL          

 OPENING ..\data\supply.rch
 FILE TYPE:RCH   UNIT   15   STATUS:OLD    
 FORMAT:FORMATTED              ACCESS:SEQUENTIAL          

 OPENING ..\data\supply2.sfr
 FILE TYPE:SFR   UNIT   16   STATUS:OLD    
 FORMAT:FORMATTED              ACCESS:SEQUENTIAL          

 OPENING ..\data\supply.oc
 FILE TYPE:OC   UNIT   17   STATUS:OLD    
 FORMAT:FORMATTED              ACCESS:SEQUENTIAL          

 OPENING ..\data\supply.pcg
 FILE TYPE:PCG   UNIT   18   STATUS:OLD    
 FORMAT:FORMATTED              ACCESS:SEQUENTIAL          

 OPENING supply2.wel
 FILE TYPE:WEL   UNIT   19   STATUS:OLD    
 FORMAT:FORMATTED              ACCESS:SEQUENTIAL          

 OPENING supply2sf.cbc
 FILE TYPE:DATA(BINARY)   UNIT   50   STATUS:UNKNOWN
 FORMAT:BINARY                 ACCESS:SEQUENTIAL          

 OPENING supply2hd.bhd
 FILE TYPE:DATA(BINARY)   UNIT   51   STATUS:UNKNOWN
 FORMAT:BINARY                 ACCESS:SEQUENTIAL          

 BAS -- BASIC PACKAGE, VERSION 7, 5/2/2005 INPUT READ FROM UNIT   12
 
 MODFLOW was compiled using uniform precision
 Precision of REAL and DOUBLE PRECISION variables:          15

 DISCRETIZATION INPUT DATA READ FROM UNIT   11
    1 LAYERS        25 ROWS        30 COLUMNS
   12 STRESS PERIOD(S) IN SIMULATION
 MODEL TIME UNIT IS DAYS
 MODEL LENGTH UNIT IS UNDEFINED
  Confining bed flag for each layer:
   0

                     DELR =   200.000    

                     DELC =   200.000    

 TOP ELEVATION OF LAYER 1 =  100.0000    

   MODEL LAYER BOTTOM EL. =   0.00000     FOR LAYER   1


 STRESS PERIOD     LENGTH       TIME STEPS     MULTIPLIER FOR DELT    SS FLAG
 ----------------------------------------------------------------------------
        1         92.00000          1                    1.500         TR
        2         91.00000          1                    1.500         TR
        3         91.00000          1                    1.500         TR
        4         91.00000          1                    1.500         TR
        5         92.00000          1                    1.500         TR
        6         91.00000          1                    1.500         TR
        7         91.00000          1                    1.500         TR
        8         91.00000          1                    1.500         TR
        9         92.00000          1                    1.500         TR
       10         91.00000          1                    1.500         TR
       11         91.00000          1                    1.500         TR
       12         91.00000          1                    1.500         TR

 TRANSIENT SIMULATION



 
 #MODOFC transient water supply sample problem                                   
 #                                                                               
 THE FREE FORMAT OPTION HAS BEEN SELECTED



                     BOUNDARY ARRAY FOR LAYER   1
 READING ON UNIT   12 WITH FORMAT: (20I4)              

 AQUIFER HEAD WILL BE SET TO   0.0000     AT ALL NO-FLOW NODES (IBOUND=0).



                       INITIAL HEAD FOR LAYER   1
 READING ON UNIT   12 WITH FORMAT: (10F13.0)           

 OUTPUT CONTROL IS SPECIFIED ONLY AT TIME STEPS FOR WHICH OUTPUT IS DESIRED
 COMPACT CELL-BY-CELL BUDGET FILES WILL BE WRITTEN
 HEAD PRINT FORMAT CODE IS  18    DRAWDOWN PRINT FORMAT CODE IS   0
 HEADS WILL BE SAVED ON UNIT   51    DRAWDOWNS WILL BE SAVED ON UNIT    0

 BCF -- BLOCK-CENTERED FLOW PACKAGE, VERSION 7, 5/2/2005
         INPUT READ FROM UNIT 13
 TRANSIENT SIMULATION
 HEAD AT CELLS THAT CONVERT TO DRY=   0.0000    
 WETTING CAPABILITY IS NOT ACTIVE
      LAYER  LAYER-TYPE CODE     INTERBLOCK T
      --------------------------------------------
         1            0          0 -- HARMONIC    

 COLUMN TO ROW ANISOTROPY =  1.000000    

     PRIMARY STORAGE COEF =  5.000000E-02 FOR LAYER   1



               TRANSMIS. ALONG ROWS FOR LAYER   1
 READING ON UNIT   13 WITH FORMAT: (FREE)              

 WEL -- WELL PACKAGE, VERSION 7, 5/2/2005 INPUT READ FROM UNIT   19
 # Well package input file written by MMProc
 No named parameters
 MAXIMUM OF      4 ACTIVE WELLS AT ONE TIME


     0 Well parameters

 RCH -- RECHARGE PACKAGE, VERSION 7, 5/2/2005 INPUT READ FROM UNIT   15
 No named parameters
 OPTION 1 -- RECHARGE TO TOP LAYER


     0 Recharge parameters

 SFR7 -- STREAMFLOW ROUTING PACKAGE, VERSION 1.0.7, 2013-01-15
         INPUT READ FROM UNIT  16
 #  Supply2 test problem for GWM-VI
 #  The eighth entry in the first data line is ISTCB2 -
 #    Setting this to a negative number indicates that
 #    streamflows out of the reach will be saved to a
 #    binary file.  The absolute value of ISTCB2 is the
 #    unit to which unformatted flows will be written.
 #
 No named parameters
 Segment information will not be 
 read by reach
 No named parameters
 No specifed inflow files


 NUMBER OF STREAM REACHES IS   40

 NUMBER OF STREAM SEGMENTS IS    3

 NUMBER OF STREAM PARAMETERS IS    0

 NUMBER OF STREAM SEGMENTS DEFINED USING PARAMETERS IS              0

 MAXIMUM ERROR FOR STREAM LEAKAGE RATES IS  1.00E-04

 CONSTANT FOR MANNINGS EQUATION IS  1.2839E+05





   STREAM NETWORK DESCRIPTION: 

   LAYER    ROW    COL   SEGMENT   REACH     LENGTH
                          NUMBER   NUMBER    IN CELL        
   --------------------------------------------------
      1     13      1       1        1    2.0000E+02
      1     13      2       1        2    2.0000E+02
      1     14      3       1        3    2.0000E+02
      1     15      4       1        4    2.0000E+02
      1     16      5       1        5    2.0000E+02
      1     16      6       1        6    2.0000E+02
      1     16      7       1        7    2.0000E+02
      1     16      8       1        8    2.0000E+02
      1     16      9       1        9    2.0000E+02
      1     16     10       1       10    2.0000E+02
      1     16     11       1       11    2.0000E+02
      1     16     12       1       12    2.0000E+02
      1     15     13       1       13    2.0000E+02
      1     14     14       1       14    2.0000E+02
      1     13     15       1       15    2.0000E+02
      1     12     16       1       16    2.0000E+02
      1     12     17       1       17    2.0000E+02
      1     12     18       1       18    2.0000E+02
      1     12     19       1       19    2.0000E+02
      1     13     20       1       20    2.0000E+02
      1     14     21       1       21    2.0000E+02
      1     14     22       1       22    2.0000E+02
      1      9     30       2        1    2.0000E+02
      1      9     29       2        2    2.0000E+02
      1      9     28       2        3    2.0000E+02
      1      9     27       2        4    2.0000E+02
      1     10     26       2        5    2.0000E+02
      1     11     25       2        6    2.0000E+02
      1     12     24       2        7    2.0000E+02
      1     13     23       2        8    2.0000E+02
      1     14     22       2        9    2.0000E+02
      1     14     22       3        1    2.0000E+02
      1     15     23       3        2    2.0000E+02
      1     15     24       3        3    2.0000E+02
      1     15     25       3        4    2.0000E+02
      1     15     26       3        5    2.0000E+02
      1     16     27       3        6    2.0000E+02
      1     17     28       3        7    2.0000E+02
      1     18     29       3        8    2.0000E+02
      1     18     30       3        9    2.0000E+02




 PCG -- CONJUGATE-GRADIENT SOLUTION PACKAGE, VERSION 7, 5/2/2005
 MAXIMUM OF    500 CALLS OF SOLUTION ROUTINE
 MAXIMUM OF      5 INTERNAL ITERATIONS PER CALL TO SOLUTION ROUTINE
 MATRIX PRECONDITIONING TYPE :    1



                                    SOLUTION BY THE CONJUGATE-GRADIENT METHOD
                                   -------------------------------------------
                    MAXIMUM NUMBER OF CALLS TO PCG ROUTINE =      500
                        MAXIMUM ITERATIONS PER CALL TO PCG =        5
                               MATRIX PRECONDITIONING TYPE =        1
        RELAXATION FACTOR (ONLY USED WITH PRECOND. TYPE 1) =    0.10000E+01
 PARAMETER OF POLYNOMIAL PRECOND. = 2 (2) OR IS CALCULATED :        0
                         HEAD CHANGE CRITERION FOR CLOSURE =    0.10000E-05
                     RESIDUAL CHANGE CRITERION FOR CLOSURE =    0.10000E+01
            PCG HEAD AND RESIDUAL CHANGE PRINTOUT INTERVAL =        1
     PRINTING FROM SOLVER IS LIMITED(1) OR SUPPRESSED (>1) =        1
                            STEADY-STATE DAMPING PARAMETER =    0.10000E+01
                               TRANSIENT DAMPING PARAMETER =    0.10000E+01
1
                            STRESS PERIOD NO.    1, LENGTH =   92.00000    
                            -----------------------------------------------

                              NUMBER OF TIME STEPS =     1

                               MULTIPLIER FOR DELT =     1.500

                            INITIAL TIME STEP SIZE =   92.00000    

 WELL NO.  LAYER   ROW   COL   STRESS RATE         
 --------------------------------------------------
      1      1     21     19      -8385.    
      2      1     13     14      -6352.    
      3      1     11     23     -0.1199E+05
      4      1     12     29     -0.1389E+05

      4 WELLS

                 RECHARGE =  5.000000E-04



 CLASSIFICATION & COUNT OF STREAM SEGMENTS BASED ON SOURCE OF INFLOW:

                HEADWATER     DIVERSION     RECEIVES TRIBUTARY FLOW
                ---------     ---------     -----------------------
                     2              0               1



                    INPUT DATA FOR EACH STREAM SEGMENT
 ---------------------------------------------------------------------------------------------

 SEGMENT    SEG.     INFLOW   OVERLAND   STREAM    STREAM   ICALC  OUTFLOW  DIVERSION PRIORITY
    NO.    LENGTH     RATE     RUNOFF      ET       PPT.    METH.  TO SEG.  FROM SEG.    NO.

      1  4.400E+03 1.000E+05 0.000E+00 0.000E+00 0.000E+00    1        3        0        0
      2  1.800E+03 5.000E+04 0.000E+00 0.000E+00 0.000E+00    1        3        0        0
      3  1.800E+03 0.000E+00 0.000E+00 0.000E+00 0.000E+00    1        0        0        0


         STREAMBED PROPERTIES AND STREAM DIMENSIONS

 SEGMENT     BED HYD. COND.      BED THICKNESS     ELEV.-TOP OF BED     WIDTH OF STREAM     DEPTH OF STREAM    STREAM ROUGHNESS
    No.     UPPER     LOWER     UPPER     LOWER     UPPER     LOWER     UPPER     LOWER     UPPER     LOWER   CHANNEL      BANK

     1  5.000E+00 5.000E+00 1.000E+00 1.000E+00 4.850E+01 3.800E+01 2.000E+01 2.000E+01                     5.000E-02
     2  5.000E+00 5.000E+00 1.000E+00 1.000E+00 4.025E+01 3.800E+01 2.000E+01 2.000E+01                     5.000E-02
     3  5.000E+00 5.000E+00 1.000E+00 1.000E+00 3.800E+01 3.000E+01 2.000E+01 2.000E+01                     5.000E-02



 
 SOLVING FOR HEAD 


     9 CALLS TO PCG ROUTINE FOR TIME STEP   1 IN STRESS PERIOD    1
    36 TOTAL ITERATIONS

 OUTPUT CONTROL FOR STRESS PERIOD    1   TIME STEP    1
    SAVE BUDGET
    SAVE HEAD FOR ALL LAYERS
    PRINT HEAD FOR ALL LAYERS
 UBDSV2 SAVING "STREAMFLOW OUT  " ON UNIT  50 AT TIME STEP  1, STRESS PERIOD   1



 STREAM LISTING     PERIOD      1   STEP        1

 LAYER ROW COL. STREAM  RCH.  FLOW INTO     FLOW TO   FLOW OUT OF   OVRLND.     DIRECT     STREAM       STREAM     STREAM     STREAM   STREAMBED  STREAMBED
                SEG.NO.  NO.  STRM. RCH.    AQUIFER    STRM. RCH.    RUNOFF     PRECIP       ET          HEAD       DEPTH      WIDTH   CONDCTNC.   GRADIENT

   1   13    1     1     1    1.0000E+05 -6.1210E+03   1.0612E+05  0.000E+00  0.000E+00  0.000E+00  4.84087E+01  1.473E-01  2.000E+01  2.000E+04 -3.060E-01
   1   13    2     1     2    1.0612E+05 -7.5906E+03   1.1371E+05  0.000E+00  0.000E+00  0.000E+00  4.79372E+01  1.531E-01  2.000E+01  2.000E+04 -3.795E-01
   1   14    3     1     3    1.1371E+05 -2.1983E+03   1.1591E+05  0.000E+00  0.000E+00  0.000E+00  4.74640E+01  1.571E-01  2.000E+01  2.000E+04 -1.099E-01
   1   15    4     1     4    1.1591E+05 -2.2690E+03   1.1818E+05  0.000E+00  0.000E+00  0.000E+00  4.69885E+01  1.590E-01  2.000E+01  2.000E+04 -1.135E-01
   1   16    5     1     5    1.1818E+05 -7.1709E+03   1.2535E+05  0.000E+00  0.000E+00  0.000E+00  4.65151E+01  1.628E-01  2.000E+01  2.000E+04 -3.585E-01
   1   16    6     1     6    1.2535E+05 -4.2910E+03   1.2964E+05  0.000E+00  0.000E+00  0.000E+00  4.60423E+01  1.673E-01  2.000E+01  2.000E+04 -2.146E-01
   1   16    7     1     7    1.2964E+05 -4.1213E+03   1.3376E+05  0.000E+00  0.000E+00  0.000E+00  4.55684E+01  1.706E-01  2.000E+01  2.000E+04 -2.061E-01
   1   16    8     1     8    1.3376E+05 -4.0729E+03   1.3784E+05  0.000E+00  0.000E+00  0.000E+00  4.50943E+01  1.738E-01  2.000E+01  2.000E+04 -2.036E-01
   1   16    9     1     9    1.3784E+05 -4.0506E+03   1.4189E+05  0.000E+00  0.000E+00  0.000E+00  4.46201E+01  1.769E-01  2.000E+01  2.000E+04 -2.025E-01
   1   16   10     1    10    1.4189E+05 -4.0295E+03   1.4592E+05  0.000E+00  0.000E+00  0.000E+00  4.41459E+01  1.800E-01  2.000E+01  2.000E+04 -2.015E-01
   1   16   11     1    11    1.4592E+05 -4.0309E+03   1.4995E+05  0.000E+00  0.000E+00  0.000E+00  4.36716E+01  1.830E-01  2.000E+01  2.000E+04 -2.015E-01
   1   16   12     1    12    1.4995E+05 -6.7042E+03   1.5665E+05  0.000E+00  0.000E+00  0.000E+00  4.31983E+01  1.869E-01  2.000E+01  2.000E+04 -3.352E-01
   1   15   13     1    13    1.5665E+05 -6.7513E+03   1.6340E+05  0.000E+00  0.000E+00  0.000E+00  4.27259E+01  1.918E-01  2.000E+01  2.000E+04 -3.376E-01
   1   14   14     1    14    1.6340E+05 -5.5021E+03   1.6890E+05  0.000E+00  0.000E+00  0.000E+00  4.22530E+01  1.962E-01  2.000E+01  2.000E+04 -2.751E-01
   1   13   15     1    15    1.6890E+05 -5.9033E+03   1.7481E+05  0.000E+00  0.000E+00  0.000E+00  4.17797E+01  2.002E-01  2.000E+01  2.000E+04 -2.952E-01
   1   12   16     1    16    1.7481E+05 -8.3781E+03   1.8319E+05  0.000E+00  0.000E+00  0.000E+00  4.13074E+01  2.051E-01  2.000E+01  2.000E+04 -4.189E-01
   1   12   17     1    17    1.8319E+05 -6.0997E+03   1.8928E+05  0.000E+00  0.000E+00  0.000E+00  4.08351E+01  2.101E-01  2.000E+01  2.000E+04 -3.050E-01
   1   12   18     1    18    1.8928E+05 -5.9050E+03   1.9519E+05  0.000E+00  0.000E+00  0.000E+00  4.03618E+01  2.141E-01  2.000E+01  2.000E+04 -2.952E-01
   1   12   19     1    19    1.9519E+05 -7.0822E+03   2.0227E+05  0.000E+00  0.000E+00  0.000E+00  3.98889E+01  2.184E-01  2.000E+01  2.000E+04 -3.541E-01
   1   13   20     1    20    2.0227E+05 -6.0357E+03   2.0831E+05  0.000E+00  0.000E+00  0.000E+00  3.94159E+01  2.227E-01  2.000E+01  2.000E+04 -3.018E-01
   1   14   21     1    21    2.0831E+05 -5.7766E+03   2.1408E+05  0.000E+00  0.000E+00  0.000E+00  3.89424E+01  2.265E-01  2.000E+01  2.000E+04 -2.888E-01
   1   14   22     1    22    2.1408E+05  3.9938E+03   2.1009E+05  0.000E+00  0.000E+00  0.000E+00  3.84657E+01  2.271E-01  2.000E+01  2.000E+04  1.997E-01
   1    9   30     2     1    5.0000E+04 -3.1463E+03   5.3146E+04  0.000E+00  0.000E+00  0.000E+00  4.02430E+01  1.180E-01  2.000E+01  2.000E+04 -1.573E-01
   1    9   29     2     2    5.3146E+04 -3.4688E+03   5.6615E+04  0.000E+00  0.000E+00  0.000E+00  3.99975E+01  1.225E-01  2.000E+01  2.000E+04 -1.734E-01
   1    9   28     2     3    5.6615E+04 -4.1568E+03   6.0772E+04  0.000E+00  0.000E+00  0.000E+00  3.97526E+01  1.276E-01  2.000E+01  2.000E+04 -2.078E-01
   1    9   27     2     4    6.0772E+04 -7.3258E+03   6.8098E+04  0.000E+00  0.000E+00  0.000E+00  3.95099E+01  1.349E-01  2.000E+01  2.000E+04 -3.663E-01
   1   10   26     2     5    6.8098E+04 -5.4692E+03   7.3567E+04  0.000E+00  0.000E+00  0.000E+00  3.92678E+01  1.428E-01  2.000E+01  2.000E+04 -2.735E-01
   1   11   25     2     6    7.3567E+04 -3.9402E+03   7.7507E+04  0.000E+00  0.000E+00  0.000E+00  3.90234E+01  1.484E-01  2.000E+01  2.000E+04 -1.970E-01
   1   12   24     2     7    7.7507E+04 -2.5869E+03   8.0094E+04  0.000E+00  0.000E+00  0.000E+00  3.87772E+01  1.522E-01  2.000E+01  2.000E+04 -1.293E-01
   1   13   23     2     8    8.0094E+04 -1.1856E+03   8.1279E+04  0.000E+00  0.000E+00  0.000E+00  3.85294E+01  1.544E-01  2.000E+01  2.000E+04 -5.928E-02
   1   14   22     2     9    8.1279E+04  2.7737E+02   8.1002E+04  0.000E+00  0.000E+00  0.000E+00  3.82799E+01  1.549E-01  2.000E+01  2.000E+04  1.387E-02
   1   14   22     3     1    2.9109E+05 -9.6073E+03   3.0070E+05  0.000E+00  0.000E+00  0.000E+00  3.77857E+01  2.301E-01  2.000E+01  2.000E+04 -4.804E-01
   1   15   23     3     2    3.0070E+05 -1.9215E+03   3.0262E+05  0.000E+00  0.000E+00  0.000E+00  3.68995E+01  2.328E-01  2.000E+01  2.000E+04 -9.607E-02
   1   15   24     3     3    3.0262E+05 -1.5076E+03   3.0413E+05  0.000E+00  0.000E+00  0.000E+00  3.60114E+01  2.336E-01  2.000E+01  2.000E+04 -7.538E-02
   1   15   25     3     4    3.0413E+05 -1.5464E+03   3.0568E+05  0.000E+00  0.000E+00  0.000E+00  3.51232E+01  2.343E-01  2.000E+01  2.000E+04 -7.732E-02
   1   15   26     3     5    3.0568E+05 -1.7202E+03   3.0740E+05  0.000E+00  0.000E+00  0.000E+00  3.42351E+01  2.351E-01  2.000E+01  2.000E+04 -8.601E-02
   1   16   27     3     6    3.0740E+05 -1.8963E+03   3.0929E+05  0.000E+00  0.000E+00  0.000E+00  3.33470E+01  2.359E-01  2.000E+01  2.000E+04 -9.481E-02
   1   17   28     3     7    3.0929E+05 -5.2674E+03   3.1456E+05  0.000E+00  0.000E+00  0.000E+00  3.24598E+01  2.375E-01  2.000E+01  2.000E+04 -2.634E-01
   1   18   29     3     8    3.1456E+05 -7.4686E+03   3.2203E+05  0.000E+00  0.000E+00  0.000E+00  3.15738E+01  2.404E-01  2.000E+01  2.000E+04 -3.734E-01
   1   18   30     3     9    3.2203E+05 -6.5851E+03   3.2861E+05  0.000E+00  0.000E+00  0.000E+00  3.06880E+01  2.436E-01  2.000E+01  2.000E+04 -3.293E-01



1
              HEAD IN LAYER   1 AT END OF TIME STEP   1 IN STRESS PERIOD    1
  ---------------------------------------------------------------------------

          1      2      3      4      5      6      7      8      9     10
         11     12     13     14     15     16     17     18     19     20
         21     22     23     24     25     26     27     28     29     30
 .........................................................................
   1  ****** ****** ****** ****** ****** ****** ****** ****** ****** ******
      ****** ****** ****** ****** ****** ****** ****** ****** ****** ******
      ****** ****** ****** ****** ****** ****** ****** ****** ****** ******
   2  ****** ****** ****** ****** ****** ****** ****** ****** ****** ******
      ****** ****** ****** ****** ****** ****** ****** ****** ****** ******
      ****** ****** ****** ****** ****** ****** ****** ****** ****** ******
   3  ****** ****** ****** ****** ****** ****** ****** ****** ****** ******
      ****** ****** ****** ****** ****** ****** ****** ****** ****** ******
      ****** ****** ****** ****** ****** ****** ****** ****** ****** ******
   4  ****** ****** ****** ****** ****** ****** ****** ****** ****** ******
      ****** ****** ****** ****** ****** ****** ****** ****** ****** ******
      ****** ****** ****** ****** ****** ****** ****** ****** ****** ******
   5  ****** ****** ****** ****** ****** ****** ****** ****** ****** ******
      ****** ****** ****** ****** ****** ****** ****** ****** ****** ******
      ****** ****** ****** ****** ****** ****** ****** ****** ****** ******
   6  ****** ****** ****** ****** ****** ****** ****** ****** ****** ******
      ****** ****** ****** ****** ****** ****** ****** ****** ****** ******
      ****** ****** ****** ****** ****** ****** ****** ****** ****** ******
   7  ****** ****** ****** ****** ****** ****** ****** ****** ****** ******
      ****** ****** ****** ****** ****** ****** ****** ****** ****** ******
      ****** ****** ****** ****** ****** ****** ****** ****** ****** ******
   8  ****** ****** ****** ****** ****** ****** ****** ****** ****** ******
      ****** ****** ****** ****** ****** ****** ****** ****** ****** ******
      ****** ****** ****** ****** ****** ****** ****** ****** ****** ******
   9  ****** ****** ****** ****** ****** ****** ****** ****** ****** ******
      ****** ****** ****** ****** ****** ****** ****** ****** ****** ******
      ****** ****** ****** ****** ****** ****** ****** ****** ****** ******
  10  ****** ****** ****** ****** ****** ****** ****** ****** ****** ******
      ****** ****** ****** ****** ****** ****** ****** ****** ****** ******
      ****** ****** ****** ****** ****** ****** ****** ****** ****** ******
  11  ****** ****** ****** ****** ****** ****** ****** ****** ****** ******
      ****** ****** ****** ****** ****** ****** ****** ****** ****** ******
      ****** ****** ****** ****** ****** ****** ****** ****** ****** ******
  12  ****** ****** ****** ****** ****** ****** ****** ****** ****** ******
      ****** ****** ****** ****** ****** ****** ****** ****** ****** ******
      ****** ****** ****** ****** ****** ****** ****** ****** ****** ******
  13  ****** ****** ****** ****** ****** ****** ****** ****** ****** ******
      ****** ****** ****** ****** ****** ****** ****** ****** ****** ******
      ****** ****** ****** ****** ****** ****** ****** ****** ****** ******
  14  ****** ****** ****** ****** ****** ****** ****** ****** ****** ******
      ****** ****** ****** ****** ****** ****** ****** ****** ****** ******
      ****** ****** ****** ****** ****** ****** ****** ****** ****** ******
  15  ****** ****** ****** ****** ****** ****** ****** ****** ****** ******
      ****** ****** ****** ****** ****** ****** ****** ****** ****** ******
      ****** ****** ****** ****** ****** ****** ****** ****** ****** ******
  16  ****** ****** ****** ****** ****** ****** ****** ****** ****** ******
      ****** ****** ****** ****** ****** ****** ****** ****** ****** ******
      ****** ****** ****** ****** ****** ****** ****** ****** ****** ******
  17  ****** ****** ****** ****** ****** ****** ****** ****** ****** ******
      ****** ****** ****** ****** ****** ****** ****** ****** ****** ******
      ****** ****** ****** ****** ****** ****** ****** ****** ****** ******
  18  ****** ****** ****** ****** ****** ****** ****** ****** ****** ******
      ****** ****** ****** ****** ****** ****** ****** ****** ****** ******
      ****** ****** ****** ****** ****** ****** ****** ****** ****** ******
  19  ****** ****** ****** ****** ****** ****** ****** ****** ****** ******
      ****** ****** ****** ****** ****** ****** ****** ****** ****** ******
      ****** ****** ****** ****** ****** ****** ****** ****** ****** ******
  20  ****** ****** ****** ****** ****** ****** ****** ****** ****** ******
      ****** ****** ****** ****** ****** ****** ****** ****** ****** ******
      ****** ****** ****** ****** ****** ****** ****** ****** ****** ******
  21  ****** ****** ****** ****** ****** ****** ****** ****** ****** ******
      ****** ****** ****** ****** ****** ****** ****** ****** ****** ******
      ****** ****** ****** ****** ****** ****** ****** ****** ****** ******
  22  ****** ****** ****** ****** ****** ****** ****** ****** ****** ******
      ****** ****** ****** ****** ****** ****** ****** ****** ****** ******
      ****** ****** ****** ****** ****** ****** ****** ****** ****** ******
  23  ****** ****** ****** ****** ****** ****** ****** ****** ****** ******
      ****** ****** ****** ****** ****** ****** ****** ****** ****** ******
      ****** ****** ****** ****** ****** ****** ****** ****** ****** ******
  24  ****** ****** ****** ****** ****** ****** ****** ****** ****** ******
      ****** ****** ****** ****** ****** ****** ****** ****** ****** ******
      ****** ****** ****** ****** ****** ****** ****** ****** ****** ******
  25  ****** ****** ****** ****** ****** ****** ****** ****** ****** ******
      ****** ****** ****** ****** ****** ****** ****** ****** ****** ******
      ****** ****** ****** ****** ****** ****** ****** ****** ****** ******

 HEAD WILL BE SAVED ON UNIT   51 AT END OF TIME STEP    1, STRESS PERIOD    1
1
  VOLUMETRIC BUDGET FOR ENTIRE MODEL AT END OF TIME STEP    1, STRESS PERIOD   1
  ------------------------------------------------------------------------------

     CUMULATIVE VOLUMES      L**3       RATES FOR THIS TIME STEP      L**3/T
     ------------------                 ------------------------

           IN:                                      IN:
           ---                                      ---
             STORAGE =    17750330.8974               STORAGE =      192938.3793
       CONSTANT HEAD =     1149775.3282         CONSTANT HEAD =       12497.5579
               WELLS =           0.0000                 WELLS =           0.0000
            RECHARGE =     1269600.0000              RECHARGE =       13800.0000
      STREAM LEAKAGE =      392948.9772        STREAM LEAKAGE =        4271.1845

            TOTAL IN =    20562655.2028              TOTAL IN =      223507.1218

          OUT:                                     OUT:
          ----                                     ----
             STORAGE =           0.0000               STORAGE =           0.0000
       CONSTANT HEAD =           0.0000         CONSTANT HEAD =           0.0000
               WELLS =     3737324.7718                 WELLS =       40623.0953
            RECHARGE =           0.0000              RECHARGE =           0.0000
      STREAM LEAKAGE =    16825330.7243        STREAM LEAKAGE =      182884.0296

           TOTAL OUT =    20562655.4961             TOTAL OUT =      223507.1250

            IN - OUT =          -0.2934              IN - OUT =      -3.1887E-03

 PERCENT DISCREPANCY =          -0.00     PERCENT DISCREPANCY =          -0.00






         TIME SUMMARY AT END OF TIME STEP    1 IN STRESS PERIOD    1
                    SECONDS     MINUTES      HOURS       DAYS        YEARS
                    -----------------------------------------------------------
   TIME STEP LENGTH 7.94880E+06 1.32480E+05  2208.0      92.000     0.25188    
 STRESS PERIOD TIME 7.94880E+06 1.32480E+05  2208.0      92.000     0.25188    
         TOTAL TIME 7.94880E+06 1.32480E+05  2208.0      92.000     0.25188    
1
1
                            STRESS PERIOD NO.    2, LENGTH =   91.00000    
                            -----------------------------------------------

                              NUMBER OF TIME STEPS =     1

                               MULTIPLIER FOR DELT =     1.500

                            INITIAL TIME STEP SIZE =   91.00000    

 WELL NO.  LAYER   ROW   COL   STRESS RATE         
 --------------------------------------------------
      1      1     21     19      -8385.    
      2      1     13     14      -6352.    
      3      1     11     23     -0.1199E+05
      4      1     12     29     -0.1389E+05

      4 WELLS

                 RECHARGE =  2.000000E-03

 REUSING STREAM SEGMENT DATA FROM LAST STRESS PERIOD
 
 SOLVING FOR HEAD 


     7 CALLS TO PCG ROUTINE FOR TIME STEP   1 IN STRESS PERIOD    2
    27 TOTAL ITERATIONS

 OUTPUT CONTROL FOR STRESS PERIOD    2   TIME STEP    1
    SAVE BUDGET
    SAVE HEAD FOR ALL LAYERS
    PRINT HEAD FOR ALL LAYERS
 UBDSV2 SAVING "STREAMFLOW OUT  " ON UNIT  50 AT TIME STEP  1, STRESS PERIOD   2



 STREAM LISTING     PERIOD      2   STEP        1

 LAYER ROW COL. STREAM  RCH.  FLOW INTO     FLOW TO   FLOW OUT OF   OVRLND.     DIRECT     STREAM       STREAM     STREAM     STREAM   STREAMBED  STREAMBED
                SEG.NO.  NO.  STRM. RCH.    AQUIFER    STRM. RCH.    RUNOFF     PRECIP       ET          HEAD       DEPTH      WIDTH   CONDCTNC.   GRADIENT

   1   13    1     1     1    1.0000E+05 -4.0057E+03   1.0401E+05  0.000E+00  0.000E+00  0.000E+00  4.84077E+01  1.464E-01  2.000E+01  2.000E+04 -2.003E-01
   1   13    2     1     2    1.0401E+05 -5.2680E+03   1.0927E+05  0.000E+00  0.000E+00  0.000E+00  4.79344E+01  1.503E-01  2.000E+01  2.000E+04 -2.634E-01
   1   14    3     1     3    1.0927E+05 -1.1147E+03   1.1039E+05  0.000E+00  0.000E+00  0.000E+00  4.74598E+01  1.530E-01  2.000E+01  2.000E+04 -5.574E-02
   1   15    4     1     4    1.1039E+05 -1.1410E+03   1.1153E+05  0.000E+00  0.000E+00  0.000E+00  4.69835E+01  1.540E-01  2.000E+01  2.000E+04 -5.705E-02
   1   16    5     1     5    1.1153E+05 -4.2215E+03   1.1575E+05  0.000E+00  0.000E+00  0.000E+00  4.65085E+01  1.562E-01  2.000E+01  2.000E+04 -2.111E-01
   1   16    6     1     6    1.1575E+05 -2.4807E+03   1.1823E+05  0.000E+00  0.000E+00  0.000E+00  4.60339E+01  1.589E-01  2.000E+01  2.000E+04 -1.240E-01
   1   16    7     1     7    1.1823E+05 -2.3778E+03   1.2061E+05  0.000E+00  0.000E+00  0.000E+00  4.55586E+01  1.609E-01  2.000E+01  2.000E+04 -1.189E-01
   1   16    8     1     8    1.2061E+05 -2.3350E+03   1.2294E+05  0.000E+00  0.000E+00  0.000E+00  4.50833E+01  1.628E-01  2.000E+01  2.000E+04 -1.168E-01
   1   16    9     1     9    1.2294E+05 -2.2939E+03   1.2524E+05  0.000E+00  0.000E+00  0.000E+00  4.46078E+01  1.647E-01  2.000E+01  2.000E+04 -1.147E-01
   1   16   10     1    10    1.2524E+05 -2.2387E+03   1.2748E+05  0.000E+00  0.000E+00  0.000E+00  4.41324E+01  1.665E-01  2.000E+01  2.000E+04 -1.119E-01
   1   16   11     1    11    1.2748E+05 -2.1918E+03   1.2967E+05  0.000E+00  0.000E+00  0.000E+00  4.36568E+01  1.682E-01  2.000E+01  2.000E+04 -1.096E-01
   1   16   12     1    12    1.2967E+05 -3.6678E+03   1.3334E+05  0.000E+00  0.000E+00  0.000E+00  4.31818E+01  1.705E-01  2.000E+01  2.000E+04 -1.834E-01
   1   15   13     1    13    1.3334E+05 -3.3701E+03   1.3671E+05  0.000E+00  0.000E+00  0.000E+00  4.27073E+01  1.732E-01  2.000E+01  2.000E+04 -1.685E-01
   1   14   14     1    14    1.3671E+05 -1.9895E+03   1.3870E+05  0.000E+00  0.000E+00  0.000E+00  4.22321E+01  1.753E-01  2.000E+01  2.000E+04 -9.948E-02
   1   13   15     1    15    1.3870E+05 -2.4297E+03   1.4113E+05  0.000E+00  0.000E+00  0.000E+00  4.17565E+01  1.769E-01  2.000E+01  2.000E+04 -1.215E-01
   1   12   16     1    16    1.4113E+05 -5.1792E+03   1.4631E+05  0.000E+00  0.000E+00  0.000E+00  4.12821E+01  1.798E-01  2.000E+01  2.000E+04 -2.590E-01
   1   12   17     1    17    1.4631E+05 -3.5555E+03   1.4986E+05  0.000E+00  0.000E+00  0.000E+00  4.08081E+01  1.831E-01  2.000E+01  2.000E+04 -1.778E-01
   1   12   18     1    18    1.4986E+05 -3.3441E+03   1.5320E+05  0.000E+00  0.000E+00  0.000E+00  4.03333E+01  1.856E-01  2.000E+01  2.000E+04 -1.672E-01
   1   12   19     1    19    1.5320E+05 -3.8514E+03   1.5706E+05  0.000E+00  0.000E+00  0.000E+00  3.98587E+01  1.883E-01  2.000E+01  2.000E+04 -1.926E-01
   1   13   20     1    20    1.5706E+05 -2.7536E+03   1.5981E+05  0.000E+00  0.000E+00  0.000E+00  3.93838E+01  1.906E-01  2.000E+01  2.000E+04 -1.377E-01
   1   14   21     1    21    1.5981E+05 -2.8268E+03   1.6264E+05  0.000E+00  0.000E+00  0.000E+00  3.89086E+01  1.927E-01  2.000E+01  2.000E+04 -1.413E-01
   1   14   22     1    22    1.6264E+05  4.8424E+03   1.5779E+05  0.000E+00  0.000E+00  0.000E+00  3.84306E+01  1.919E-01  2.000E+01  2.000E+04  2.421E-01
   1    9   30     2     1    5.0000E+04 -8.8493E+01   5.0088E+04  0.000E+00  0.000E+00  0.000E+00  4.02409E+01  1.159E-01  2.000E+01  2.000E+04 -4.425E-03
   1    9   29     2     2    5.0088E+04 -4.4731E+02   5.0536E+04  0.000E+00  0.000E+00  0.000E+00  3.99913E+01  1.163E-01  2.000E+01  2.000E+04 -2.237E-02
   1    9   28     2     3    5.0536E+04 -1.2082E+03   5.1744E+04  0.000E+00  0.000E+00  0.000E+00  3.97424E+01  1.174E-01  2.000E+01  2.000E+04 -6.041E-02
   1    9   27     2     4    5.1744E+04 -3.6553E+03   5.5399E+04  0.000E+00  0.000E+00  0.000E+00  3.94958E+01  1.208E-01  2.000E+01  2.000E+04 -1.828E-01
   1   10   26     2     5    5.5399E+04 -1.4989E+03   5.6898E+04  0.000E+00  0.000E+00  0.000E+00  3.92492E+01  1.242E-01  2.000E+01  2.000E+04 -7.494E-02
   1   11   25     2     6    5.6898E+04 -1.1490E+02   5.7013E+04  0.000E+00  0.000E+00  0.000E+00  3.90003E+01  1.253E-01  2.000E+01  2.000E+04 -5.745E-03
   1   12   24     2     7    5.7013E+04  8.2070E+02   5.6192E+04  0.000E+00  0.000E+00  0.000E+00  3.87498E+01  1.248E-01  2.000E+01  2.000E+04  4.103E-02
   1   13   23     2     8    5.6192E+04 -1.0193E+02   5.6294E+04  0.000E+00  0.000E+00  0.000E+00  3.84993E+01  1.243E-01  2.000E+01  2.000E+04 -5.096E-03
   1   14   22     2     9    5.6294E+04  1.2032E+03   5.5091E+04  0.000E+00  0.000E+00  0.000E+00  3.82486E+01  1.236E-01  2.000E+01  2.000E+04  6.016E-02
   1   14   22     3     1    2.1289E+05 -8.8334E+03   2.2172E+05  0.000E+00  0.000E+00  0.000E+00  3.77468E+01  1.912E-01  2.000E+01  2.000E+04 -4.417E-01
   1   15   23     3     2    2.2172E+05 -9.3784E+02   2.2266E+05  0.000E+00  0.000E+00  0.000E+00  3.68605E+01  1.938E-01  2.000E+01  2.000E+04 -4.689E-02
   1   15   24     3     3    2.2266E+05 -6.2213E+02   2.2328E+05  0.000E+00  0.000E+00  0.000E+00  3.59720E+01  1.942E-01  2.000E+01  2.000E+04 -3.111E-02
   1   15   25     3     4    2.2328E+05 -6.1288E+02   2.2389E+05  0.000E+00  0.000E+00  0.000E+00  3.50834E+01  1.945E-01  2.000E+01  2.000E+04 -3.064E-02
   1   15   26     3     5    2.2389E+05 -5.3217E+02   2.2442E+05  0.000E+00  0.000E+00  0.000E+00  3.41948E+01  1.948E-01  2.000E+01  2.000E+04 -2.661E-02
   1   16   27     3     6    2.2442E+05 -5.2741E+02   2.2495E+05  0.000E+00  0.000E+00  0.000E+00  3.33062E+01  1.951E-01  2.000E+01  2.000E+04 -2.637E-02
   1   17   28     3     7    2.2495E+05 -1.4818E+03   2.2643E+05  0.000E+00  0.000E+00  0.000E+00  3.24178E+01  1.956E-01  2.000E+01  2.000E+04 -7.409E-02
   1   18   29     3     8    2.2643E+05 -4.2739E+03   2.3071E+05  0.000E+00  0.000E+00  0.000E+00  3.15304E+01  1.971E-01  2.000E+01  2.000E+04 -2.137E-01
   1   18   30     3     9    2.3071E+05 -3.8474E+03   2.3455E+05  0.000E+00  0.000E+00  0.000E+00  3.06436E+01  1.992E-01  2.000E+01  2.000E+04 -1.924E-01



1
              HEAD IN LAYER   1 AT END OF TIME STEP   1 IN STRESS PERIOD    2
  ---------------------------------------------------------------------------

          1      2      3      4      5      6      7      8      9     10
         11     12     13     14     15     16     17     18     19     20
         21     22     23     24     25     26     27     28     29     30
 .........................................................................
   1  ****** ****** ****** ****** ****** ****** ****** ****** ****** ******
      ****** ****** ****** ****** ****** ****** ****** ****** ****** ******
      ****** ****** ****** ****** ****** ****** ****** ****** ****** ******
   2  ****** ****** ****** ****** ****** ****** ****** ****** ****** ******
      ****** ****** ****** ****** ****** ****** ****** ****** ****** ******
      ****** ****** ****** ****** ****** ****** ****** ****** ****** ******
   3  ****** ****** ****** ****** ****** ****** ****** ****** ****** ******
      ****** ****** ****** ****** ****** ****** ****** ****** ****** ******
      ****** ****** ****** ****** ****** ****** ****** ****** ****** ******
   4  ****** ****** ****** ****** ****** ****** ****** ****** ****** ******
      ****** ****** ****** ****** ****** ****** ****** ****** ****** ******
      ****** ****** ****** ****** ****** ****** ****** ****** ****** ******
   5  ****** ****** ****** ****** ****** ****** ****** ****** ****** ******
      ****** ****** ****** ****** ****** ****** ****** ****** ****** ******
      ****** ****** ****** ****** ****** ****** ****** ****** ****** ******
   6  ****** ****** ****** ****** ****** ****** ****** ****** ****** ******
      ****** ****** ****** ****** ****** ****** ****** ****** ****** ******
      ****** ****** ****** ****** ****** ****** ****** ****** ****** ******
   7  ****** ****** ****** ****** ****** ****** ****** ****** ****** ******
      ****** ****** ****** ****** ****** ****** ****** ****** ****** ******
      ****** ****** ****** ****** ****** ****** ****** ****** ****** ******
   8  ****** ****** ****** ****** ****** ****** ****** ****** ****** ******
      ****** ****** ****** ****** ****** ****** ****** ****** ****** ******
      ****** ****** ****** ****** ****** ****** ****** ****** ****** ******
   9  ****** ****** ****** ****** ****** ****** ****** ****** ****** ******
      ****** ****** ****** ****** ****** ****** ****** ****** ****** ******
      ****** ****** ****** ****** ****** ****** ****** ****** ****** ******
  10  ****** ****** ****** ****** ****** ****** ****** ****** ****** ******
      ****** ****** ****** ****** ****** ****** ****** ****** ****** ******
      ****** ****** ****** ****** ****** ****** ****** ****** ****** ******
  11  ****** ****** ****** ****** ****** ****** ****** ****** ****** ******
      ****** ****** ****** ****** ****** ****** ****** ****** ****** ******
      ****** ****** ****** ****** ****** ****** ****** ****** ****** ******
  12  ****** ****** ****** ****** ****** ****** ****** ****** ****** ******
      ****** ****** ****** ****** ****** ****** ****** ****** ****** ******
      ****** ****** ****** ****** ****** ****** ****** ****** ****** ******
  13  ****** ****** ****** ****** ****** ****** ****** ****** ****** ******
      ****** ****** ****** ****** ****** ****** ****** ****** ****** ******
      ****** ****** ****** ****** ****** ****** ****** ****** ****** ******
  14  ****** ****** ****** ****** ****** ****** ****** ****** ****** ******
      ****** ****** ****** ****** ****** ****** ****** ****** ****** ******
      ****** ****** ****** ****** ****** ****** ****** ****** ****** ******
  15  ****** ****** ****** ****** ****** ****** ****** ****** ****** ******
      ****** ****** ****** ****** ****** ****** ****** ****** ****** ******
      ****** ****** ****** ****** ****** ****** ****** ****** ****** ******
  16  ****** ****** ****** ****** ****** ****** ****** ****** ****** ******
      ****** ****** ****** ****** ****** ****** ****** ****** ****** ******
      ****** ****** ****** ****** ****** ****** ****** ****** ****** ******
  17  ****** ****** ****** ****** ****** ****** ****** ****** ****** ******
      ****** ****** ****** ****** ****** ****** ****** ****** ****** ******
      ****** ****** ****** ****** ****** ****** ****** ****** ****** ******
  18  ****** ****** ****** ****** ****** ****** ****** ****** ****** ******
      ****** ****** ****** ****** ****** ****** ****** ****** ****** ******
      ****** ****** ****** ****** ****** ****** ****** ****** ****** ******
  19  ****** ****** ****** ****** ****** ****** ****** ****** ****** ******
      ****** ****** ****** ****** ****** ****** ****** ****** ****** ******
      ****** ****** ****** ****** ****** ****** ****** ****** ****** ******
  20  ****** ****** ****** ****** ****** ****** ****** ****** ****** ******
      ****** ****** ****** ****** ****** ****** ****** ****** ****** ******
      ****** ****** ****** ****** ****** ****** ****** ****** ****** ******
  21  ****** ****** ****** ****** ****** ****** ****** ****** ****** ******
      ****** ****** ****** ****** ****** ****** ****** ****** ****** ******
      ****** ****** ****** ****** ****** ****** ****** ****** ****** ******
  22  ****** ****** ****** ****** ****** ****** ****** ****** ****** ******
      ****** ****** ****** ****** ****** ****** ****** ****** ****** ******
      ****** ****** ****** ****** ****** ****** ****** ****** ****** ******
  23  ****** ****** ****** ****** ****** ****** ****** ****** ****** ******
      ****** ****** ****** ****** ****** ****** ****** ****** ****** ******
      ****** ****** ****** ****** ****** ****** ****** ****** ****** ******
  24  ****** ****** ****** ****** ****** ****** ****** ****** ****** ******
      ****** ****** ****** ****** ****** ****** ****** ****** ****** ******
      ****** ****** ****** ****** ****** ****** ****** ****** ****** ******
  25  ****** ****** ****** ****** ****** ****** ****** ****** ****** ******
      ****** ****** ****** ****** ****** ****** ****** ****** ****** ******
      ****** ****** ****** ****** ****** ****** ****** ****** ****** ******

 HEAD WILL BE SAVED ON UNIT   51 AT END OF TIME STEP    1, STRESS PERIOD    2
1
  VOLUMETRIC BUDGET FOR ENTIRE MODEL AT END OF TIME STEP    1, STRESS PERIOD   2
  ------------------------------------------------------------------------------

     CUMULATIVE VOLUMES      L**3       RATES FOR THIS TIME STEP      L**3/T
     ------------------                 ------------------------

           IN:                                      IN:
           ---                                      ---
             STORAGE =    22577936.5487               STORAGE =       53050.6116
       CONSTANT HEAD =     2690102.5719         CONSTANT HEAD =       16926.6730
               WELLS =           0.0000                 WELLS =           0.0000
            RECHARGE =     6292800.0000              RECHARGE =       55200.0000
      STREAM LEAKAGE =     1017782.7320        STREAM LEAKAGE =        6866.3050

            TOTAL IN =    32578621.8527              TOTAL IN =      132043.5896

          OUT:                                     OUT:
          ----                                     ----
             STORAGE =           0.0000               STORAGE =           0.0000
       CONSTANT HEAD =           0.0000         CONSTANT HEAD =           0.0000
               WELLS =     7434026.4482                 WELLS =       40623.0953
            RECHARGE =           0.0000              RECHARGE =           0.0000
      STREAM LEAKAGE =    25144596.6514        STREAM LEAKAGE =       91420.5047

           TOTAL OUT =    32578623.0996             TOTAL OUT =      132043.6000

            IN - OUT =          -1.2470              IN - OUT =      -1.0479E-02

 PERCENT DISCREPANCY =          -0.00     PERCENT DISCREPANCY =          -0.00






         TIME SUMMARY AT END OF TIME STEP    1 IN STRESS PERIOD    2
                    SECONDS     MINUTES      HOURS       DAYS        YEARS
                    -----------------------------------------------------------
   TIME STEP LENGTH 7.86240E+06 1.31040E+05  2184.0      91.000     0.24914    
 STRESS PERIOD TIME 7.86240E+06 1.31040E+05  2184.0      91.000     0.24914    
         TOTAL TIME 1.58112E+07 2.63520E+05  4392.0      183.00     0.50103    
1
1
                            STRESS PERIOD NO.    3, LENGTH =   91.00000    
                            -----------------------------------------------

                              NUMBER OF TIME STEPS =     1

                               MULTIPLIER FOR DELT =     1.500

                            INITIAL TIME STEP SIZE =   91.00000    

 WELL NO.  LAYER   ROW   COL   STRESS RATE         
 --------------------------------------------------
      1      1     21     19      -8385.    
      2      1     13     14      -6352.    
      3      1     11     23     -0.1199E+05
      4      1     12     29     -0.1389E+05

      4 WELLS

                 RECHARGE =   0.00000    

 REUSING STREAM SEGMENT DATA FROM LAST STRESS PERIOD
 
 SOLVING FOR HEAD 


     7 CALLS TO PCG ROUTINE FOR TIME STEP   1 IN STRESS PERIOD    3
    27 TOTAL ITERATIONS

 OUTPUT CONTROL FOR STRESS PERIOD    3   TIME STEP    1
    SAVE BUDGET
    SAVE HEAD FOR ALL LAYERS
    PRINT HEAD FOR ALL LAYERS
 UBDSV2 SAVING "STREAMFLOW OUT  " ON UNIT  50 AT TIME STEP  1, STRESS PERIOD   3



 STREAM LISTING     PERIOD      3   STEP        1

 LAYER ROW COL. STREAM  RCH.  FLOW INTO     FLOW TO   FLOW OUT OF   OVRLND.     DIRECT     STREAM       STREAM     STREAM     STREAM   STREAMBED  STREAMBED
                SEG.NO.  NO.  STRM. RCH.    AQUIFER    STRM. RCH.    RUNOFF     PRECIP       ET          HEAD       DEPTH      WIDTH   CONDCTNC.   GRADIENT

   1   13    1     1     1    1.0000E+05 -2.7603E+03   1.0276E+05  0.000E+00  0.000E+00  0.000E+00  4.84072E+01  1.458E-01  2.000E+01  2.000E+04 -1.380E-01
   1   13    2     1     2    1.0276E+05 -3.8698E+03   1.0663E+05  0.000E+00  0.000E+00  0.000E+00  4.79328E+01  1.487E-01  2.000E+01  2.000E+04 -1.935E-01
   1   14    3     1     3    1.0663E+05 -6.5364E+02   1.0728E+05  0.000E+00  0.000E+00  0.000E+00  4.74574E+01  1.506E-01  2.000E+01  2.000E+04 -3.268E-02
   1   15    4     1     4    1.0728E+05 -6.3481E+02   1.0792E+05  0.000E+00  0.000E+00  0.000E+00  4.69807E+01  1.512E-01  2.000E+01  2.000E+04 -3.174E-02
   1   16    5     1     5    1.0792E+05 -2.4130E+03   1.1033E+05  0.000E+00  0.000E+00  0.000E+00  4.65047E+01  1.524E-01  2.000E+01  2.000E+04 -1.206E-01
   1   16    6     1     6    1.1033E+05 -1.4678E+03   1.1180E+05  0.000E+00  0.000E+00  0.000E+00  4.60291E+01  1.541E-01  2.000E+01  2.000E+04 -7.339E-02
   1   16    7     1     7    1.1180E+05 -1.4208E+03   1.1322E+05  0.000E+00  0.000E+00  0.000E+00  4.55530E+01  1.553E-01  2.000E+01  2.000E+04 -7.104E-02
   1   16    8     1     8    1.1322E+05 -1.3925E+03   1.1461E+05  0.000E+00  0.000E+00  0.000E+00  4.50769E+01  1.564E-01  2.000E+01  2.000E+04 -6.963E-02
   1   16    9     1     9    1.1461E+05 -1.3513E+03   1.1596E+05  0.000E+00  0.000E+00  0.000E+00  4.46007E+01  1.575E-01  2.000E+01  2.000E+04 -6.756E-02
   1   16   10     1    10    1.1596E+05 -1.2903E+03   1.1725E+05  0.000E+00  0.000E+00  0.000E+00  4.41245E+01  1.586E-01  2.000E+01  2.000E+04 -6.452E-02
   1   16   11     1    11    1.1725E+05 -1.2288E+03   1.1848E+05  0.000E+00  0.000E+00  0.000E+00  4.36483E+01  1.596E-01  2.000E+01  2.000E+04 -6.144E-02
   1   16   12     1    12    1.1848E+05 -1.9781E+03   1.2046E+05  0.000E+00  0.000E+00  0.000E+00  4.31723E+01  1.609E-01  2.000E+01  2.000E+04 -9.890E-02
   1   15   13     1    13    1.2046E+05 -1.6566E+03   1.2212E+05  0.000E+00  0.000E+00  0.000E+00  4.26965E+01  1.624E-01  2.000E+01  2.000E+04 -8.283E-02
   1   14   14     1    14    1.2212E+05 -2.4065E+02   1.2236E+05  0.000E+00  0.000E+00  0.000E+00  4.22200E+01  1.632E-01  2.000E+01  2.000E+04 -1.203E-02
   1   13   15     1    15    1.2236E+05 -6.9279E+02   1.2305E+05  0.000E+00  0.000E+00  0.000E+00  4.17431E+01  1.635E-01  2.000E+01  2.000E+04 -3.464E-02
   1   12   16     1    16    1.2305E+05 -3.4088E+03   1.2646E+05  0.000E+00  0.000E+00  0.000E+00  4.12675E+01  1.652E-01  2.000E+01  2.000E+04 -1.704E-01
   1   12   17     1    17    1.2646E+05 -2.2632E+03   1.2872E+05  0.000E+00  0.000E+00  0.000E+00  4.07924E+01  1.674E-01  2.000E+01  2.000E+04 -1.132E-01
   1   12   18     1    18    1.2872E+05 -2.0671E+03   1.3079E+05  0.000E+00  0.000E+00  0.000E+00  4.03169E+01  1.691E-01  2.000E+01  2.000E+04 -1.034E-01
   1   12   19     1    19    1.3079E+05 -2.2503E+03   1.3304E+05  0.000E+00  0.000E+00  0.000E+00  3.98413E+01  1.708E-01  2.000E+01  2.000E+04 -1.125E-01
   1   13   20     1    20    1.3304E+05 -1.2507E+03   1.3429E+05  0.000E+00  0.000E+00  0.000E+00  3.93653E+01  1.722E-01  2.000E+01  2.000E+04 -6.253E-02
   1   14   21     1    21    1.3429E+05 -1.2590E+03   1.3555E+05  0.000E+00  0.000E+00  0.000E+00  3.88890E+01  1.731E-01  2.000E+01  2.000E+04 -6.295E-02
   1   14   22     1    22    1.3555E+05  5.2308E+03   1.3032E+05  0.000E+00  0.000E+00  0.000E+00  3.84102E+01  1.716E-01  2.000E+01  2.000E+04  2.615E-01
   1    9   30     2     1    5.0000E+04  1.1753E+03   4.8825E+04  0.000E+00  0.000E+00  0.000E+00  4.02400E+01  1.150E-01  2.000E+01  2.000E+04  5.877E-02
   1    9   29     2     2    4.8825E+04  8.1027E+02   4.8014E+04  0.000E+00  0.000E+00  0.000E+00  3.99887E+01  1.137E-01  2.000E+01  2.000E+04  4.051E-02
   1    9   28     2     3    4.8014E+04  5.2913E+01   4.7961E+04  0.000E+00  0.000E+00  0.000E+00  3.97380E+01  1.130E-01  2.000E+01  2.000E+04  2.646E-03
   1    9   27     2     4    4.7961E+04 -1.8739E+03   4.9835E+04  0.000E+00  0.000E+00  0.000E+00  3.94893E+01  1.143E-01  2.000E+01  2.000E+04 -9.369E-02
   1   10   26     2     5    4.9835E+04  1.9586E+02   4.9640E+04  0.000E+00  0.000E+00  0.000E+00  3.92405E+01  1.155E-01  2.000E+01  2.000E+04  9.793E-03
   1   11   25     2     6    4.9640E+04  1.4641E+03   4.8175E+04  0.000E+00  0.000E+00  0.000E+00  3.89893E+01  1.143E-01  2.000E+01  2.000E+04  7.320E-02
   1   12   24     2     7    4.8175E+04  2.2158E+03   4.5960E+04  0.000E+00  0.000E+00  0.000E+00  3.87367E+01  1.117E-01  2.000E+01  2.000E+04  1.108E-01
   1   13   23     2     8    4.5960E+04  2.3913E+02   4.5721E+04  0.000E+00  0.000E+00  0.000E+00  3.84850E+01  1.100E-01  2.000E+01  2.000E+04  1.196E-02
   1   14   22     2     9    4.5721E+04  1.6977E+03   4.4023E+04  0.000E+00  0.000E+00  0.000E+00  3.82336E+01  1.086E-01  2.000E+01  2.000E+04  8.489E-02
   1   14   22     3     1    1.7434E+05 -8.4632E+03   1.8281E+05  0.000E+00  0.000E+00  0.000E+00  3.77255E+01  1.700E-01  2.000E+01  2.000E+04 -4.232E-01
   1   15   23     3     2    1.8281E+05 -5.2393E+02   1.8333E+05  0.000E+00  0.000E+00  0.000E+00  3.68392E+01  1.725E-01  2.000E+01  2.000E+04 -2.620E-02
   1   15   24     3     3    1.8333E+05 -2.8859E+02   1.8362E+05  0.000E+00  0.000E+00  0.000E+00  3.59505E+01  1.728E-01  2.000E+01  2.000E+04 -1.443E-02
   1   15   25     3     4    1.8362E+05 -2.6150E+02   1.8388E+05  0.000E+00  0.000E+00  0.000E+00  3.50618E+01  1.729E-01  2.000E+01  2.000E+04 -1.308E-02
   1   15   26     3     5    1.8388E+05 -1.0170E+02   1.8398E+05  0.000E+00  0.000E+00  0.000E+00  3.41730E+01  1.730E-01  2.000E+01  2.000E+04 -5.085E-03
   1   16   27     3     6    1.8398E+05 -3.0420E+01   1.8401E+05  0.000E+00  0.000E+00  0.000E+00  3.32842E+01  1.731E-01  2.000E+01  2.000E+04 -1.521E-03
   1   17   28     3     7    1.8401E+05  6.3076E+01   1.8395E+05  0.000E+00  0.000E+00  0.000E+00  3.23953E+01  1.730E-01  2.000E+01  2.000E+04  3.154E-03
   1   18   29     3     8    1.8395E+05 -2.6505E+03   1.8660E+05  0.000E+00  0.000E+00  0.000E+00  3.15071E+01  1.738E-01  2.000E+01  2.000E+04 -1.325E-01
   1   18   30     3     9    1.8660E+05 -2.6237E+03   1.8922E+05  0.000E+00  0.000E+00  0.000E+00  3.06197E+01  1.753E-01  2.000E+01  2.000E+04 -1.312E-01



1
              HEAD IN LAYER   1 AT END OF TIME STEP   1 IN STRESS PERIOD    3
  ---------------------------------------------------------------------------

          1      2      3      4      5      6      7      8      9     10
         11     12     13     14     15     16     17     18     19     20
         21     22     23     24     25     26     27     28     29     30
 .........................................................................
   1  ****** ****** ****** ****** ****** ****** ****** ****** ****** ******
      ****** ****** ****** ****** ****** ****** ****** ****** ****** ******
      ****** ****** ****** ****** ****** ****** ****** ****** ****** ******
   2  ****** ****** ****** ****** ****** ****** ****** ****** ****** ******
      ****** ****** ****** ****** ****** ****** ****** ****** ****** ******
      ****** ****** ****** ****** ****** ****** ****** ****** ****** ******
   3  ****** ****** ****** ****** ****** ****** ****** ****** ****** ******
      ****** ****** ****** ****** ****** ****** ****** ****** ****** ******
      ****** ****** ****** ****** ****** ****** ****** ****** ****** ******
   4  ****** ****** ****** ****** ****** ****** ****** ****** ****** ******
      ****** ****** ****** ****** ****** ****** ****** ****** ****** ******
      ****** ****** ****** ****** ****** ****** ****** ****** ****** ******
   5  ****** ****** ****** ****** ****** ****** ****** ****** ****** ******
      ****** ****** ****** ****** ****** ****** ****** ****** ****** ******
      ****** ****** ****** ****** ****** ****** ****** ****** ****** ******
   6  ****** ****** ****** ****** ****** ****** ****** ****** ****** ******
      ****** ****** ****** ****** ****** ****** ****** ****** ****** ******
      ****** ****** ****** ****** ****** ****** ****** ****** ****** ******
   7  ****** ****** ****** ****** ****** ****** ****** ****** ****** ******
      ****** ****** ****** ****** ****** ****** ****** ****** ****** ******
      ****** ****** ****** ****** ****** ****** ****** ****** ****** ******
   8  ****** ****** ****** ****** ****** ****** ****** ****** ****** ******
      ****** ****** ****** ****** ****** ****** ****** ****** ****** ******
      ****** ****** ****** ****** ****** ****** ****** ****** ****** ******
   9  ****** ****** ****** ****** ****** ****** ****** ****** ****** ******
      ****** ****** ****** ****** ****** ****** ****** ****** ****** ******
      ****** ****** ****** ****** ****** ****** ****** ****** ****** ******
  10  ****** ****** ****** ****** ****** ****** ****** ****** ****** ******
      ****** ****** ****** ****** ****** ****** ****** ****** ****** ******
      ****** ****** ****** ****** ****** ****** ****** ****** ****** ******
  11  ****** ****** ****** ****** ****** ****** ****** ****** ****** ******
      ****** ****** ****** ****** ****** ****** ****** ****** ****** ******
      ****** ****** ****** ****** ****** ****** ****** ****** ****** ******
  12  ****** ****** ****** ****** ****** ****** ****** ****** ****** ******
      ****** ****** ****** ****** ****** ****** ****** ****** ****** ******
      ****** ****** ****** ****** ****** ****** ****** ****** ****** ******
  13  ****** ****** ****** ****** ****** ****** ****** ****** ****** ******
      ****** ****** ****** ****** ****** ****** ****** ****** ****** ******
      ****** ****** ****** ****** ****** ****** ****** ****** ****** ******
  14  ****** ****** ****** ****** ****** ****** ****** ****** ****** ******
      ****** ****** ****** ****** ****** ****** ****** ****** ****** ******
      ****** ****** ****** ****** ****** ****** ****** ****** ****** ******
  15  ****** ****** ****** ****** ****** ****** ****** ****** ****** ******
      ****** ****** ****** ****** ****** ****** ****** ****** ****** ******
      ****** ****** ****** ****** ****** ****** ****** ****** ****** ******
  16  ****** ****** ****** ****** ****** ****** ****** ****** ****** ******
      ****** ****** ****** ****** ****** ****** ****** ****** ****** ******
      ****** ****** ****** ****** ****** ****** ****** ****** ****** ******
  17  ****** ****** ****** ****** ****** ****** ****** ****** ****** ******
      ****** ****** ****** ****** ****** ****** ****** ****** ****** ******
      ****** ****** ****** ****** ****** ****** ****** ****** ****** ******
  18  ****** ****** ****** ****** ****** ****** ****** ****** ****** ******
      ****** ****** ****** ****** ****** ****** ****** ****** ****** ******
      ****** ****** ****** ****** ****** ****** ****** ****** ****** ******
  19  ****** ****** ****** ****** ****** ****** ****** ****** ****** ******
      ****** ****** ****** ****** ****** ****** ****** ****** ****** ******
      ****** ****** ****** ****** ****** ****** ****** ****** ****** ******
  20  ****** ****** ****** ****** ****** ****** ****** ****** ****** ******
      ****** ****** ****** ****** ****** ****** ****** ****** ****** ******
      ****** ****** ****** ****** ****** ****** ****** ****** ****** ******
  21  ****** ****** ****** ****** ****** ****** ****** ****** ****** ******
      ****** ****** ****** ****** ****** ****** ****** ****** ****** ******
      ****** ****** ****** ****** ****** ****** ****** ****** ****** ******
  22  ****** ****** ****** ****** ****** ****** ****** ****** ****** ******
      ****** ****** ****** ****** ****** ****** ****** ****** ****** ******
      ****** ****** ****** ****** ****** ****** ****** ****** ****** ******
  23  ****** ****** ****** ****** ****** ****** ****** ****** ****** ******
      ****** ****** ****** ****** ****** ****** ****** ****** ****** ******
      ****** ****** ****** ****** ****** ****** ****** ****** ****** ******
  24  ****** ****** ****** ****** ****** ****** ****** ****** ****** ******
      ****** ****** ****** ****** ****** ****** ****** ****** ****** ******
      ****** ****** ****** ****** ****** ****** ****** ****** ****** ******
  25  ****** ****** ****** ****** ****** ****** ****** ****** ****** ******
      ****** ****** ****** ****** ****** ****** ****** ****** ****** ******
      ****** ****** ****** ****** ****** ****** ****** ****** ****** ******

 HEAD WILL BE SAVED ON UNIT   51 AT END OF TIME STEP    1, STRESS PERIOD    3
1
  VOLUMETRIC BUDGET FOR ENTIRE MODEL AT END OF TIME STEP    1, STRESS PERIOD   3
  ------------------------------------------------------------------------------

     CUMULATIVE VOLUMES      L**3       RATES FOR THIS TIME STEP      L**3/T
     ------------------                 ------------------------

           IN:                                      IN:
           ---                                      ---
             STORAGE =    27531600.3764               STORAGE =       54435.8662
       CONSTANT HEAD =     5002399.4998         CONSTANT HEAD =       25409.8564
               WELLS =           0.0000                 WELLS =           0.0000
            RECHARGE =     6292800.0000              RECHARGE =           0.0000
      STREAM LEAKAGE =     2213974.5530        STREAM LEAKAGE =       13144.9651

            TOTAL IN =    41040774.4292              TOTAL IN =       92990.6877

          OUT:                                     OUT:
          ----                                     ----
             STORAGE =           0.0000               STORAGE =           0.0000
       CONSTANT HEAD =           0.0000         CONSTANT HEAD =           0.0000
               WELLS =    11130728.1247                 WELLS =       40623.0953
            RECHARGE =           0.0000              RECHARGE =           0.0000
      STREAM LEAKAGE =    29910048.2572        STREAM LEAKAGE =       52367.6001

           TOTAL OUT =    41040776.3819             TOTAL OUT =       92990.6954

            IN - OUT =          -1.9527              IN - OUT =      -7.7547E-03

 PERCENT DISCREPANCY =          -0.00     PERCENT DISCREPANCY =          -0.00






         TIME SUMMARY AT END OF TIME STEP    1 IN STRESS PERIOD    3
                    SECONDS     MINUTES      HOURS       DAYS        YEARS
                    -----------------------------------------------------------
   TIME STEP LENGTH 7.86240E+06 1.31040E+05  2184.0      91.000     0.24914    
 STRESS PERIOD TIME 7.86240E+06 1.31040E+05  2184.0      91.000     0.24914    
         TOTAL TIME 2.36736E+07 3.94560E+05  6576.0      274.00     0.75017    
1
1
                            STRESS PERIOD NO.    4, LENGTH =   91.00000    
                            -----------------------------------------------

                              NUMBER OF TIME STEPS =     1

                               MULTIPLIER FOR DELT =     1.500

                            INITIAL TIME STEP SIZE =   91.00000    

 WELL NO.  LAYER   ROW   COL   STRESS RATE         
 --------------------------------------------------
      1      1     21     19      -8385.    
      2      1     13     14      -6352.    
      3      1     11     23     -0.1199E+05
      4      1     12     29     -0.1389E+05

      4 WELLS

                 RECHARGE =  1.000000E-03

 REUSING STREAM SEGMENT DATA FROM LAST STRESS PERIOD
 
 SOLVING FOR HEAD 


     6 CALLS TO PCG ROUTINE FOR TIME STEP   1 IN STRESS PERIOD    4
    23 TOTAL ITERATIONS

 OUTPUT CONTROL FOR STRESS PERIOD    4   TIME STEP    1
    SAVE BUDGET
    SAVE HEAD FOR ALL LAYERS
    PRINT HEAD FOR ALL LAYERS
 UBDSV2 SAVING "STREAMFLOW OUT  " ON UNIT  50 AT TIME STEP  1, STRESS PERIOD   4



 STREAM LISTING     PERIOD      4   STEP        1

 LAYER ROW COL. STREAM  RCH.  FLOW INTO     FLOW TO   FLOW OUT OF   OVRLND.     DIRECT     STREAM       STREAM     STREAM     STREAM   STREAMBED  STREAMBED
                SEG.NO.  NO.  STRM. RCH.    AQUIFER    STRM. RCH.    RUNOFF     PRECIP       ET          HEAD       DEPTH      WIDTH   CONDCTNC.   GRADIENT

   1   13    1     1     1    1.0000E+05 -2.5317E+03   1.0253E+05  0.000E+00  0.000E+00  0.000E+00  4.84071E+01  1.457E-01  2.000E+01  2.000E+04 -1.266E-01
   1   13    2     1     2    1.0253E+05 -3.6039E+03   1.0614E+05  0.000E+00  0.000E+00  0.000E+00  4.79325E+01  1.484E-01  2.000E+01  2.000E+04 -1.802E-01
   1   14    3     1     3    1.0614E+05 -6.2545E+02   1.0676E+05  0.000E+00  0.000E+00  0.000E+00  4.74570E+01  1.502E-01  2.000E+01  2.000E+04 -3.127E-02
   1   15    4     1     4    1.0676E+05 -5.9615E+02   1.0736E+05  0.000E+00  0.000E+00  0.000E+00  4.69802E+01  1.507E-01  2.000E+01  2.000E+04 -2.981E-02
   1   16    5     1     5    1.0736E+05 -2.1033E+03   1.0946E+05  0.000E+00  0.000E+00  0.000E+00  4.65041E+01  1.518E-01  2.000E+01  2.000E+04 -1.052E-01
   1   16    6     1     6    1.0946E+05 -1.3143E+03   1.1077E+05  0.000E+00  0.000E+00  0.000E+00  4.60283E+01  1.533E-01  2.000E+01  2.000E+04 -6.571E-02
   1   16    7     1     7    1.1077E+05 -1.2777E+03   1.1205E+05  0.000E+00  0.000E+00  0.000E+00  4.55521E+01  1.543E-01  2.000E+01  2.000E+04 -6.389E-02
   1   16    8     1     8    1.1205E+05 -1.2524E+03   1.1330E+05  0.000E+00  0.000E+00  0.000E+00  4.50758E+01  1.554E-01  2.000E+01  2.000E+04 -6.262E-02
   1   16    9     1     9    1.1330E+05 -1.2120E+03   1.1452E+05  0.000E+00  0.000E+00  0.000E+00  4.45996E+01  1.564E-01  2.000E+01  2.000E+04 -6.060E-02
   1   16   10     1    10    1.1452E+05 -1.1522E+03   1.1567E+05  0.000E+00  0.000E+00  0.000E+00  4.41233E+01  1.574E-01  2.000E+01  2.000E+04 -5.761E-02
   1   16   11     1    11    1.1567E+05 -1.0871E+03   1.1676E+05  0.000E+00  0.000E+00  0.000E+00  4.36469E+01  1.583E-01  2.000E+01  2.000E+04 -5.436E-02
   1   16   12     1    12    1.1676E+05 -1.6807E+03   1.1844E+05  0.000E+00  0.000E+00  0.000E+00  4.31708E+01  1.594E-01  2.000E+01  2.000E+04 -8.403E-02
   1   15   13     1    13    1.1844E+05 -1.3888E+03   1.1983E+05  0.000E+00  0.000E+00  0.000E+00  4.26948E+01  1.607E-01  2.000E+01  2.000E+04 -6.944E-02
   1   14   14     1    14    1.1983E+05  4.1540E+01   1.1978E+05  0.000E+00  0.000E+00  0.000E+00  4.22180E+01  1.612E-01  2.000E+01  2.000E+04  2.077E-03
   1   13   15     1    15    1.1978E+05 -3.9474E+02   1.2018E+05  0.000E+00  0.000E+00  0.000E+00  4.17409E+01  1.614E-01  2.000E+01  2.000E+04 -1.974E-02
   1   12   16     1    16    1.2018E+05 -3.0301E+03   1.2321E+05  0.000E+00  0.000E+00  0.000E+00  4.12650E+01  1.627E-01  2.000E+01  2.000E+04 -1.515E-01
   1   12   17     1    17    1.2321E+05 -2.0314E+03   1.2524E+05  0.000E+00  0.000E+00  0.000E+00  4.07898E+01  1.648E-01  2.000E+01  2.000E+04 -1.016E-01
   1   12   18     1    18    1.2524E+05 -1.8503E+03   1.2709E+05  0.000E+00  0.000E+00  0.000E+00  4.03140E+01  1.663E-01  2.000E+01  2.000E+04 -9.251E-02
   1   12   19     1    19    1.2709E+05 -1.9846E+03   1.2908E+05  0.000E+00  0.000E+00  0.000E+00  3.98383E+01  1.678E-01  2.000E+01  2.000E+04 -9.923E-02
   1   13   20     1    20    1.2908E+05 -1.0633E+03   1.3014E+05  0.000E+00  0.000E+00  0.000E+00  3.93622E+01  1.690E-01  2.000E+01  2.000E+04 -5.316E-02
   1   14   21     1    21    1.3014E+05 -9.9009E+02   1.3113E+05  0.000E+00  0.000E+00  0.000E+00  3.88857E+01  1.698E-01  2.000E+01  2.000E+04 -4.950E-02
   1   14   22     1    22    1.3113E+05  5.2749E+03   1.2585E+05  0.000E+00  0.000E+00  0.000E+00  3.84068E+01  1.681E-01  2.000E+01  2.000E+04  2.637E-01
   1    9   30     2     1    5.0000E+04  1.2749E+03   4.8725E+04  0.000E+00  0.000E+00  0.000E+00  4.02400E+01  1.150E-01  2.000E+01  2.000E+04  6.375E-02
   1    9   29     2     2    4.8725E+04  9.1585E+02   4.7809E+04  0.000E+00  0.000E+00  0.000E+00  3.99884E+01  1.134E-01  2.000E+01  2.000E+04  4.579E-02
   1    9   28     2     3    4.7809E+04  1.7658E+02   4.7633E+04  0.000E+00  0.000E+00  0.000E+00  3.97377E+01  1.127E-01  2.000E+01  2.000E+04  8.829E-03
   1    9   27     2     4    4.7633E+04 -1.6043E+03   4.9237E+04  0.000E+00  0.000E+00  0.000E+00  3.94887E+01  1.137E-01  2.000E+01  2.000E+04 -8.022E-02
   1   10   26     2     5    4.9237E+04  3.6117E+02   4.8876E+04  0.000E+00  0.000E+00  0.000E+00  3.92395E+01  1.145E-01  2.000E+01  2.000E+04  1.806E-02
   1   11   25     2     6    4.8876E+04  1.5888E+03   4.7287E+04  0.000E+00  0.000E+00  0.000E+00  3.89882E+01  1.132E-01  2.000E+01  2.000E+04  7.944E-02
   1   12   24     2     7    4.7287E+04  2.3184E+03   4.4969E+04  0.000E+00  0.000E+00  0.000E+00  3.87354E+01  1.104E-01  2.000E+01  2.000E+04  1.159E-01
   1   13   23     2     8    4.4969E+04  2.1425E+02   4.4754E+04  0.000E+00  0.000E+00  0.000E+00  3.84836E+01  1.086E-01  2.000E+01  2.000E+04  1.071E-02
   1   14   22     2     9    4.4754E+04  1.7817E+03   4.2973E+04  0.000E+00  0.000E+00  0.000E+00  3.82321E+01  1.071E-01  2.000E+01  2.000E+04  8.909E-02
   1   14   22     3     1    1.6883E+05 -8.4135E+03   1.7724E+05  0.000E+00  0.000E+00  0.000E+00  3.77223E+01  1.668E-01  2.000E+01  2.000E+04 -4.207E-01
   1   15   23     3     2    1.7724E+05 -4.9016E+02   1.7773E+05  0.000E+00  0.000E+00  0.000E+00  3.68360E+01  1.694E-01  2.000E+01  2.000E+04 -2.451E-02
   1   15   24     3     3    1.7773E+05 -2.8232E+02   1.7801E+05  0.000E+00  0.000E+00  0.000E+00  3.59474E+01  1.696E-01  2.000E+01  2.000E+04 -1.412E-02
   1   15   25     3     4    1.7801E+05 -2.5501E+02   1.7827E+05  0.000E+00  0.000E+00  0.000E+00  3.50586E+01  1.697E-01  2.000E+01  2.000E+04 -1.275E-02
   1   15   26     3     5    1.7827E+05 -1.0216E+02   1.7837E+05  0.000E+00  0.000E+00  0.000E+00  3.41698E+01  1.698E-01  2.000E+01  2.000E+04 -5.108E-03
   1   16   27     3     6    1.7837E+05 -2.0537E+01   1.7839E+05  0.000E+00  0.000E+00  0.000E+00  3.32810E+01  1.699E-01  2.000E+01  2.000E+04 -1.027E-03
   1   17   28     3     7    1.7839E+05  1.6725E+02   1.7822E+05  0.000E+00  0.000E+00  0.000E+00  3.23920E+01  1.698E-01  2.000E+01  2.000E+04  8.362E-03
   1   18   29     3     8    1.7822E+05 -2.3864E+03   1.8061E+05  0.000E+00  0.000E+00  0.000E+00  3.15038E+01  1.705E-01  2.000E+01  2.000E+04 -1.193E-01
   1   18   30     3     9    1.8061E+05 -2.4823E+03   1.8309E+05  0.000E+00  0.000E+00  0.000E+00  3.06163E+01  1.718E-01  2.000E+01  2.000E+04 -1.241E-01



1
              HEAD IN LAYER   1 AT END OF TIME STEP   1 IN STRESS PERIOD    4
  ---------------------------------------------------------------------------

          1      2      3      4      5      6      7      8      9     10
         11     12     13     14     15     16     17     18     19     20
         21     22     23     24     25     26     27     28     29     30
 .........................................................................
   1  ****** ****** ****** ****** ****** ****** ****** ****** ****** ******
      ****** ****** ****** ****** ****** ****** ****** ****** ****** ******
      ****** ****** ****** ****** ****** ****** ****** ****** ****** ******
   2  ****** ****** ****** ****** ****** ****** ****** ****** ****** ******
      ****** ****** ****** ****** ****** ****** ****** ****** ****** ******
      ****** ****** ****** ****** ****** ****** ****** ****** ****** ******
   3  ****** ****** ****** ****** ****** ****** ****** ****** ****** ******
      ****** ****** ****** ****** ****** ****** ****** ****** ****** ******
      ****** ****** ****** ****** ****** ****** ****** ****** ****** ******
   4  ****** ****** ****** ****** ****** ****** ****** ****** ****** ******
      ****** ****** ****** ****** ****** ****** ****** ****** ****** ******
      ****** ****** ****** ****** ****** ****** ****** ****** ****** ******
   5  ****** ****** ****** ****** ****** ****** ****** ****** ****** ******
      ****** ****** ****** ****** ****** ****** ****** ****** ****** ******
      ****** ****** ****** ****** ****** ****** ****** ****** ****** ******
   6  ****** ****** ****** ****** ****** ****** ****** ****** ****** ******
      ****** ****** ****** ****** ****** ****** ****** ****** ****** ******
      ****** ****** ****** ****** ****** ****** ****** ****** ****** ******
   7  ****** ****** ****** ****** ****** ****** ****** ****** ****** ******
      ****** ****** ****** ****** ****** ****** ****** ****** ****** ******
      ****** ****** ****** ****** ****** ****** ****** ****** ****** ******
   8  ****** ****** ****** ****** ****** ****** ****** ****** ****** ******
      ****** ****** ****** ****** ****** ****** ****** ****** ****** ******
      ****** ****** ****** ****** ****** ****** ****** ****** ****** ******
   9  ****** ****** ****** ****** ****** ****** ****** ****** ****** ******
      ****** ****** ****** ****** ****** ****** ****** ****** ****** ******
      ****** ****** ****** ****** ****** ****** ****** ****** ****** ******
  10  ****** ****** ****** ****** ****** ****** ****** ****** ****** ******
      ****** ****** ****** ****** ****** ****** ****** ****** ****** ******
      ****** ****** ****** ****** ****** ****** ****** ****** ****** ******
  11  ****** ****** ****** ****** ****** ****** ****** ****** ****** ******
      ****** ****** ****** ****** ****** ****** ****** ****** ****** ******
      ****** ****** ****** ****** ****** ****** ****** ****** ****** ******
  12  ****** ****** ****** ****** ****** ****** ****** ****** ****** ******
      ****** ****** ****** ****** ****** ****** ****** ****** ****** ******
      ****** ****** ****** ****** ****** ****** ****** ****** ****** ******
  13  ****** ****** ****** ****** ****** ****** ****** ****** ****** ******
      ****** ****** ****** ****** ****** ****** ****** ****** ****** ******
      ****** ****** ****** ****** ****** ****** ****** ****** ****** ******
  14  ****** ****** ****** ****** ****** ****** ****** ****** ****** ******
      ****** ****** ****** ****** ****** ****** ****** ****** ****** ******
      ****** ****** ****** ****** ****** ****** ****** ****** ****** ******
  15  ****** ****** ****** ****** ****** ****** ****** ****** ****** ******
      ****** ****** ****** ****** ****** ****** ****** ****** ****** ******
      ****** ****** ****** ****** ****** ****** ****** ****** ****** ******
  16  ****** ****** ****** ****** ****** ****** ****** ****** ****** ******
      ****** ****** ****** ****** ****** ****** ****** ****** ****** ******
      ****** ****** ****** ****** ****** ****** ****** ****** ****** ******
  17  ****** ****** ****** ****** ****** ****** ****** ****** ****** ******
      ****** ****** ****** ****** ****** ****** ****** ****** ****** ******
      ****** ****** ****** ****** ****** ****** ****** ****** ****** ******
  18  ****** ****** ****** ****** ****** ****** ****** ****** ****** ******
      ****** ****** ****** ****** ****** ****** ****** ****** ****** ******
      ****** ****** ****** ****** ****** ****** ****** ****** ****** ******
  19  ****** ****** ****** ****** ****** ****** ****** ****** ****** ******
      ****** ****** ****** ****** ****** ****** ****** ****** ****** ******
      ****** ****** ****** ****** ****** ****** ****** ****** ****** ******
  20  ****** ****** ****** ****** ****** ****** ****** ****** ****** ******
      ****** ****** ****** ****** ****** ****** ****** ****** ****** ******
      ****** ****** ****** ****** ****** ****** ****** ****** ****** ******
  21  ****** ****** ****** ****** ****** ****** ****** ****** ****** ******
      ****** ****** ****** ****** ****** ****** ****** ****** ****** ******
      ****** ****** ****** ****** ****** ****** ****** ****** ****** ******
  22  ****** ****** ****** ****** ****** ****** ****** ****** ****** ******
      ****** ****** ****** ****** ****** ****** ****** ****** ****** ******
      ****** ****** ****** ****** ****** ****** ****** ****** ****** ******
  23  ****** ****** ****** ****** ****** ****** ****** ****** ****** ******
      ****** ****** ****** ****** ****** ****** ****** ****** ****** ******
      ****** ****** ****** ****** ****** ****** ****** ****** ****** ******
  24  ****** ****** ****** ****** ****** ****** ****** ****** ****** ******
      ****** ****** ****** ****** ****** ****** ****** ****** ****** ******
      ****** ****** ****** ****** ****** ****** ****** ****** ****** ******
  25  ****** ****** ****** ****** ****** ****** ****** ****** ****** ******
      ****** ****** ****** ****** ****** ****** ****** ****** ****** ******
      ****** ****** ****** ****** ****** ****** ****** ****** ****** ******

 HEAD WILL BE SAVED ON UNIT   51 AT END OF TIME STEP    1, STRESS PERIOD    4
1
  VOLUMETRIC BUDGET FOR ENTIRE MODEL AT END OF TIME STEP    1, STRESS PERIOD   4
  ------------------------------------------------------------------------------

     CUMULATIVE VOLUMES      L**3       RATES FOR THIS TIME STEP      L**3/T
     ------------------                 ------------------------

           IN:                                      IN:
           ---                                      ---
             STORAGE =    29183027.9377               STORAGE =       18147.5556
       CONSTANT HEAD =     7547750.4167         CONSTANT HEAD =       27970.8892
               WELLS =           0.0000                 WELLS =           0.0000
            RECHARGE =     8804400.0000              RECHARGE =       27600.0000
      STREAM LEAKAGE =     3498461.9730        STREAM LEAKAGE =       14115.2464

            TOTAL IN =    49033640.3274              TOTAL IN =       87833.6912

          OUT:                                     OUT:
          ----                                     ----
             STORAGE =         350.0156               STORAGE =           3.8463
       CONSTANT HEAD =           0.0000         CONSTANT HEAD =           0.0000
               WELLS =    14827429.8011                 WELLS =       40623.0953
            RECHARGE =           0.0000              RECHARGE =           0.0000
      STREAM LEAKAGE =    34205862.5353        STREAM LEAKAGE =       47206.7503

           TOTAL OUT =    49033642.3520             TOTAL OUT =       87833.6920

            IN - OUT =          -2.0246              IN - OUT =      -7.9105E-04

 PERCENT DISCREPANCY =          -0.00     PERCENT DISCREPANCY =          -0.00






         TIME SUMMARY AT END OF TIME STEP    1 IN STRESS PERIOD    4
                    SECONDS     MINUTES      HOURS       DAYS        YEARS
                    -----------------------------------------------------------
   TIME STEP LENGTH 7.86240E+06 1.31040E+05  2184.0      91.000     0.24914    
 STRESS PERIOD TIME 7.86240E+06 1.31040E+05  2184.0      91.000     0.24914    
         TOTAL TIME 3.15360E+07 5.25600E+05  8760.0      365.00     0.99932    
1
1
                            STRESS PERIOD NO.    5, LENGTH =   92.00000    
                            -----------------------------------------------

                              NUMBER OF TIME STEPS =     1

                               MULTIPLIER FOR DELT =     1.500

                            INITIAL TIME STEP SIZE =   92.00000    

 WELL NO.  LAYER   ROW   COL   STRESS RATE         
 --------------------------------------------------
      1      1     21     19      -8385.    
      2      1     13     14      -6352.    
      3      1     11     23     -0.1199E+05
      4      1     12     29     -0.1389E+05

      4 WELLS

                 RECHARGE =  5.000000E-04

 REUSING STREAM SEGMENT DATA FROM LAST STRESS PERIOD
 
 SOLVING FOR HEAD 


     7 CALLS TO PCG ROUTINE FOR TIME STEP   1 IN STRESS PERIOD    5
    26 TOTAL ITERATIONS

 OUTPUT CONTROL FOR STRESS PERIOD    5   TIME STEP    1
    SAVE BUDGET
    SAVE HEAD FOR ALL LAYERS
    PRINT HEAD FOR ALL LAYERS
 UBDSV2 SAVING "STREAMFLOW OUT  " ON UNIT  50 AT TIME STEP  1, STRESS PERIOD   5



 STREAM LISTING     PERIOD      5   STEP        1

 LAYER ROW COL. STREAM  RCH.  FLOW INTO     FLOW TO   FLOW OUT OF   OVRLND.     DIRECT     STREAM       STREAM     STREAM     STREAM   STREAMBED  STREAMBED
                SEG.NO.  NO.  STRM. RCH.    AQUIFER    STRM. RCH.    RUNOFF     PRECIP       ET          HEAD       DEPTH      WIDTH   CONDCTNC.   GRADIENT

   1   13    1     1     1    1.0000E+05 -2.1231E+03   1.0212E+05  0.000E+00  0.000E+00  0.000E+00  4.84069E+01  1.456E-01  2.000E+01  2.000E+04 -1.062E-01
   1   13    2     1     2    1.0212E+05 -3.1421E+03   1.0527E+05  0.000E+00  0.000E+00  0.000E+00  4.79319E+01  1.478E-01  2.000E+01  2.000E+04 -1.571E-01
   1   14    3     1     3    1.0527E+05 -5.0377E+02   1.0577E+05  0.000E+00  0.000E+00  0.000E+00  4.74562E+01  1.494E-01  2.000E+01  2.000E+04 -2.519E-02
   1   15    4     1     4    1.0577E+05 -4.6746E+02   1.0624E+05  0.000E+00  0.000E+00  0.000E+00  4.69793E+01  1.498E-01  2.000E+01  2.000E+04 -2.337E-02
   1   16    5     1     5    1.0624E+05 -1.6682E+03   1.0790E+05  0.000E+00  0.000E+00  0.000E+00  4.65030E+01  1.507E-01  2.000E+01  2.000E+04 -8.341E-02
   1   16    6     1     6    1.0790E+05 -1.0595E+03   1.0896E+05  0.000E+00  0.000E+00  0.000E+00  4.60269E+01  1.519E-01  2.000E+01  2.000E+04 -5.298E-02
   1   16    7     1     7    1.0896E+05 -1.0331E+03   1.1000E+05  0.000E+00  0.000E+00  0.000E+00  4.55505E+01  1.527E-01  2.000E+01  2.000E+04 -5.165E-02
   1   16    8     1     8    1.1000E+05 -1.0108E+03   1.1101E+05  0.000E+00  0.000E+00  0.000E+00  4.50740E+01  1.536E-01  2.000E+01  2.000E+04 -5.054E-02
   1   16    9     1     9    1.1101E+05 -9.7260E+02   1.1198E+05  0.000E+00  0.000E+00  0.000E+00  4.45976E+01  1.544E-01  2.000E+01  2.000E+04 -4.863E-02
   1   16   10     1    10    1.1198E+05 -9.1503E+02   1.1290E+05  0.000E+00  0.000E+00  0.000E+00  4.41211E+01  1.552E-01  2.000E+01  2.000E+04 -4.575E-02
   1   16   11     1    11    1.1290E+05 -8.4788E+02   1.1374E+05  0.000E+00  0.000E+00  0.000E+00  4.36446E+01  1.559E-01  2.000E+01  2.000E+04 -4.239E-02
   1   16   12     1    12    1.1374E+05 -1.2508E+03   1.1499E+05  0.000E+00  0.000E+00  0.000E+00  4.31682E+01  1.568E-01  2.000E+01  2.000E+04 -6.254E-02
   1   15   13     1    13    1.1499E+05 -9.4318E+02   1.1594E+05  0.000E+00  0.000E+00  0.000E+00  4.26918E+01  1.577E-01  2.000E+01  2.000E+04 -4.716E-02
   1   14   14     1    14    1.1594E+05  5.1035E+02   1.1543E+05  0.000E+00  0.000E+00  0.000E+00  4.22147E+01  1.579E-01  2.000E+01  2.000E+04  2.552E-02
   1   13   15     1    15    1.1543E+05  8.6518E+01   1.1534E+05  0.000E+00  0.000E+00  0.000E+00  4.17372E+01  1.576E-01  2.000E+01  2.000E+04  4.326E-03
   1   12   16     1    16    1.1534E+05 -2.5114E+03   1.1785E+05  0.000E+00  0.000E+00  0.000E+00  4.12609E+01  1.586E-01  2.000E+01  2.000E+04 -1.256E-01
   1   12   17     1    17    1.1785E+05 -1.6796E+03   1.1953E+05  0.000E+00  0.000E+00  0.000E+00  4.07853E+01  1.603E-01  2.000E+01  2.000E+04 -8.398E-02
   1   12   18     1    18    1.1953E+05 -1.5145E+03   1.2105E+05  0.000E+00  0.000E+00  0.000E+00  4.03093E+01  1.616E-01  2.000E+01  2.000E+04 -7.573E-02
   1   12   19     1    19    1.2105E+05 -1.5798E+03   1.2263E+05  0.000E+00  0.000E+00  0.000E+00  3.98333E+01  1.629E-01  2.000E+01  2.000E+04 -7.899E-02
   1   13   20     1    20    1.2263E+05 -7.0093E+02   1.2333E+05  0.000E+00  0.000E+00  0.000E+00  3.93569E+01  1.638E-01  2.000E+01  2.000E+04 -3.505E-02
   1   14   21     1    21    1.2333E+05 -5.9220E+02   1.2392E+05  0.000E+00  0.000E+00  0.000E+00  3.88802E+01  1.643E-01  2.000E+01  2.000E+04 -2.961E-02
   1   14   22     1    22    1.2392E+05  5.3604E+03   1.1856E+05  0.000E+00  0.000E+00  0.000E+00  3.84010E+01  1.624E-01  2.000E+01  2.000E+04  2.680E-01
   1    9   30     2     1    5.0000E+04  1.5071E+03   4.8493E+04  0.000E+00  0.000E+00  0.000E+00  4.02398E+01  1.148E-01  2.000E+01  2.000E+04  7.535E-02
   1    9   29     2     2    4.8493E+04  1.1512E+03   4.7342E+04  0.000E+00  0.000E+00  0.000E+00  3.99879E+01  1.129E-01  2.000E+01  2.000E+04  5.756E-02
   1    9   28     2     3    4.7342E+04  4.2306E+02   4.6919E+04  0.000E+00  0.000E+00  0.000E+00  3.97368E+01  1.118E-01  2.000E+01  2.000E+04  2.115E-02
   1    9   27     2     4    4.6919E+04 -1.2189E+03   4.8137E+04  0.000E+00  0.000E+00  0.000E+00  3.94874E+01  1.124E-01  2.000E+01  2.000E+04 -6.094E-02
   1   10   26     2     5    4.8137E+04  6.9938E+02   4.7438E+04  0.000E+00  0.000E+00  0.000E+00  3.92378E+01  1.128E-01  2.000E+01  2.000E+04  3.497E-02
   1   11   25     2     6    4.7438E+04  1.8993E+03   4.5539E+04  0.000E+00  0.000E+00  0.000E+00  3.89859E+01  1.109E-01  2.000E+01  2.000E+04  9.497E-02
   1   12   24     2     7    4.5539E+04  2.6010E+03   4.2938E+04  0.000E+00  0.000E+00  0.000E+00  3.87327E+01  1.077E-01  2.000E+01  2.000E+04  1.300E-01
   1   13   23     2     8    4.2938E+04  2.8251E+02   4.2655E+04  0.000E+00  0.000E+00  0.000E+00  3.84805E+01  1.055E-01  2.000E+01  2.000E+04  1.413E-02
   1   14   22     2     9    4.2655E+04  1.9183E+03   4.0737E+04  0.000E+00  0.000E+00  0.000E+00  3.82289E+01  1.039E-01  2.000E+01  2.000E+04  9.592E-02
   1   14   22     3     1    1.5930E+05 -8.3248E+03   1.6762E+05  0.000E+00  0.000E+00  0.000E+00  3.77167E+01  1.612E-01  2.000E+01  2.000E+04 -4.162E-01
   1   15   23     3     2    1.6762E+05 -3.8595E+02   1.6801E+05  0.000E+00  0.000E+00  0.000E+00  3.68304E+01  1.638E-01  2.000E+01  2.000E+04 -1.930E-02
   1   15   24     3     3    1.6801E+05 -2.0695E+02   1.6821E+05  0.000E+00  0.000E+00  0.000E+00  3.59417E+01  1.639E-01  2.000E+01  2.000E+04 -1.035E-02
   1   15   25     3     4    1.6821E+05 -1.8045E+02   1.6839E+05  0.000E+00  0.000E+00  0.000E+00  3.50529E+01  1.640E-01  2.000E+01  2.000E+04 -9.022E-03
   1   15   26     3     5    1.6839E+05 -2.6704E+01   1.6842E+05  0.000E+00  0.000E+00  0.000E+00  3.41641E+01  1.641E-01  2.000E+01  2.000E+04 -1.335E-03
   1   16   27     3     6    1.6842E+05  7.4535E+01   1.6835E+05  0.000E+00  0.000E+00  0.000E+00  3.32752E+01  1.641E-01  2.000E+01  2.000E+04  3.727E-03
   1   17   28     3     7    1.6835E+05  4.5230E+02   1.6789E+05  0.000E+00  0.000E+00  0.000E+00  3.23862E+01  1.639E-01  2.000E+01  2.000E+04  2.261E-02
   1   18   29     3     8    1.6789E+05 -1.9847E+03   1.6988E+05  0.000E+00  0.000E+00  0.000E+00  3.14977E+01  1.644E-01  2.000E+01  2.000E+04 -9.923E-02
   1   18   30     3     9    1.6988E+05 -2.2068E+03   1.7209E+05  0.000E+00  0.000E+00  0.000E+00  3.06100E+01  1.656E-01  2.000E+01  2.000E+04 -1.103E-01



1
              HEAD IN LAYER   1 AT END OF TIME STEP   1 IN STRESS PERIOD    5
  ---------------------------------------------------------------------------

          1      2      3      4      5      6      7      8      9     10
         11     12     13     14     15     16     17     18     19     20
         21     22     23     24     25     26     27     28     29     30
 .........................................................................
   1  ****** ****** ****** ****** ****** ****** ****** ****** ****** ******
      ****** ****** ****** ****** ****** ****** ****** ****** ****** ******
      ****** ****** ****** ****** ****** ****** ****** ****** ****** ******
   2  ****** ****** ****** ****** ****** ****** ****** ****** ****** ******
      ****** ****** ****** ****** ****** ****** ****** ****** ****** ******
      ****** ****** ****** ****** ****** ****** ****** ****** ****** ******
   3  ****** ****** ****** ****** ****** ****** ****** ****** ****** ******
      ****** ****** ****** ****** ****** ****** ****** ****** ****** ******
      ****** ****** ****** ****** ****** ****** ****** ****** ****** ******
   4  ****** ****** ****** ****** ****** ****** ****** ****** ****** ******
      ****** ****** ****** ****** ****** ****** ****** ****** ****** ******
      ****** ****** ****** ****** ****** ****** ****** ****** ****** ******
   5  ****** ****** ****** ****** ****** ****** ****** ****** ****** ******
      ****** ****** ****** ****** ****** ****** ****** ****** ****** ******
      ****** ****** ****** ****** ****** ****** ****** ****** ****** ******
   6  ****** ****** ****** ****** ****** ****** ****** ****** ****** ******
      ****** ****** ****** ****** ****** ****** ****** ****** ****** ******
      ****** ****** ****** ****** ****** ****** ****** ****** ****** ******
   7  ****** ****** ****** ****** ****** ****** ****** ****** ****** ******
      ****** ****** ****** ****** ****** ****** ****** ****** ****** ******
      ****** ****** ****** ****** ****** ****** ****** ****** ****** ******
   8  ****** ****** ****** ****** ****** ****** ****** ****** ****** ******
      ****** ****** ****** ****** ****** ****** ****** ****** ****** ******
      ****** ****** ****** ****** ****** ****** ****** ****** ****** ******
   9  ****** ****** ****** ****** ****** ****** ****** ****** ****** ******
      ****** ****** ****** ****** ****** ****** ****** ****** ****** ******
      ****** ****** ****** ****** ****** ****** ****** ****** ****** ******
  10  ****** ****** ****** ****** ****** ****** ****** ****** ****** ******
      ****** ****** ****** ****** ****** ****** ****** ****** ****** ******
      ****** ****** ****** ****** ****** ****** ****** ****** ****** ******
  11  ****** ****** ****** ****** ****** ****** ****** ****** ****** ******
      ****** ****** ****** ****** ****** ****** ****** ****** ****** ******
      ****** ****** ****** ****** ****** ****** ****** ****** ****** ******
  12  ****** ****** ****** ****** ****** ****** ****** ****** ****** ******
      ****** ****** ****** ****** ****** ****** ****** ****** ****** ******
      ****** ****** ****** ****** ****** ****** ****** ****** ****** ******
  13  ****** ****** ****** ****** ****** ****** ****** ****** ****** ******
      ****** ****** ****** ****** ****** ****** ****** ****** ****** ******
      ****** ****** ****** ****** ****** ****** ****** ****** ****** ******
  14  ****** ****** ****** ****** ****** ****** ****** ****** ****** ******
      ****** ****** ****** ****** ****** ****** ****** ****** ****** ******
      ****** ****** ****** ****** ****** ****** ****** ****** ****** ******
  15  ****** ****** ****** ****** ****** ****** ****** ****** ****** ******
      ****** ****** ****** ****** ****** ****** ****** ****** ****** ******
      ****** ****** ****** ****** ****** ****** ****** ****** ****** ******
  16  ****** ****** ****** ****** ****** ****** ****** ****** ****** ******
      ****** ****** ****** ****** ****** ****** ****** ****** ****** ******
      ****** ****** ****** ****** ****** ****** ****** ****** ****** ******
  17  ****** ****** ****** ****** ****** ****** ****** ****** ****** ******
      ****** ****** ****** ****** ****** ****** ****** ****** ****** ******
      ****** ****** ****** ****** ****** ****** ****** ****** ****** ******
  18  ****** ****** ****** ****** ****** ****** ****** ****** ****** ******
      ****** ****** ****** ****** ****** ****** ****** ****** ****** ******
      ****** ****** ****** ****** ****** ****** ****** ****** ****** ******
  19  ****** ****** ****** ****** ****** ****** ****** ****** ****** ******
      ****** ****** ****** ****** ****** ****** ****** ****** ****** ******
      ****** ****** ****** ****** ****** ****** ****** ****** ****** ******
  20  ****** ****** ****** ****** ****** ****** ****** ****** ****** ******
      ****** ****** ****** ****** ****** ****** ****** ****** ****** ******
      ****** ****** ****** ****** ****** ****** ****** ****** ****** ******
  21  ****** ****** ****** ****** ****** ****** ****** ****** ****** ******
      ****** ****** ****** ****** ****** ****** ****** ****** ****** ******
      ****** ****** ****** ****** ****** ****** ****** ****** ****** ******
  22  ****** ****** ****** ****** ****** ****** ****** ****** ****** ******
      ****** ****** ****** ****** ****** ****** ****** ****** ****** ******
      ****** ****** ****** ****** ****** ****** ****** ****** ****** ******
  23  ****** ****** ****** ****** ****** ****** ****** ****** ****** ******
      ****** ****** ****** ****** ****** ****** ****** ****** ****** ******
      ****** ****** ****** ****** ****** ****** ****** ****** ****** ******
  24  ****** ****** ****** ****** ****** ****** ****** ****** ****** ******
      ****** ****** ****** ****** ****** ****** ****** ****** ****** ******
      ****** ****** ****** ****** ****** ****** ****** ****** ****** ******
  25  ****** ****** ****** ****** ****** ****** ****** ****** ****** ******
      ****** ****** ****** ****** ****** ****** ****** ****** ****** ******
      ****** ****** ****** ****** ****** ****** ****** ****** ****** ******

 HEAD WILL BE SAVED ON UNIT   51 AT END OF TIME STEP    1, STRESS PERIOD    5
1
  VOLUMETRIC BUDGET FOR ENTIRE MODEL AT END OF TIME STEP    1, STRESS PERIOD   5
  ------------------------------------------------------------------------------

     CUMULATIVE VOLUMES      L**3       RATES FOR THIS TIME STEP      L**3/T
     ------------------                 ------------------------

           IN:                                      IN:
           ---                                      ---
             STORAGE =    30842871.1629               STORAGE =       18041.7742
       CONSTANT HEAD =    10387467.6280         CONSTANT HEAD =       30866.4914
               WELLS =           0.0000                 WELLS =           0.0000
            RECHARGE =    10074000.0000              RECHARGE =       13800.0000
      STREAM LEAKAGE =     5059335.5849        STREAM LEAKAGE =       16966.0175

            TOTAL IN =    56363674.3758              TOTAL IN =       79674.2831

          OUT:                                     OUT:
          ----                                     ----
             STORAGE =         350.0156               STORAGE =           0.0000
       CONSTANT HEAD =           0.0000         CONSTANT HEAD =           0.0000
               WELLS =    18564754.5729                 WELLS =       40623.0953
            RECHARGE =           0.0000              RECHARGE =           0.0000
      STREAM LEAKAGE =    37798572.0998        STREAM LEAKAGE =       39051.1909

           TOTAL OUT =    56363676.6883             TOTAL OUT =       79674.2863

            IN - OUT =          -2.3125              IN - OUT =      -3.1289E-03

 PERCENT DISCREPANCY =          -0.00     PERCENT DISCREPANCY =          -0.00






         TIME SUMMARY AT END OF TIME STEP    1 IN STRESS PERIOD    5
                    SECONDS     MINUTES      HOURS       DAYS        YEARS
                    -----------------------------------------------------------
   TIME STEP LENGTH 7.94880E+06 1.32480E+05  2208.0      92.000     0.25188    
 STRESS PERIOD TIME 7.94880E+06 1.32480E+05  2208.0      92.000     0.25188    
         TOTAL TIME 3.94848E+07 6.58080E+05  10968.      457.00      1.2512    
1
1
                            STRESS PERIOD NO.    6, LENGTH =   91.00000    
                            -----------------------------------------------

                              NUMBER OF TIME STEPS =     1

                               MULTIPLIER FOR DELT =     1.500

                            INITIAL TIME STEP SIZE =   91.00000    

 WELL NO.  LAYER   ROW   COL   STRESS RATE         
 --------------------------------------------------
      1      1     21     19      -8385.    
      2      1     13     14      -6352.    
      3      1     11     23     -0.1199E+05
      4      1     12     29     -0.1389E+05

      4 WELLS

                 RECHARGE =  2.000000E-03

 REUSING STREAM SEGMENT DATA FROM LAST STRESS PERIOD
 
 SOLVING FOR HEAD 


     7 CALLS TO PCG ROUTINE FOR TIME STEP   1 IN STRESS PERIOD    6
    26 TOTAL ITERATIONS

 OUTPUT CONTROL FOR STRESS PERIOD    6   TIME STEP    1
    SAVE BUDGET
    SAVE HEAD FOR ALL LAYERS
    PRINT HEAD FOR ALL LAYERS
 UBDSV2 SAVING "STREAMFLOW OUT  " ON UNIT  50 AT TIME STEP  1, STRESS PERIOD   6



 STREAM LISTING     PERIOD      6   STEP        1

 LAYER ROW COL. STREAM  RCH.  FLOW INTO     FLOW TO   FLOW OUT OF   OVRLND.     DIRECT     STREAM       STREAM     STREAM     STREAM   STREAMBED  STREAMBED
                SEG.NO.  NO.  STRM. RCH.    AQUIFER    STRM. RCH.    RUNOFF     PRECIP       ET          HEAD       DEPTH      WIDTH   CONDCTNC.   GRADIENT

   1   13    1     1     1    1.0000E+05 -2.4437E+03   1.0244E+05  0.000E+00  0.000E+00  0.000E+00  4.84071E+01  1.457E-01  2.000E+01  2.000E+04 -1.222E-01
   1   13    2     1     2    1.0244E+05 -3.4935E+03   1.0594E+05  0.000E+00  0.000E+00  0.000E+00  4.79323E+01  1.483E-01  2.000E+01  2.000E+04 -1.747E-01
   1   14    3     1     3    1.0594E+05 -6.5931E+02   1.0660E+05  0.000E+00  0.000E+00  0.000E+00  4.74568E+01  1.500E-01  2.000E+01  2.000E+04 -3.297E-02
   1   15    4     1     4    1.0660E+05 -6.3411E+02   1.0723E+05  0.000E+00  0.000E+00  0.000E+00  4.69801E+01  1.506E-01  2.000E+01  2.000E+04 -3.171E-02
   1   16    5     1     5    1.0723E+05 -2.1623E+03   1.0939E+05  0.000E+00  0.000E+00  0.000E+00  4.65040E+01  1.518E-01  2.000E+01  2.000E+04 -1.081E-01
   1   16    6     1     6    1.0939E+05 -1.3496E+03   1.1074E+05  0.000E+00  0.000E+00  0.000E+00  4.60282E+01  1.532E-01  2.000E+01  2.000E+04 -6.748E-02
   1   16    7     1     7    1.1074E+05 -1.3078E+03   1.1205E+05  0.000E+00  0.000E+00  0.000E+00  4.55521E+01  1.543E-01  2.000E+01  2.000E+04 -6.539E-02
   1   16    8     1     8    1.1205E+05 -1.2807E+03   1.1333E+05  0.000E+00  0.000E+00  0.000E+00  4.50759E+01  1.554E-01  2.000E+01  2.000E+04 -6.403E-02
   1   16    9     1     9    1.1333E+05 -1.2416E+03   1.1457E+05  0.000E+00  0.000E+00  0.000E+00  4.45996E+01  1.564E-01  2.000E+01  2.000E+04 -6.208E-02
   1   16   10     1    10    1.1457E+05 -1.1851E+03   1.1576E+05  0.000E+00  0.000E+00  0.000E+00  4.41233E+01  1.574E-01  2.000E+01  2.000E+04 -5.926E-02
   1   16   11     1    11    1.1576E+05 -1.1204E+03   1.1688E+05  0.000E+00  0.000E+00  0.000E+00  4.36470E+01  1.584E-01  2.000E+01  2.000E+04 -5.602E-02
   1   16   12     1    12    1.1688E+05 -1.6897E+03   1.1857E+05  0.000E+00  0.000E+00  0.000E+00  4.31709E+01  1.595E-01  2.000E+01  2.000E+04 -8.448E-02
   1   15   13     1    13    1.1857E+05 -1.3957E+03   1.1996E+05  0.000E+00  0.000E+00  0.000E+00  4.26949E+01  1.608E-01  2.000E+01  2.000E+04 -6.979E-02
   1   14   14     1    14    1.1996E+05  6.0163E+01   1.1990E+05  0.000E+00  0.000E+00  0.000E+00  4.22181E+01  1.613E-01  2.000E+01  2.000E+04  3.008E-03
   1   13   15     1    15    1.1990E+05 -3.4695E+02   1.2025E+05  0.000E+00  0.000E+00  0.000E+00  4.17410E+01  1.614E-01  2.000E+01  2.000E+04 -1.735E-02
   1   12   16     1    16    1.2025E+05 -2.9035E+03   1.2315E+05  0.000E+00  0.000E+00  0.000E+00  4.12650E+01  1.627E-01  2.000E+01  2.000E+04 -1.452E-01
   1   12   17     1    17    1.2315E+05 -1.9961E+03   1.2515E+05  0.000E+00  0.000E+00  0.000E+00  4.07897E+01  1.647E-01  2.000E+01  2.000E+04 -9.980E-02
   1   12   18     1    18    1.2515E+05 -1.8341E+03   1.2698E+05  0.000E+00  0.000E+00  0.000E+00  4.03139E+01  1.662E-01  2.000E+01  2.000E+04 -9.171E-02
   1   12   19     1    19    1.2698E+05 -1.9780E+03   1.2896E+05  0.000E+00  0.000E+00  0.000E+00  3.98382E+01  1.677E-01  2.000E+01  2.000E+04 -9.890E-02
   1   13   20     1    20    1.2896E+05 -1.1206E+03   1.3008E+05  0.000E+00  0.000E+00  0.000E+00  3.93621E+01  1.689E-01  2.000E+01  2.000E+04 -5.603E-02
   1   14   21     1    21    1.3008E+05 -9.9537E+02   1.3108E+05  0.000E+00  0.000E+00  0.000E+00  3.88857E+01  1.698E-01  2.000E+01  2.000E+04 -4.977E-02
   1   14   22     1    22    1.3108E+05  5.2510E+03   1.2583E+05  0.000E+00  0.000E+00  0.000E+00  3.84067E+01  1.681E-01  2.000E+01  2.000E+04  2.625E-01
   1    9   30     2     1    5.0000E+04  1.1423E+03   4.8858E+04  0.000E+00  0.000E+00  0.000E+00  4.02401E+01  1.151E-01  2.000E+01  2.000E+04  5.711E-02
   1    9   29     2     2    4.8858E+04  7.9067E+02   4.8067E+04  0.000E+00  0.000E+00  0.000E+00  3.99887E+01  1.137E-01  2.000E+01  2.000E+04  3.953E-02
   1    9   28     2     3    4.8067E+04  6.8856E+01   4.7998E+04  0.000E+00  0.000E+00  0.000E+00  3.97381E+01  1.131E-01  2.000E+01  2.000E+04  3.443E-03
   1    9   27     2     4    4.7998E+04 -1.6685E+03   4.9667E+04  0.000E+00  0.000E+00  0.000E+00  3.94892E+01  1.142E-01  2.000E+01  2.000E+04 -8.343E-02
   1   10   26     2     5    4.9667E+04  2.2663E+02   4.9440E+04  0.000E+00  0.000E+00  0.000E+00  3.92402E+01  1.152E-01  2.000E+01  2.000E+04  1.133E-02
   1   11   25     2     6    4.9440E+04  1.4415E+03   4.7999E+04  0.000E+00  0.000E+00  0.000E+00  3.89891E+01  1.141E-01  2.000E+01  2.000E+04  7.208E-02
   1   12   24     2     7    4.7999E+04  2.1881E+03   4.5810E+04  0.000E+00  0.000E+00  0.000E+00  3.87365E+01  1.115E-01  2.000E+01  2.000E+04  1.094E-01
   1   13   23     2     8    4.5810E+04  1.4428E+02   4.5666E+04  0.000E+00  0.000E+00  0.000E+00  3.84848E+01  1.098E-01  2.000E+01  2.000E+04  7.214E-03
   1   14   22     2     9    4.5666E+04  1.7850E+03   4.3881E+04  0.000E+00  0.000E+00  0.000E+00  3.82334E+01  1.084E-01  2.000E+01  2.000E+04  8.925E-02
   1   14   22     3     1    1.6971E+05 -8.4265E+03   1.7813E+05  0.000E+00  0.000E+00  0.000E+00  3.77229E+01  1.673E-01  2.000E+01  2.000E+04 -4.213E-01
   1   15   23     3     2    1.7813E+05 -5.2070E+02   1.7866E+05  0.000E+00  0.000E+00  0.000E+00  3.68365E+01  1.699E-01  2.000E+01  2.000E+04 -2.604E-02
   1   15   24     3     3    1.7866E+05 -3.2744E+02   1.7898E+05  0.000E+00  0.000E+00  0.000E+00  3.59479E+01  1.701E-01  2.000E+01  2.000E+04 -1.637E-02
   1   15   25     3     4    1.7898E+05 -3.0554E+02   1.7929E+05  0.000E+00  0.000E+00  0.000E+00  3.50592E+01  1.703E-01  2.000E+01  2.000E+04 -1.528E-02
   1   15   26     3     5    1.7929E+05 -1.7695E+02   1.7947E+05  0.000E+00  0.000E+00  0.000E+00  3.41704E+01  1.704E-01  2.000E+01  2.000E+04 -8.848E-03
   1   16   27     3     6    1.7947E+05 -9.2498E+01   1.7956E+05  0.000E+00  0.000E+00  0.000E+00  3.32816E+01  1.705E-01  2.000E+01  2.000E+04 -4.625E-03
   1   17   28     3     7    1.7956E+05 -4.4878E+00   1.7956E+05  0.000E+00  0.000E+00  0.000E+00  3.23928E+01  1.705E-01  2.000E+01  2.000E+04 -2.244E-04
   1   18   29     3     8    1.7956E+05 -2.4136E+03   1.8198E+05  0.000E+00  0.000E+00  0.000E+00  3.15046E+01  1.712E-01  2.000E+01  2.000E+04 -1.207E-01
   1   18   30     3     9    1.8198E+05 -2.5564E+03   1.8453E+05  0.000E+00  0.000E+00  0.000E+00  3.06171E+01  1.726E-01  2.000E+01  2.000E+04 -1.278E-01



1
              HEAD IN LAYER   1 AT END OF TIME STEP   1 IN STRESS PERIOD    6
  ---------------------------------------------------------------------------

          1      2      3      4      5      6      7      8      9     10
         11     12     13     14     15     16     17     18     19     20
         21     22     23     24     25     26     27     28     29     30
 .........................................................................
   1  ****** ****** ****** ****** ****** ****** ****** ****** ****** ******
      ****** ****** ****** ****** ****** ****** ****** ****** ****** ******
      ****** ****** ****** ****** ****** ****** ****** ****** ****** ******
   2  ****** ****** ****** ****** ****** ****** ****** ****** ****** ******
      ****** ****** ****** ****** ****** ****** ****** ****** ****** ******
      ****** ****** ****** ****** ****** ****** ****** ****** ****** ******
   3  ****** ****** ****** ****** ****** ****** ****** ****** ****** ******
      ****** ****** ****** ****** ****** ****** ****** ****** ****** ******
      ****** ****** ****** ****** ****** ****** ****** ****** ****** ******
   4  ****** ****** ****** ****** ****** ****** ****** ****** ****** ******
      ****** ****** ****** ****** ****** ****** ****** ****** ****** ******
      ****** ****** ****** ****** ****** ****** ****** ****** ****** ******
   5  ****** ****** ****** ****** ****** ****** ****** ****** ****** ******
      ****** ****** ****** ****** ****** ****** ****** ****** ****** ******
      ****** ****** ****** ****** ****** ****** ****** ****** ****** ******
   6  ****** ****** ****** ****** ****** ****** ****** ****** ****** ******
      ****** ****** ****** ****** ****** ****** ****** ****** ****** ******
      ****** ****** ****** ****** ****** ****** ****** ****** ****** ******
   7  ****** ****** ****** ****** ****** ****** ****** ****** ****** ******
      ****** ****** ****** ****** ****** ****** ****** ****** ****** ******
      ****** ****** ****** ****** ****** ****** ****** ****** ****** ******
   8  ****** ****** ****** ****** ****** ****** ****** ****** ****** ******
      ****** ****** ****** ****** ****** ****** ****** ****** ****** ******
      ****** ****** ****** ****** ****** ****** ****** ****** ****** ******
   9  ****** ****** ****** ****** ****** ****** ****** ****** ****** ******
      ****** ****** ****** ****** ****** ****** ****** ****** ****** ******
      ****** ****** ****** ****** ****** ****** ****** ****** ****** ******
  10  ****** ****** ****** ****** ****** ****** ****** ****** ****** ******
      ****** ****** ****** ****** ****** ****** ****** ****** ****** ******
      ****** ****** ****** ****** ****** ****** ****** ****** ****** ******
  11  ****** ****** ****** ****** ****** ****** ****** ****** ****** ******
      ****** ****** ****** ****** ****** ****** ****** ****** ****** ******
      ****** ****** ****** ****** ****** ****** ****** ****** ****** ******
  12  ****** ****** ****** ****** ****** ****** ****** ****** ****** ******
      ****** ****** ****** ****** ****** ****** ****** ****** ****** ******
      ****** ****** ****** ****** ****** ****** ****** ****** ****** ******
  13  ****** ****** ****** ****** ****** ****** ****** ****** ****** ******
      ****** ****** ****** ****** ****** ****** ****** ****** ****** ******
      ****** ****** ****** ****** ****** ****** ****** ****** ****** ******
  14  ****** ****** ****** ****** ****** ****** ****** ****** ****** ******
      ****** ****** ****** ****** ****** ****** ****** ****** ****** ******
      ****** ****** ****** ****** ****** ****** ****** ****** ****** ******
  15  ****** ****** ****** ****** ****** ****** ****** ****** ****** ******
      ****** ****** ****** ****** ****** ****** ****** ****** ****** ******
      ****** ****** ****** ****** ****** ****** ****** ****** ****** ******
  16  ****** ****** ****** ****** ****** ****** ****** ****** ****** ******
      ****** ****** ****** ****** ****** ****** ****** ****** ****** ******
      ****** ****** ****** ****** ****** ****** ****** ****** ****** ******
  17  ****** ****** ****** ****** ****** ****** ****** ****** ****** ******
      ****** ****** ****** ****** ****** ****** ****** ****** ****** ******
      ****** ****** ****** ****** ****** ****** ****** ****** ****** ******
  18  ****** ****** ****** ****** ****** ****** ****** ****** ****** ******
      ****** ****** ****** ****** ****** ****** ****** ****** ****** ******
      ****** ****** ****** ****** ****** ****** ****** ****** ****** ******
  19  ****** ****** ****** ****** ****** ****** ****** ****** ****** ******
      ****** ****** ****** ****** ****** ****** ****** ****** ****** ******
      ****** ****** ****** ****** ****** ****** ****** ****** ****** ******
  20  ****** ****** ****** ****** ****** ****** ****** ****** ****** ******
      ****** ****** ****** ****** ****** ****** ****** ****** ****** ******
      ****** ****** ****** ****** ****** ****** ****** ****** ****** ******
  21  ****** ****** ****** ****** ****** ****** ****** ****** ****** ******
      ****** ****** ****** ****** ****** ****** ****** ****** ****** ******
      ****** ****** ****** ****** ****** ****** ****** ****** ****** ******
  22  ****** ****** ****** ****** ****** ****** ****** ****** ****** ******
      ****** ****** ****** ****** ****** ****** ****** ****** ****** ******
      ****** ****** ****** ****** ****** ****** ****** ****** ****** ******
  23  ****** ****** ****** ****** ****** ****** ****** ****** ****** ******
      ****** ****** ****** ****** ****** ****** ****** ****** ****** ******
      ****** ****** ****** ****** ****** ****** ****** ****** ****** ******
  24  ****** ****** ****** ****** ****** ****** ****** ****** ****** ******
      ****** ****** ****** ****** ****** ****** ****** ****** ****** ******
      ****** ****** ****** ****** ****** ****** ****** ****** ****** ******
  25  ****** ****** ****** ****** ****** ****** ****** ****** ****** ******
      ****** ****** ****** ****** ****** ****** ****** ****** ****** ******
      ****** ****** ****** ****** ****** ****** ****** ****** ****** ******

 HEAD WILL BE SAVED ON UNIT   51 AT END OF TIME STEP    1, STRESS PERIOD    6
1
  VOLUMETRIC BUDGET FOR ENTIRE MODEL AT END OF TIME STEP    1, STRESS PERIOD   6
  ------------------------------------------------------------------------------

     CUMULATIVE VOLUMES      L**3       RATES FOR THIS TIME STEP      L**3/T
     ------------------                 ------------------------

           IN:                                      IN:
           ---                                      ---
             STORAGE =    30842871.1629               STORAGE =           0.0000
       CONSTANT HEAD =    13020992.1436         CONSTANT HEAD =       28939.8298
               WELLS =           0.0000                 WELLS =           0.0000
            RECHARGE =    15097200.0000              RECHARGE =       55200.0000
      STREAM LEAKAGE =     6251297.8671        STREAM LEAKAGE =       13098.4866

            TOTAL IN =    65212361.1736              TOTAL IN =       97238.3165

          OUT:                                     OUT:
          ----                                     ----
             STORAGE =      817935.5573               STORAGE =        8984.4565
       CONSTANT HEAD =           0.0000         CONSTANT HEAD =           0.0000
               WELLS =    22261456.2494                 WELLS =       40623.0953
            RECHARGE =           0.0000              RECHARGE =           0.0000
      STREAM LEAKAGE =    42132971.4103        STREAM LEAKAGE =       47630.7617

           TOTAL OUT =    65212363.2171             TOTAL OUT =       97238.3135

            IN - OUT =          -2.0434              IN - OUT =       2.9568E-03

 PERCENT DISCREPANCY =          -0.00     PERCENT DISCREPANCY =           0.00






         TIME SUMMARY AT END OF TIME STEP    1 IN STRESS PERIOD    6
                    SECONDS     MINUTES      HOURS       DAYS        YEARS
                    -----------------------------------------------------------
   TIME STEP LENGTH 7.86240E+06 1.31040E+05  2184.0      91.000     0.24914    
 STRESS PERIOD TIME 7.86240E+06 1.31040E+05  2184.0      91.000     0.24914    
         TOTAL TIME 4.73472E+07 7.89120E+05  13152.      548.00      1.5003    
1
1
                            STRESS PERIOD NO.    7, LENGTH =   91.00000    
                            -----------------------------------------------

                              NUMBER OF TIME STEPS =     1

                               MULTIPLIER FOR DELT =     1.500

                            INITIAL TIME STEP SIZE =   91.00000    

 WELL NO.  LAYER   ROW   COL   STRESS RATE         
 --------------------------------------------------
      1      1     21     19      -8385.    
      2      1     13     14      -6352.    
      3      1     11     23     -0.1199E+05
      4      1     12     29     -0.1389E+05

      4 WELLS

                 RECHARGE =   0.00000    

 REUSING STREAM SEGMENT DATA FROM LAST STRESS PERIOD
 
 SOLVING FOR HEAD 


     7 CALLS TO PCG ROUTINE FOR TIME STEP   1 IN STRESS PERIOD    7
    26 TOTAL ITERATIONS

 OUTPUT CONTROL FOR STRESS PERIOD    7   TIME STEP    1
    SAVE BUDGET
    SAVE HEAD FOR ALL LAYERS
    PRINT HEAD FOR ALL LAYERS
 UBDSV2 SAVING "STREAMFLOW OUT  " ON UNIT  50 AT TIME STEP  1, STRESS PERIOD   7



 STREAM LISTING     PERIOD      7   STEP        1

 LAYER ROW COL. STREAM  RCH.  FLOW INTO     FLOW TO   FLOW OUT OF   OVRLND.     DIRECT     STREAM       STREAM     STREAM     STREAM   STREAMBED  STREAMBED
                SEG.NO.  NO.  STRM. RCH.    AQUIFER    STRM. RCH.    RUNOFF     PRECIP       ET          HEAD       DEPTH      WIDTH   CONDCTNC.   GRADIENT

   1   13    1     1     1    1.0000E+05 -1.7828E+03   1.0178E+05  0.000E+00  0.000E+00  0.000E+00  4.84068E+01  1.454E-01  2.000E+01  2.000E+04 -8.914E-02
   1   13    2     1     2    1.0178E+05 -2.7543E+03   1.0454E+05  0.000E+00  0.000E+00  0.000E+00  4.79315E+01  1.474E-01  2.000E+01  2.000E+04 -1.377E-01
   1   14    3     1     3    1.0454E+05 -4.0804E+02   1.0495E+05  0.000E+00  0.000E+00  0.000E+00  4.74555E+01  1.487E-01  2.000E+01  2.000E+04 -2.040E-02
   1   15    4     1     4    1.0495E+05 -3.7181E+02   1.0532E+05  0.000E+00  0.000E+00  0.000E+00  4.69786E+01  1.491E-01  2.000E+01  2.000E+04 -1.859E-02
   1   16    5     1     5    1.0532E+05 -1.4077E+03   1.0672E+05  0.000E+00  0.000E+00  0.000E+00  4.65021E+01  1.498E-01  2.000E+01  2.000E+04 -7.039E-02
   1   16    6     1     6    1.0672E+05 -8.9474E+02   1.0762E+05  0.000E+00  0.000E+00  0.000E+00  4.60258E+01  1.508E-01  2.000E+01  2.000E+04 -4.474E-02
   1   16    7     1     7    1.0762E+05 -8.7131E+02   1.0849E+05  0.000E+00  0.000E+00  0.000E+00  4.55493E+01  1.515E-01  2.000E+01  2.000E+04 -4.357E-02
   1   16    8     1     8    1.0849E+05 -8.4999E+02   1.0934E+05  0.000E+00  0.000E+00  0.000E+00  4.50727E+01  1.523E-01  2.000E+01  2.000E+04 -4.250E-02
   1   16    9     1     9    1.0934E+05 -8.1384E+02   1.1015E+05  0.000E+00  0.000E+00  0.000E+00  4.45961E+01  1.530E-01  2.000E+01  2.000E+04 -4.069E-02
   1   16   10     1    10    1.1015E+05 -7.5940E+02   1.1091E+05  0.000E+00  0.000E+00  0.000E+00  4.41195E+01  1.536E-01  2.000E+01  2.000E+04 -3.797E-02
   1   16   11     1    11    1.1091E+05 -6.9291E+02   1.1161E+05  0.000E+00  0.000E+00  0.000E+00  4.36429E+01  1.542E-01  2.000E+01  2.000E+04 -3.465E-02
   1   16   12     1    12    1.1161E+05 -9.7088E+02   1.1258E+05  0.000E+00  0.000E+00  0.000E+00  4.31663E+01  1.549E-01  2.000E+01  2.000E+04 -4.854E-02
   1   15   13     1    13    1.1258E+05 -6.2743E+02   1.1321E+05  0.000E+00  0.000E+00  0.000E+00  4.26897E+01  1.556E-01  2.000E+01  2.000E+04 -3.137E-02
   1   14   14     1    14    1.1321E+05  8.5449E+02   1.1235E+05  0.000E+00  0.000E+00  0.000E+00  4.22123E+01  1.555E-01  2.000E+01  2.000E+04  4.272E-02
   1   13   15     1    15    1.1235E+05  4.4762E+02   1.1190E+05  0.000E+00  0.000E+00  0.000E+00  4.17345E+01  1.549E-01  2.000E+01  2.000E+04  2.238E-02
   1   12   16     1    16    1.1190E+05 -2.1183E+03   1.1402E+05  0.000E+00  0.000E+00  0.000E+00  4.12579E+01  1.556E-01  2.000E+01  2.000E+04 -1.059E-01
   1   12   17     1    17    1.1402E+05 -1.4230E+03   1.1544E+05  0.000E+00  0.000E+00  0.000E+00  4.07821E+01  1.571E-01  2.000E+01  2.000E+04 -7.115E-02
   1   12   18     1    18    1.1544E+05 -1.2745E+03   1.1672E+05  0.000E+00  0.000E+00  0.000E+00  4.03059E+01  1.582E-01  2.000E+01  2.000E+04 -6.372E-02
   1   12   19     1    19    1.1672E+05 -1.2947E+03   1.1801E+05  0.000E+00  0.000E+00  0.000E+00  3.98297E+01  1.592E-01  2.000E+01  2.000E+04 -6.474E-02
   1   13   20     1    20    1.1801E+05 -4.5092E+02   1.1846E+05  0.000E+00  0.000E+00  0.000E+00  3.93531E+01  1.599E-01  2.000E+01  2.000E+04 -2.255E-02
   1   14   21     1    21    1.1846E+05 -3.3065E+02   1.1880E+05  0.000E+00  0.000E+00  0.000E+00  3.88762E+01  1.603E-01  2.000E+01  2.000E+04 -1.653E-02
   1   14   22     1    22    1.1880E+05  5.4154E+03   1.1338E+05  0.000E+00  0.000E+00  0.000E+00  3.83968E+01  1.582E-01  2.000E+01  2.000E+04  2.708E-01
   1    9   30     2     1    5.0000E+04  1.6549E+03   4.8345E+04  0.000E+00  0.000E+00  0.000E+00  4.02397E+01  1.147E-01  2.000E+01  2.000E+04  8.274E-02
   1    9   29     2     2    4.8345E+04  1.3014E+03   4.7044E+04  0.000E+00  0.000E+00  0.000E+00  3.99876E+01  1.126E-01  2.000E+01  2.000E+04  6.507E-02
   1    9   28     2     3    4.7044E+04  5.8066E+02   4.6463E+04  0.000E+00  0.000E+00  0.000E+00  3.97363E+01  1.113E-01  2.000E+01  2.000E+04  2.903E-02
   1    9   27     2     4    4.6463E+04 -9.7425E+02   4.7437E+04  0.000E+00  0.000E+00  0.000E+00  3.94866E+01  1.116E-01  2.000E+01  2.000E+04 -4.871E-02
   1   10   26     2     5    4.7437E+04  9.2337E+02   4.6514E+04  0.000E+00  0.000E+00  0.000E+00  3.92366E+01  1.116E-01  2.000E+01  2.000E+04  4.617E-02
   1   11   25     2     6    4.6514E+04  2.1097E+03   4.4404E+04  0.000E+00  0.000E+00  0.000E+00  3.89844E+01  1.094E-01  2.000E+01  2.000E+04  1.055E-01
   1   12   24     2     7    4.4404E+04  2.7969E+03   4.1607E+04  0.000E+00  0.000E+00  0.000E+00  3.87308E+01  1.058E-01  2.000E+01  2.000E+04  1.398E-01
   1   13   23     2     8    4.1607E+04  3.3568E+02   4.1272E+04  0.000E+00  0.000E+00  0.000E+00  3.84785E+01  1.035E-01  2.000E+01  2.000E+04  1.678E-02
   1   14   22     2     9    4.1272E+04  2.0137E+03   3.9258E+04  0.000E+00  0.000E+00  0.000E+00  3.82267E+01  1.017E-01  2.000E+01  2.000E+04  1.007E-01
   1   14   22     3     1    1.5264E+05 -8.2661E+03   1.6090E+05  0.000E+00  0.000E+00  0.000E+00  3.77128E+01  1.572E-01  2.000E+01  2.000E+04 -4.133E-01
   1   15   23     3     2    1.6090E+05 -3.1339E+02   1.6122E+05  0.000E+00  0.000E+00  0.000E+00  3.68264E+01  1.598E-01  2.000E+01  2.000E+04 -1.567E-02
   1   15   24     3     3    1.6122E+05 -1.5332E+02   1.6137E+05  0.000E+00  0.000E+00  0.000E+00  3.59377E+01  1.599E-01  2.000E+01  2.000E+04 -7.666E-03
   1   15   25     3     4    1.6137E+05 -1.2840E+02   1.6150E+05  0.000E+00  0.000E+00  0.000E+00  3.50489E+01  1.600E-01  2.000E+01  2.000E+04 -6.420E-03
   1   15   26     3     5    1.6150E+05  2.4574E+01   1.6147E+05  0.000E+00  0.000E+00  0.000E+00  3.41600E+01  1.600E-01  2.000E+01  2.000E+04  1.229E-03
   1   16   27     3     6    1.6147E+05  1.4036E+02   1.6133E+05  0.000E+00  0.000E+00  0.000E+00  3.32711E+01  1.600E-01  2.000E+01  2.000E+04  7.018E-03
   1   17   28     3     7    1.6133E+05  6.3889E+02   1.6070E+05  0.000E+00  0.000E+00  0.000E+00  3.23820E+01  1.597E-01  2.000E+01  2.000E+04  3.194E-02
   1   18   29     3     8    1.6070E+05 -1.7236E+03   1.6242E+05  0.000E+00  0.000E+00  0.000E+00  3.14934E+01  1.601E-01  2.000E+01  2.000E+04 -8.618E-02
   1   18   30     3     9    1.6242E+05 -2.0255E+03   1.6444E+05  0.000E+00  0.000E+00  0.000E+00  3.06056E+01  1.612E-01  2.000E+01  2.000E+04 -1.013E-01



1
              HEAD IN LAYER   1 AT END OF TIME STEP   1 IN STRESS PERIOD    7
  ---------------------------------------------------------------------------

          1      2      3      4      5      6      7      8      9     10
         11     12     13     14     15     16     17     18     19     20
         21     22     23     24     25     26     27     28     29     30
 .........................................................................
   1  ****** ****** ****** ****** ****** ****** ****** ****** ****** ******
      ****** ****** ****** ****** ****** ****** ****** ****** ****** ******
      ****** ****** ****** ****** ****** ****** ****** ****** ****** ******
   2  ****** ****** ****** ****** ****** ****** ****** ****** ****** ******
      ****** ****** ****** ****** ****** ****** ****** ****** ****** ******
      ****** ****** ****** ****** ****** ****** ****** ****** ****** ******
   3  ****** ****** ****** ****** ****** ****** ****** ****** ****** ******
      ****** ****** ****** ****** ****** ****** ****** ****** ****** ******
      ****** ****** ****** ****** ****** ****** ****** ****** ****** ******
   4  ****** ****** ****** ****** ****** ****** ****** ****** ****** ******
      ****** ****** ****** ****** ****** ****** ****** ****** ****** ******
      ****** ****** ****** ****** ****** ****** ****** ****** ****** ******
   5  ****** ****** ****** ****** ****** ****** ****** ****** ****** ******
      ****** ****** ****** ****** ****** ****** ****** ****** ****** ******
      ****** ****** ****** ****** ****** ****** ****** ****** ****** ******
   6  ****** ****** ****** ****** ****** ****** ****** ****** ****** ******
      ****** ****** ****** ****** ****** ****** ****** ****** ****** ******
      ****** ****** ****** ****** ****** ****** ****** ****** ****** ******
   7  ****** ****** ****** ****** ****** ****** ****** ****** ****** ******
      ****** ****** ****** ****** ****** ****** ****** ****** ****** ******
      ****** ****** ****** ****** ****** ****** ****** ****** ****** ******
   8  ****** ****** ****** ****** ****** ****** ****** ****** ****** ******
      ****** ****** ****** ****** ****** ****** ****** ****** ****** ******
      ****** ****** ****** ****** ****** ****** ****** ****** ****** ******
   9  ****** ****** ****** ****** ****** ****** ****** ****** ****** ******
      ****** ****** ****** ****** ****** ****** ****** ****** ****** ******
      ****** ****** ****** ****** ****** ****** ****** ****** ****** ******
  10  ****** ****** ****** ****** ****** ****** ****** ****** ****** ******
      ****** ****** ****** ****** ****** ****** ****** ****** ****** ******
      ****** ****** ****** ****** ****** ****** ****** ****** ****** ******
  11  ****** ****** ****** ****** ****** ****** ****** ****** ****** ******
      ****** ****** ****** ****** ****** ****** ****** ****** ****** ******
      ****** ****** ****** ****** ****** ****** ****** ****** ****** ******
  12  ****** ****** ****** ****** ****** ****** ****** ****** ****** ******
      ****** ****** ****** ****** ****** ****** ****** ****** ****** ******
      ****** ****** ****** ****** ****** ****** ****** ****** ****** ******
  13  ****** ****** ****** ****** ****** ****** ****** ****** ****** ******
      ****** ****** ****** ****** ****** ****** ****** ****** ****** ******
      ****** ****** ****** ****** ****** ****** ****** ****** ****** ******
  14  ****** ****** ****** ****** ****** ****** ****** ****** ****** ******
      ****** ****** ****** ****** ****** ****** ****** ****** ****** ******
      ****** ****** ****** ****** ****** ****** ****** ****** ****** ******
  15  ****** ****** ****** ****** ****** ****** ****** ****** ****** ******
      ****** ****** ****** ****** ****** ****** ****** ****** ****** ******
      ****** ****** ****** ****** ****** ****** ****** ****** ****** ******
  16  ****** ****** ****** ****** ****** ****** ****** ****** ****** ******
      ****** ****** ****** ****** ****** ****** ****** ****** ****** ******
      ****** ****** ****** ****** ****** ****** ****** ****** ****** ******
  17  ****** ****** ****** ****** ****** ****** ****** ****** ****** ******
      ****** ****** ****** ****** ****** ****** ****** ****** ****** ******
      ****** ****** ****** ****** ****** ****** ****** ****** ****** ******
  18  ****** ****** ****** ****** ****** ****** ****** ****** ****** ******
      ****** ****** ****** ****** ****** ****** ****** ****** ****** ******
      ****** ****** ****** ****** ****** ****** ****** ****** ****** ******
  19  ****** ****** ****** ****** ****** ****** ****** ****** ****** ******
      ****** ****** ****** ****** ****** ****** ****** ****** ****** ******
      ****** ****** ****** ****** ****** ****** ****** ****** ****** ******
  20  ****** ****** ****** ****** ****** ****** ****** ****** ****** ******
      ****** ****** ****** ****** ****** ****** ****** ****** ****** ******
      ****** ****** ****** ****** ****** ****** ****** ****** ****** ******
  21  ****** ****** ****** ****** ****** ****** ****** ****** ****** ******
      ****** ****** ****** ****** ****** ****** ****** ****** ****** ******
      ****** ****** ****** ****** ****** ****** ****** ****** ****** ******
  22  ****** ****** ****** ****** ****** ****** ****** ****** ****** ******
      ****** ****** ****** ****** ****** ****** ****** ****** ****** ******
      ****** ****** ****** ****** ****** ****** ****** ****** ****** ******
  23  ****** ****** ****** ****** ****** ****** ****** ****** ****** ******
      ****** ****** ****** ****** ****** ****** ****** ****** ****** ******
      ****** ****** ****** ****** ****** ****** ****** ****** ****** ******
  24  ****** ****** ****** ****** ****** ****** ****** ****** ****** ******
      ****** ****** ****** ****** ****** ****** ****** ****** ****** ******
      ****** ****** ****** ****** ****** ****** ****** ****** ****** ******
  25  ****** ****** ****** ****** ****** ****** ****** ****** ****** ******
      ****** ****** ****** ****** ****** ****** ****** ****** ****** ******
      ****** ****** ****** ****** ****** ****** ****** ****** ****** ******

 HEAD WILL BE SAVED ON UNIT   51 AT END OF TIME STEP    1, STRESS PERIOD    7
1
  VOLUMETRIC BUDGET FOR ENTIRE MODEL AT END OF TIME STEP    1, STRESS PERIOD   7
  ------------------------------------------------------------------------------

     CUMULATIVE VOLUMES      L**3       RATES FOR THIS TIME STEP      L**3/T
     ------------------                 ------------------------

           IN:                                      IN:
           ---                                      ---
             STORAGE =    32864555.8592               STORAGE =       22216.3153
       CONSTANT HEAD =    16010429.6587         CONSTANT HEAD =       32850.9617
               WELLS =           0.0000                 WELLS =           0.0000
            RECHARGE =    15097200.0000              RECHARGE =           0.0000
      STREAM LEAKAGE =     8001922.9322        STREAM LEAKAGE =       19237.6381

            TOTAL IN =    71974108.4500              TOTAL IN =       74304.9151

          OUT:                                     OUT:
          ----                                     ----
             STORAGE =      817935.5573               STORAGE =           0.0000
       CONSTANT HEAD =           0.0000         CONSTANT HEAD =           0.0000
               WELLS =    25958157.9258                 WELLS =       40623.0953
            RECHARGE =           0.0000              RECHARGE =           0.0000
      STREAM LEAKAGE =    45198017.5182        STREAM LEAKAGE =       33681.8254

           TOTAL OUT =    71974111.0014             TOTAL OUT =       74304.9207

            IN - OUT =          -2.5514              IN - OUT =      -5.5816E-03

 PERCENT DISCREPANCY =          -0.00     PERCENT DISCREPANCY =          -0.00






         TIME SUMMARY AT END OF TIME STEP    1 IN STRESS PERIOD    7
                    SECONDS     MINUTES      HOURS       DAYS        YEARS
                    -----------------------------------------------------------
   TIME STEP LENGTH 7.86240E+06 1.31040E+05  2184.0      91.000     0.24914    
 STRESS PERIOD TIME 7.86240E+06 1.31040E+05  2184.0      91.000     0.24914    
         TOTAL TIME 5.52096E+07 9.20160E+05  15336.      639.00      1.7495    
1
1
                            STRESS PERIOD NO.    8, LENGTH =   91.00000    
                            -----------------------------------------------

                              NUMBER OF TIME STEPS =     1

                               MULTIPLIER FOR DELT =     1.500

                            INITIAL TIME STEP SIZE =   91.00000    

 WELL NO.  LAYER   ROW   COL   STRESS RATE         
 --------------------------------------------------
      1      1     21     19      -8385.    
      2      1     13     14      -6352.    
      3      1     11     23     -0.1199E+05
      4      1     12     29     -0.1389E+05

      4 WELLS

                 RECHARGE =  1.000000E-03

 REUSING STREAM SEGMENT DATA FROM LAST STRESS PERIOD
 
 SOLVING FOR HEAD 


     6 CALLS TO PCG ROUTINE FOR TIME STEP   1 IN STRESS PERIOD    8
    22 TOTAL ITERATIONS

 OUTPUT CONTROL FOR STRESS PERIOD    8   TIME STEP    1
    SAVE BUDGET
    SAVE HEAD FOR ALL LAYERS
    PRINT HEAD FOR ALL LAYERS
 UBDSV2 SAVING "STREAMFLOW OUT  " ON UNIT  50 AT TIME STEP  1, STRESS PERIOD   8



 STREAM LISTING     PERIOD      8   STEP        1

 LAYER ROW COL. STREAM  RCH.  FLOW INTO     FLOW TO   FLOW OUT OF   OVRLND.     DIRECT     STREAM       STREAM     STREAM     STREAM   STREAMBED  STREAMBED
                SEG.NO.  NO.  STRM. RCH.    AQUIFER    STRM. RCH.    RUNOFF     PRECIP       ET          HEAD       DEPTH      WIDTH   CONDCTNC.   GRADIENT

   1   13    1     1     1    1.0000E+05 -1.8603E+03   1.0186E+05  0.000E+00  0.000E+00  0.000E+00  4.84068E+01  1.455E-01  2.000E+01  2.000E+04 -9.301E-02
   1   13    2     1     2    1.0186E+05 -2.8321E+03   1.0469E+05  0.000E+00  0.000E+00  0.000E+00  4.79316E+01  1.475E-01  2.000E+01  2.000E+04 -1.416E-01
   1   14    3     1     3    1.0469E+05 -4.7265E+02   1.0517E+05  0.000E+00  0.000E+00  0.000E+00  4.74557E+01  1.489E-01  2.000E+01  2.000E+04 -2.363E-02
   1   15    4     1     4    1.0517E+05 -4.4086E+02   1.0561E+05  0.000E+00  0.000E+00  0.000E+00  4.69788E+01  1.493E-01  2.000E+01  2.000E+04 -2.204E-02
   1   16    5     1     5    1.0561E+05 -1.5810E+03   1.0719E+05  0.000E+00  0.000E+00  0.000E+00  4.65024E+01  1.501E-01  2.000E+01  2.000E+04 -7.905E-02
   1   16    6     1     6    1.0719E+05 -1.0016E+03   1.0819E+05  0.000E+00  0.000E+00  0.000E+00  4.60262E+01  1.512E-01  2.000E+01  2.000E+04 -5.008E-02
   1   16    7     1     7    1.0819E+05 -9.7315E+02   1.0916E+05  0.000E+00  0.000E+00  0.000E+00  4.55498E+01  1.521E-01  2.000E+01  2.000E+04 -4.866E-02
   1   16    8     1     8    1.0916E+05 -9.5093E+02   1.1011E+05  0.000E+00  0.000E+00  0.000E+00  4.50733E+01  1.529E-01  2.000E+01  2.000E+04 -4.755E-02
   1   16    9     1     9    1.1011E+05 -9.1582E+02   1.1103E+05  0.000E+00  0.000E+00  0.000E+00  4.45968E+01  1.536E-01  2.000E+01  2.000E+04 -4.579E-02
   1   16   10     1    10    1.1103E+05 -8.6371E+02   1.1189E+05  0.000E+00  0.000E+00  0.000E+00  4.41203E+01  1.544E-01  2.000E+01  2.000E+04 -4.319E-02
   1   16   11     1    11    1.1189E+05 -8.0000E+02   1.1269E+05  0.000E+00  0.000E+00  0.000E+00  4.36437E+01  1.551E-01  2.000E+01  2.000E+04 -4.000E-02
   1   16   12     1    12    1.1269E+05 -1.1308E+03   1.1382E+05  0.000E+00  0.000E+00  0.000E+00  4.31672E+01  1.559E-01  2.000E+01  2.000E+04 -5.654E-02
   1   15   13     1    13    1.1382E+05 -7.9555E+02   1.1462E+05  0.000E+00  0.000E+00  0.000E+00  4.26908E+01  1.567E-01  2.000E+01  2.000E+04 -3.978E-02
   1   14   14     1    14    1.1462E+05  6.9253E+02   1.1393E+05  0.000E+00  0.000E+00  0.000E+00  4.22135E+01  1.567E-01  2.000E+01  2.000E+04  3.463E-02
   1   13   15     1    15    1.1393E+05  2.9777E+02   1.1363E+05  0.000E+00  0.000E+00  0.000E+00  4.17358E+01  1.563E-01  2.000E+01  2.000E+04  1.489E-02
   1   12   16     1    16    1.1363E+05 -2.2315E+03   1.1586E+05  0.000E+00  0.000E+00  0.000E+00  4.12594E+01  1.571E-01  2.000E+01  2.000E+04 -1.116E-01
   1   12   17     1    17    1.1586E+05 -1.5350E+03   1.1739E+05  0.000E+00  0.000E+00  0.000E+00  4.07836E+01  1.586E-01  2.000E+01  2.000E+04 -7.675E-02
   1   12   18     1    18    1.1739E+05 -1.3929E+03   1.1879E+05  0.000E+00  0.000E+00  0.000E+00  4.03076E+01  1.598E-01  2.000E+01  2.000E+04 -6.965E-02
   1   12   19     1    19    1.1879E+05 -1.4444E+03   1.2023E+05  0.000E+00  0.000E+00  0.000E+00  3.98314E+01  1.610E-01  2.000E+01  2.000E+04 -7.222E-02
   1   13   20     1    20    1.2023E+05 -6.2832E+02   1.2086E+05  0.000E+00  0.000E+00  0.000E+00  3.93550E+01  1.618E-01  2.000E+01  2.000E+04 -3.142E-02
   1   14   21     1    21    1.2086E+05 -4.8700E+02   1.2135E+05  0.000E+00  0.000E+00  0.000E+00  3.88782E+01  1.623E-01  2.000E+01  2.000E+04 -2.435E-02
   1   14   22     1    22    1.2135E+05  5.3663E+03   1.1598E+05  0.000E+00  0.000E+00  0.000E+00  3.83989E+01  1.603E-01  2.000E+01  2.000E+04  2.683E-01
   1    9   30     2     1    5.0000E+04  1.4914E+03   4.8509E+04  0.000E+00  0.000E+00  0.000E+00  4.02398E+01  1.148E-01  2.000E+01  2.000E+04  7.457E-02
   1    9   29     2     2    4.8509E+04  1.1407E+03   4.7368E+04  0.000E+00  0.000E+00  0.000E+00  3.99880E+01  1.130E-01  2.000E+01  2.000E+04  5.703E-02
   1    9   28     2     3    4.7368E+04  4.2547E+02   4.6942E+04  0.000E+00  0.000E+00  0.000E+00  3.97369E+01  1.119E-01  2.000E+01  2.000E+04  2.127E-02
   1    9   27     2     4    4.6942E+04 -1.1530E+03   4.8095E+04  0.000E+00  0.000E+00  0.000E+00  3.94874E+01  1.124E-01  2.000E+01  2.000E+04 -5.765E-02
   1   10   26     2     5    4.8095E+04  7.1765E+02   4.7378E+04  0.000E+00  0.000E+00  0.000E+00  3.92377E+01  1.127E-01  2.000E+01  2.000E+04  3.588E-02
   1   11   25     2     6    4.7378E+04  1.9056E+03   4.5472E+04  0.000E+00  0.000E+00  0.000E+00  3.89858E+01  1.108E-01  2.000E+01  2.000E+04  9.528E-02
   1   12   24     2     7    4.5472E+04  2.6117E+03   4.2861E+04  0.000E+00  0.000E+00  0.000E+00  3.87326E+01  1.076E-01  2.000E+01  2.000E+04  1.306E-01
   1   13   23     2     8    4.2861E+04  2.6140E+02   4.2599E+04  0.000E+00  0.000E+00  0.000E+00  3.84804E+01  1.054E-01  2.000E+01  2.000E+04  1.307E-02
   1   14   22     2     9    4.2599E+04  1.9634E+03   4.0636E+04  0.000E+00  0.000E+00  0.000E+00  3.82288E+01  1.038E-01  2.000E+01  2.000E+04  9.817E-02
   1   14   22     3     1    1.5662E+05 -8.3093E+03   1.6493E+05  0.000E+00  0.000E+00  0.000E+00  3.77152E+01  1.596E-01  2.000E+01  2.000E+04 -4.155E-01
   1   15   23     3     2    1.6493E+05 -3.7694E+02   1.6530E+05  0.000E+00  0.000E+00  0.000E+00  3.68288E+01  1.622E-01  2.000E+01  2.000E+04 -1.885E-02
   1   15   24     3     3    1.6530E+05 -2.1344E+02   1.6552E+05  0.000E+00  0.000E+00  0.000E+00  3.59401E+01  1.623E-01  2.000E+01  2.000E+04 -1.067E-02
   1   15   25     3     4    1.6552E+05 -1.9028E+02   1.6571E+05  0.000E+00  0.000E+00  0.000E+00  3.50514E+01  1.625E-01  2.000E+01  2.000E+04 -9.514E-03
   1   15   26     3     5    1.6571E+05 -4.9832E+01   1.6576E+05  0.000E+00  0.000E+00  0.000E+00  3.41625E+01  1.625E-01  2.000E+01  2.000E+04 -2.492E-03
   1   16   27     3     6    1.6576E+05  5.8960E+01   1.6570E+05  0.000E+00  0.000E+00  0.000E+00  3.32736E+01  1.625E-01  2.000E+01  2.000E+04  2.948E-03
   1   17   28     3     7    1.6570E+05  4.3661E+02   1.6526E+05  0.000E+00  0.000E+00  0.000E+00  3.23846E+01  1.624E-01  2.000E+01  2.000E+04  2.183E-02
   1   18   29     3     8    1.6526E+05 -1.8861E+03   1.6715E+05  0.000E+00  0.000E+00  0.000E+00  3.14961E+01  1.628E-01  2.000E+01  2.000E+04 -9.430E-02
   1   18   30     3     9    1.6715E+05 -2.1704E+03   1.6932E+05  0.000E+00  0.000E+00  0.000E+00  3.06084E+01  1.640E-01  2.000E+01  2.000E+04 -1.085E-01



1
              HEAD IN LAYER   1 AT END OF TIME STEP   1 IN STRESS PERIOD    8
  ---------------------------------------------------------------------------

          1      2      3      4      5      6      7      8      9     10
         11     12     13     14     15     16     17     18     19     20
         21     22     23     24     25     26     27     28     29     30
 .........................................................................
   1  ****** ****** ****** ****** ****** ****** ****** ****** ****** ******
      ****** ****** ****** ****** ****** ****** ****** ****** ****** ******
      ****** ****** ****** ****** ****** ****** ****** ****** ****** ******
   2  ****** ****** ****** ****** ****** ****** ****** ****** ****** ******
      ****** ****** ****** ****** ****** ****** ****** ****** ****** ******
      ****** ****** ****** ****** ****** ****** ****** ****** ****** ******
   3  ****** ****** ****** ****** ****** ****** ****** ****** ****** ******
      ****** ****** ****** ****** ****** ****** ****** ****** ****** ******
      ****** ****** ****** ****** ****** ****** ****** ****** ****** ******
   4  ****** ****** ****** ****** ****** ****** ****** ****** ****** ******
      ****** ****** ****** ****** ****** ****** ****** ****** ****** ******
      ****** ****** ****** ****** ****** ****** ****** ****** ****** ******
   5  ****** ****** ****** ****** ****** ****** ****** ****** ****** ******
      ****** ****** ****** ****** ****** ****** ****** ****** ****** ******
      ****** ****** ****** ****** ****** ****** ****** ****** ****** ******
   6  ****** ****** ****** ****** ****** ****** ****** ****** ****** ******
      ****** ****** ****** ****** ****** ****** ****** ****** ****** ******
      ****** ****** ****** ****** ****** ****** ****** ****** ****** ******
   7  ****** ****** ****** ****** ****** ****** ****** ****** ****** ******
      ****** ****** ****** ****** ****** ****** ****** ****** ****** ******
      ****** ****** ****** ****** ****** ****** ****** ****** ****** ******
   8  ****** ****** ****** ****** ****** ****** ****** ****** ****** ******
      ****** ****** ****** ****** ****** ****** ****** ****** ****** ******
      ****** ****** ****** ****** ****** ****** ****** ****** ****** ******
   9  ****** ****** ****** ****** ****** ****** ****** ****** ****** ******
      ****** ****** ****** ****** ****** ****** ****** ****** ****** ******
      ****** ****** ****** ****** ****** ****** ****** ****** ****** ******
  10  ****** ****** ****** ****** ****** ****** ****** ****** ****** ******
      ****** ****** ****** ****** ****** ****** ****** ****** ****** ******
      ****** ****** ****** ****** ****** ****** ****** ****** ****** ******
  11  ****** ****** ****** ****** ****** ****** ****** ****** ****** ******
      ****** ****** ****** ****** ****** ****** ****** ****** ****** ******
      ****** ****** ****** ****** ****** ****** ****** ****** ****** ******
  12  ****** ****** ****** ****** ****** ****** ****** ****** ****** ******
      ****** ****** ****** ****** ****** ****** ****** ****** ****** ******
      ****** ****** ****** ****** ****** ****** ****** ****** ****** ******
  13  ****** ****** ****** ****** ****** ****** ****** ****** ****** ******
      ****** ****** ****** ****** ****** ****** ****** ****** ****** ******
      ****** ****** ****** ****** ****** ****** ****** ****** ****** ******
  14  ****** ****** ****** ****** ****** ****** ****** ****** ****** ******
      ****** ****** ****** ****** ****** ****** ****** ****** ****** ******
      ****** ****** ****** ****** ****** ****** ****** ****** ****** ******
  15  ****** ****** ****** ****** ****** ****** ****** ****** ****** ******
      ****** ****** ****** ****** ****** ****** ****** ****** ****** ******
      ****** ****** ****** ****** ****** ****** ****** ****** ****** ******
  16  ****** ****** ****** ****** ****** ****** ****** ****** ****** ******
      ****** ****** ****** ****** ****** ****** ****** ****** ****** ******
      ****** ****** ****** ****** ****** ****** ****** ****** ****** ******
  17  ****** ****** ****** ****** ****** ****** ****** ****** ****** ******
      ****** ****** ****** ****** ****** ****** ****** ****** ****** ******
      ****** ****** ****** ****** ****** ****** ****** ****** ****** ******
  18  ****** ****** ****** ****** ****** ****** ****** ****** ****** ******
      ****** ****** ****** ****** ****** ****** ****** ****** ****** ******
      ****** ****** ****** ****** ****** ****** ****** ****** ****** ******
  19  ****** ****** ****** ****** ****** ****** ****** ****** ****** ******
      ****** ****** ****** ****** ****** ****** ****** ****** ****** ******
      ****** ****** ****** ****** ****** ****** ****** ****** ****** ******
  20  ****** ****** ****** ****** ****** ****** ****** ****** ****** ******
      ****** ****** ****** ****** ****** ****** ****** ****** ****** ******
      ****** ****** ****** ****** ****** ****** ****** ****** ****** ******
  21  ****** ****** ****** ****** ****** ****** ****** ****** ****** ******
      ****** ****** ****** ****** ****** ****** ****** ****** ****** ******
      ****** ****** ****** ****** ****** ****** ****** ****** ****** ******
  22  ****** ****** ****** ****** ****** ****** ****** ****** ****** ******
      ****** ****** ****** ****** ****** ****** ****** ****** ****** ******
      ****** ****** ****** ****** ****** ****** ****** ****** ****** ******
  23  ****** ****** ****** ****** ****** ****** ****** ****** ****** ******
      ****** ****** ****** ****** ****** ****** ****** ****** ****** ******
      ****** ****** ****** ****** ****** ****** ****** ****** ****** ******
  24  ****** ****** ****** ****** ****** ****** ****** ****** ****** ******
      ****** ****** ****** ****** ****** ****** ****** ****** ****** ******
      ****** ****** ****** ****** ****** ****** ****** ****** ****** ******
  25  ****** ****** ****** ****** ****** ****** ****** ****** ****** ******
      ****** ****** ****** ****** ****** ****** ****** ****** ****** ******
      ****** ****** ****** ****** ****** ****** ****** ****** ****** ******

 HEAD WILL BE SAVED ON UNIT   51 AT END OF TIME STEP    1, STRESS PERIOD    8
1
  VOLUMETRIC BUDGET FOR ENTIRE MODEL AT END OF TIME STEP    1, STRESS PERIOD   8
  ------------------------------------------------------------------------------

     CUMULATIVE VOLUMES      L**3       RATES FOR THIS TIME STEP      L**3/T
     ------------------                 ------------------------

           IN:                                      IN:
           ---                                      ---
             STORAGE =    32987211.6489               STORAGE =        1347.8658
       CONSTANT HEAD =    18971957.1083         CONSTANT HEAD =       32544.2577
               WELLS =           0.0000                 WELLS =           0.0000
            RECHARGE =    17608800.0000              RECHARGE =       27600.0000
      STREAM LEAKAGE =     9582535.7833        STREAM LEAKAGE =       17369.3720

            TOTAL IN =    79150504.5405              TOTAL IN =       78861.4955

          OUT:                                     OUT:
          ----                                     ----
             STORAGE =      959139.0976               STORAGE =        1551.6873
       CONSTANT HEAD =           0.0000         CONSTANT HEAD =           0.0000
               WELLS =    29654859.6023                 WELLS =       40623.0953
            RECHARGE =           0.0000              RECHARGE =           0.0000
      STREAM LEAKAGE =    48536507.6126        STREAM LEAKAGE =       36686.7043

           TOTAL OUT =    79150506.3125             TOTAL OUT =       78861.4869

            IN - OUT =          -1.7720              IN - OUT =       8.5645E-03

 PERCENT DISCREPANCY =          -0.00     PERCENT DISCREPANCY =           0.00






         TIME SUMMARY AT END OF TIME STEP    1 IN STRESS PERIOD    8
                    SECONDS     MINUTES      HOURS       DAYS        YEARS
                    -----------------------------------------------------------
   TIME STEP LENGTH 7.86240E+06 1.31040E+05  2184.0      91.000     0.24914    
 STRESS PERIOD TIME 7.86240E+06 1.31040E+05  2184.0      91.000     0.24914    
         TOTAL TIME 6.30720E+07 1.05120E+06  17520.      730.00      1.9986    
1
1
                            STRESS PERIOD NO.    9, LENGTH =   92.00000    
                            -----------------------------------------------

                              NUMBER OF TIME STEPS =     1

                               MULTIPLIER FOR DELT =     1.500

                            INITIAL TIME STEP SIZE =   92.00000    

 WELL NO.  LAYER   ROW   COL   STRESS RATE         
 --------------------------------------------------
      1      1     21     19      -8385.    
      2      1     13     14      -6352.    
      3      1     11     23     -0.1199E+05
      4      1     12     29     -0.1389E+05

      4 WELLS

                 RECHARGE =  5.000000E-04

 REUSING STREAM SEGMENT DATA FROM LAST STRESS PERIOD
 
 SOLVING FOR HEAD 


     6 CALLS TO PCG ROUTINE FOR TIME STEP   1 IN STRESS PERIOD    9
    23 TOTAL ITERATIONS

 OUTPUT CONTROL FOR STRESS PERIOD    9   TIME STEP    1
    SAVE BUDGET
    SAVE HEAD FOR ALL LAYERS
    PRINT HEAD FOR ALL LAYERS
 UBDSV2 SAVING "STREAMFLOW OUT  " ON UNIT  50 AT TIME STEP  1, STRESS PERIOD   9



 STREAM LISTING     PERIOD      9   STEP        1

 LAYER ROW COL. STREAM  RCH.  FLOW INTO     FLOW TO   FLOW OUT OF   OVRLND.     DIRECT     STREAM       STREAM     STREAM     STREAM   STREAMBED  STREAMBED
                SEG.NO.  NO.  STRM. RCH.    AQUIFER    STRM. RCH.    RUNOFF     PRECIP       ET          HEAD       DEPTH      WIDTH   CONDCTNC.   GRADIENT

   1   13    1     1     1    1.0000E+05 -1.6490E+03   1.0165E+05  0.000E+00  0.000E+00  0.000E+00  4.84067E+01  1.454E-01  2.000E+01  2.000E+04 -8.245E-02
   1   13    2     1     2    1.0165E+05 -2.5929E+03   1.0424E+05  0.000E+00  0.000E+00  0.000E+00  4.79313E+01  1.472E-01  2.000E+01  2.000E+04 -1.296E-01
   1   14    3     1     3    1.0424E+05 -4.0231E+02   1.0464E+05  0.000E+00  0.000E+00  0.000E+00  4.74553E+01  1.485E-01  2.000E+01  2.000E+04 -2.012E-02
   1   15    4     1     4    1.0464E+05 -3.6937E+02   1.0501E+05  0.000E+00  0.000E+00  0.000E+00  4.69783E+01  1.488E-01  2.000E+01  2.000E+04 -1.847E-02
   1   16    5     1     5    1.0501E+05 -1.3884E+03   1.0640E+05  0.000E+00  0.000E+00  0.000E+00  4.65018E+01  1.496E-01  2.000E+01  2.000E+04 -6.942E-02
   1   16    6     1     6    1.0640E+05 -8.8168E+02   1.0728E+05  0.000E+00  0.000E+00  0.000E+00  4.60255E+01  1.505E-01  2.000E+01  2.000E+04 -4.408E-02
   1   16    7     1     7    1.0728E+05 -8.5702E+02   1.0814E+05  0.000E+00  0.000E+00  0.000E+00  4.55490E+01  1.512E-01  2.000E+01  2.000E+04 -4.285E-02
   1   16    8     1     8    1.0814E+05 -8.3630E+02   1.0898E+05  0.000E+00  0.000E+00  0.000E+00  4.50724E+01  1.520E-01  2.000E+01  2.000E+04 -4.182E-02
   1   16    9     1     9    1.0898E+05 -8.0273E+02   1.0978E+05  0.000E+00  0.000E+00  0.000E+00  4.45958E+01  1.526E-01  2.000E+01  2.000E+04 -4.014E-02
   1   16   10     1    10    1.0978E+05 -7.5250E+02   1.1053E+05  0.000E+00  0.000E+00  0.000E+00  4.41192E+01  1.533E-01  2.000E+01  2.000E+04 -3.763E-02
   1   16   11     1    11    1.1053E+05 -6.8962E+02   1.1122E+05  0.000E+00  0.000E+00  0.000E+00  4.36425E+01  1.539E-01  2.000E+01  2.000E+04 -3.448E-02
   1   16   12     1    12    1.1122E+05 -9.4193E+02   1.1216E+05  0.000E+00  0.000E+00  0.000E+00  4.31659E+01  1.546E-01  2.000E+01  2.000E+04 -4.710E-02
   1   15   13     1    13    1.1216E+05 -5.8639E+02   1.1275E+05  0.000E+00  0.000E+00  0.000E+00  4.26893E+01  1.552E-01  2.000E+01  2.000E+04 -2.932E-02
   1   14   14     1    14    1.1275E+05  9.1444E+02   1.1184E+05  0.000E+00  0.000E+00  0.000E+00  4.22119E+01  1.551E-01  2.000E+01  2.000E+04  4.572E-02
   1   13   15     1    15    1.1184E+05  5.2488E+02   1.1131E+05  0.000E+00  0.000E+00  0.000E+00  4.17340E+01  1.545E-01  2.000E+01  2.000E+04  2.624E-02
   1   12   16     1    16    1.1131E+05 -1.9973E+03   1.1331E+05  0.000E+00  0.000E+00  0.000E+00  4.12574E+01  1.551E-01  2.000E+01  2.000E+04 -9.986E-02
   1   12   17     1    17    1.1331E+05 -1.3735E+03   1.1468E+05  0.000E+00  0.000E+00  0.000E+00  4.07815E+01  1.565E-01  2.000E+01  2.000E+04 -6.868E-02
   1   12   18     1    18    1.1468E+05 -1.2387E+03   1.1592E+05  0.000E+00  0.000E+00  0.000E+00  4.03053E+01  1.576E-01  2.000E+01  2.000E+04 -6.193E-02
   1   12   19     1    19    1.1592E+05 -1.2588E+03   1.1718E+05  0.000E+00  0.000E+00  0.000E+00  3.98290E+01  1.586E-01  2.000E+01  2.000E+04 -6.294E-02
   1   13   20     1    20    1.1718E+05 -4.5487E+02   1.1763E+05  0.000E+00  0.000E+00  0.000E+00  3.93525E+01  1.593E-01  2.000E+01  2.000E+04 -2.274E-02
   1   14   21     1    21    1.1763E+05 -3.1449E+02   1.1795E+05  0.000E+00  0.000E+00  0.000E+00  3.88755E+01  1.596E-01  2.000E+01  2.000E+04 -1.572E-02
   1   14   22     1    22    1.1795E+05  5.4063E+03   1.1254E+05  0.000E+00  0.000E+00  0.000E+00  3.83961E+01  1.575E-01  2.000E+01  2.000E+04  2.703E-01
   1    9   30     2     1    5.0000E+04  1.6144E+03   4.8386E+04  0.000E+00  0.000E+00  0.000E+00  4.02397E+01  1.147E-01  2.000E+01  2.000E+04  8.072E-02
   1    9   29     2     2    4.8386E+04  1.2638E+03   4.7122E+04  0.000E+00  0.000E+00  0.000E+00  3.99877E+01  1.127E-01  2.000E+01  2.000E+04  6.319E-02
   1    9   28     2     3    4.7122E+04  5.5045E+02   4.6571E+04  0.000E+00  0.000E+00  0.000E+00  3.97364E+01  1.114E-01  2.000E+01  2.000E+04  2.752E-02
   1    9   27     2     4    4.6571E+04 -9.7747E+02   4.7549E+04  0.000E+00  0.000E+00  0.000E+00  3.94867E+01  1.117E-01  2.000E+01  2.000E+04 -4.887E-02
   1   10   26     2     5    4.7549E+04  8.9049E+02   4.6658E+04  0.000E+00  0.000E+00  0.000E+00  3.92368E+01  1.118E-01  2.000E+01  2.000E+04  4.452E-02
   1   11   25     2     6    4.6658E+04  2.0710E+03   4.4587E+04  0.000E+00  0.000E+00  0.000E+00  3.89847E+01  1.097E-01  2.000E+01  2.000E+04  1.035E-01
   1   12   24     2     7    4.4587E+04  2.7636E+03   4.1824E+04  0.000E+00  0.000E+00  0.000E+00  3.87311E+01  1.061E-01  2.000E+01  2.000E+04  1.382E-01
   1   13   23     2     8    4.1824E+04  3.0836E+02   4.1515E+04  0.000E+00  0.000E+00  0.000E+00  3.84789E+01  1.039E-01  2.000E+01  2.000E+04  1.542E-02
   1   14   22     2     9    4.1515E+04  2.0256E+03   3.9490E+04  0.000E+00  0.000E+00  0.000E+00  3.82271E+01  1.021E-01  2.000E+01  2.000E+04  1.013E-01
   1   14   22     3     1    1.5203E+05 -8.2687E+03   1.6030E+05  0.000E+00  0.000E+00  0.000E+00  3.77124E+01  1.568E-01  2.000E+01  2.000E+04 -4.134E-01
   1   15   23     3     2    1.6030E+05 -3.2410E+02   1.6062E+05  0.000E+00  0.000E+00  0.000E+00  3.68261E+01  1.594E-01  2.000E+01  2.000E+04 -1.621E-02
   1   15   24     3     3    1.6062E+05 -1.7028E+02   1.6080E+05  0.000E+00  0.000E+00  0.000E+00  3.59373E+01  1.596E-01  2.000E+01  2.000E+04 -8.514E-03
   1   15   25     3     4    1.6080E+05 -1.4688E+02   1.6094E+05  0.000E+00  0.000E+00  0.000E+00  3.50485E+01  1.597E-01  2.000E+01  2.000E+04 -7.344E-03
   1   15   26     3     5    1.6094E+05 -2.1563E+00   1.6094E+05  0.000E+00  0.000E+00  0.000E+00  3.41597E+01  1.597E-01  2.000E+01  2.000E+04 -1.078E-04
   1   16   27     3     6    1.6094E+05  1.1512E+02   1.6083E+05  0.000E+00  0.000E+00  0.000E+00  3.32708E+01  1.597E-01  2.000E+01  2.000E+04  5.756E-03
   1   17   28     3     7    1.6083E+05  5.9070E+02   1.6024E+05  0.000E+00  0.000E+00  0.000E+00  3.23817E+01  1.595E-01  2.000E+01  2.000E+04  2.953E-02
   1   18   29     3     8    1.6024E+05 -1.7089E+03   1.6195E+05  0.000E+00  0.000E+00  0.000E+00  3.14931E+01  1.598E-01  2.000E+01  2.000E+04 -8.545E-02
   1   18   30     3     9    1.6195E+05 -2.0374E+03   1.6398E+05  0.000E+00  0.000E+00  0.000E+00  3.06053E+01  1.609E-01  2.000E+01  2.000E+04 -1.019E-01



1
              HEAD IN LAYER   1 AT END OF TIME STEP   1 IN STRESS PERIOD    9
  ---------------------------------------------------------------------------

          1      2      3      4      5      6      7      8      9     10
         11     12     13     14     15     16     17     18     19     20
         21     22     23     24     25     26     27     28     29     30
 .........................................................................
   1  ****** ****** ****** ****** ****** ****** ****** ****** ****** ******
      ****** ****** ****** ****** ****** ****** ****** ****** ****** ******
      ****** ****** ****** ****** ****** ****** ****** ****** ****** ******
   2  ****** ****** ****** ****** ****** ****** ****** ****** ****** ******
      ****** ****** ****** ****** ****** ****** ****** ****** ****** ******
      ****** ****** ****** ****** ****** ****** ****** ****** ****** ******
   3  ****** ****** ****** ****** ****** ****** ****** ****** ****** ******
      ****** ****** ****** ****** ****** ****** ****** ****** ****** ******
      ****** ****** ****** ****** ****** ****** ****** ****** ****** ******
   4  ****** ****** ****** ****** ****** ****** ****** ****** ****** ******
      ****** ****** ****** ****** ****** ****** ****** ****** ****** ******
      ****** ****** ****** ****** ****** ****** ****** ****** ****** ******
   5  ****** ****** ****** ****** ****** ****** ****** ****** ****** ******
      ****** ****** ****** ****** ****** ****** ****** ****** ****** ******
      ****** ****** ****** ****** ****** ****** ****** ****** ****** ******
   6  ****** ****** ****** ****** ****** ****** ****** ****** ****** ******
      ****** ****** ****** ****** ****** ****** ****** ****** ****** ******
      ****** ****** ****** ****** ****** ****** ****** ****** ****** ******
   7  ****** ****** ****** ****** ****** ****** ****** ****** ****** ******
      ****** ****** ****** ****** ****** ****** ****** ****** ****** ******
      ****** ****** ****** ****** ****** ****** ****** ****** ****** ******
   8  ****** ****** ****** ****** ****** ****** ****** ****** ****** ******
      ****** ****** ****** ****** ****** ****** ****** ****** ****** ******
      ****** ****** ****** ****** ****** ****** ****** ****** ****** ******
   9  ****** ****** ****** ****** ****** ****** ****** ****** ****** ******
      ****** ****** ****** ****** ****** ****** ****** ****** ****** ******
      ****** ****** ****** ****** ****** ****** ****** ****** ****** ******
  10  ****** ****** ****** ****** ****** ****** ****** ****** ****** ******
      ****** ****** ****** ****** ****** ****** ****** ****** ****** ******
      ****** ****** ****** ****** ****** ****** ****** ****** ****** ******
  11  ****** ****** ****** ****** ****** ****** ****** ****** ****** ******
      ****** ****** ****** ****** ****** ****** ****** ****** ****** ******
      ****** ****** ****** ****** ****** ****** ****** ****** ****** ******
  12  ****** ****** ****** ****** ****** ****** ****** ****** ****** ******
      ****** ****** ****** ****** ****** ****** ****** ****** ****** ******
      ****** ****** ****** ****** ****** ****** ****** ****** ****** ******
  13  ****** ****** ****** ****** ****** ****** ****** ****** ****** ******
      ****** ****** ****** ****** ****** ****** ****** ****** ****** ******
      ****** ****** ****** ****** ****** ****** ****** ****** ****** ******
  14  ****** ****** ****** ****** ****** ****** ****** ****** ****** ******
      ****** ****** ****** ****** ****** ****** ****** ****** ****** ******
      ****** ****** ****** ****** ****** ****** ****** ****** ****** ******
  15  ****** ****** ****** ****** ****** ****** ****** ****** ****** ******
      ****** ****** ****** ****** ****** ****** ****** ****** ****** ******
      ****** ****** ****** ****** ****** ****** ****** ****** ****** ******
  16  ****** ****** ****** ****** ****** ****** ****** ****** ****** ******
      ****** ****** ****** ****** ****** ****** ****** ****** ****** ******
      ****** ****** ****** ****** ****** ****** ****** ****** ****** ******
  17  ****** ****** ****** ****** ****** ****** ****** ****** ****** ******
      ****** ****** ****** ****** ****** ****** ****** ****** ****** ******
      ****** ****** ****** ****** ****** ****** ****** ****** ****** ******
  18  ****** ****** ****** ****** ****** ****** ****** ****** ****** ******
      ****** ****** ****** ****** ****** ****** ****** ****** ****** ******
      ****** ****** ****** ****** ****** ****** ****** ****** ****** ******
  19  ****** ****** ****** ****** ****** ****** ****** ****** ****** ******
      ****** ****** ****** ****** ****** ****** ****** ****** ****** ******
      ****** ****** ****** ****** ****** ****** ****** ****** ****** ******
  20  ****** ****** ****** ****** ****** ****** ****** ****** ****** ******
      ****** ****** ****** ****** ****** ****** ****** ****** ****** ******
      ****** ****** ****** ****** ****** ****** ****** ****** ****** ******
  21  ****** ****** ****** ****** ****** ****** ****** ****** ****** ******
      ****** ****** ****** ****** ****** ****** ****** ****** ****** ******
      ****** ****** ****** ****** ****** ****** ****** ****** ****** ******
  22  ****** ****** ****** ****** ****** ****** ****** ****** ****** ******
      ****** ****** ****** ****** ****** ****** ****** ****** ****** ******
      ****** ****** ****** ****** ****** ****** ****** ****** ****** ******
  23  ****** ****** ****** ****** ****** ****** ****** ****** ****** ******
      ****** ****** ****** ****** ****** ****** ****** ****** ****** ******
      ****** ****** ****** ****** ****** ****** ****** ****** ****** ******
  24  ****** ****** ****** ****** ****** ****** ****** ****** ****** ******
      ****** ****** ****** ****** ****** ****** ****** ****** ****** ******
      ****** ****** ****** ****** ****** ****** ****** ****** ****** ******
  25  ****** ****** ****** ****** ****** ****** ****** ****** ****** ******
      ****** ****** ****** ****** ****** ****** ****** ****** ****** ******
      ****** ****** ****** ****** ****** ****** ****** ****** ****** ******

 HEAD WILL BE SAVED ON UNIT   51 AT END OF TIME STEP    1, STRESS PERIOD    9
1
  VOLUMETRIC BUDGET FOR ENTIRE MODEL AT END OF TIME STEP    1, STRESS PERIOD   9
  ------------------------------------------------------------------------------

     CUMULATIVE VOLUMES      L**3       RATES FOR THIS TIME STEP      L**3/T
     ------------------                 ------------------------

           IN:                                      IN:
           ---                                      ---
             STORAGE =    33641049.3464               STORAGE =        7106.9315
       CONSTANT HEAD =    22072427.2227         CONSTANT HEAD =       33700.7621
               WELLS =           0.0000                 WELLS =           0.0000
            RECHARGE =    18878400.0000              RECHARGE =       13800.0000
      STREAM LEAKAGE =    11334133.3593        STREAM LEAKAGE =       19039.1041

            TOTAL IN =    85926009.9284              TOTAL IN =       73646.7977

          OUT:                                     OUT:
          ----                                     ----
             STORAGE =      959139.0976               STORAGE =           0.0000
       CONSTANT HEAD =           0.0000         CONSTANT HEAD =           0.0000
               WELLS =    33392184.3741                 WELLS =       40623.0953
            RECHARGE =           0.0000              RECHARGE =           0.0000
      STREAM LEAKAGE =    51574688.2992        STREAM LEAKAGE =       33023.7031

           TOTAL OUT =    85926011.7709             TOTAL OUT =       73646.7985

            IN - OUT =          -1.8425              IN - OUT =      -7.6638E-04

 PERCENT DISCREPANCY =          -0.00     PERCENT DISCREPANCY =          -0.00






         TIME SUMMARY AT END OF TIME STEP    1 IN STRESS PERIOD    9
                    SECONDS     MINUTES      HOURS       DAYS        YEARS
                    -----------------------------------------------------------
   TIME STEP LENGTH 7.94880E+06 1.32480E+05  2208.0      92.000     0.25188    
 STRESS PERIOD TIME 7.94880E+06 1.32480E+05  2208.0      92.000     0.25188    
         TOTAL TIME 7.10208E+07 1.18368E+06  19728.      822.00      2.2505    
1
1
                            STRESS PERIOD NO.   10, LENGTH =   91.00000    
                            -----------------------------------------------

                              NUMBER OF TIME STEPS =     1

                               MULTIPLIER FOR DELT =     1.500

                            INITIAL TIME STEP SIZE =   91.00000    

 WELL NO.  LAYER   ROW   COL   STRESS RATE         
 --------------------------------------------------
      1      1     21     19      -8385.    
      2      1     13     14      -6352.    
      3      1     11     23     -0.1199E+05
      4      1     12     29     -0.1389E+05

      4 WELLS

                 RECHARGE =  2.000000E-03

 REUSING STREAM SEGMENT DATA FROM LAST STRESS PERIOD
 
 SOLVING FOR HEAD 


     7 CALLS TO PCG ROUTINE FOR TIME STEP   1 IN STRESS PERIOD   10
    26 TOTAL ITERATIONS

 OUTPUT CONTROL FOR STRESS PERIOD   10   TIME STEP    1
    SAVE BUDGET
    SAVE HEAD FOR ALL LAYERS
    PRINT HEAD FOR ALL LAYERS
 UBDSV2 SAVING "STREAMFLOW OUT  " ON UNIT  50 AT TIME STEP  1, STRESS PERIOD  10



 STREAM LISTING     PERIOD     10   STEP        1

 LAYER ROW COL. STREAM  RCH.  FLOW INTO     FLOW TO   FLOW OUT OF   OVRLND.     DIRECT     STREAM       STREAM     STREAM     STREAM   STREAMBED  STREAMBED
                SEG.NO.  NO.  STRM. RCH.    AQUIFER    STRM. RCH.    RUNOFF     PRECIP       ET          HEAD       DEPTH      WIDTH   CONDCTNC.   GRADIENT

   1   13    1     1     1    1.0000E+05 -2.1038E+03   1.0210E+05  0.000E+00  0.000E+00  0.000E+00  4.84069E+01  1.456E-01  2.000E+01  2.000E+04 -1.052E-01
   1   13    2     1     2    1.0210E+05 -3.0971E+03   1.0520E+05  0.000E+00  0.000E+00  0.000E+00  4.79319E+01  1.478E-01  2.000E+01  2.000E+04 -1.549E-01
   1   14    3     1     3    1.0520E+05 -5.8921E+02   1.0579E+05  0.000E+00  0.000E+00  0.000E+00  4.74562E+01  1.494E-01  2.000E+01  2.000E+04 -2.946E-02
   1   15    4     1     4    1.0579E+05 -5.6908E+02   1.0636E+05  0.000E+00  0.000E+00  0.000E+00  4.69794E+01  1.499E-01  2.000E+01  2.000E+04 -2.845E-02
   1   16    5     1     5    1.0636E+05 -2.0073E+03   1.0837E+05  0.000E+00  0.000E+00  0.000E+00  4.65032E+01  1.510E-01  2.000E+01  2.000E+04 -1.004E-01
   1   16    6     1     6    1.0837E+05 -1.2441E+03   1.0961E+05  0.000E+00  0.000E+00  0.000E+00  4.60273E+01  1.523E-01  2.000E+01  2.000E+04 -6.220E-02
   1   16    7     1     7    1.0961E+05 -1.2016E+03   1.1081E+05  0.000E+00  0.000E+00  0.000E+00  4.55511E+01  1.533E-01  2.000E+01  2.000E+04 -6.008E-02
   1   16    8     1     8    1.1081E+05 -1.1754E+03   1.1199E+05  0.000E+00  0.000E+00  0.000E+00  4.50748E+01  1.543E-01  2.000E+01  2.000E+04 -5.877E-02
   1   16    9     1     9    1.1199E+05 -1.1403E+03   1.1313E+05  0.000E+00  0.000E+00  0.000E+00  4.45985E+01  1.553E-01  2.000E+01  2.000E+04 -5.701E-02
   1   16   10     1    10    1.1313E+05 -1.0901E+03   1.1422E+05  0.000E+00  0.000E+00  0.000E+00  4.41221E+01  1.562E-01  2.000E+01  2.000E+04 -5.451E-02
   1   16   11     1    11    1.1422E+05 -1.0306E+03   1.1525E+05  0.000E+00  0.000E+00  0.000E+00  4.36457E+01  1.571E-01  2.000E+01  2.000E+04 -5.153E-02
   1   16   12     1    12    1.1525E+05 -1.5112E+03   1.1676E+05  0.000E+00  0.000E+00  0.000E+00  4.31695E+01  1.581E-01  2.000E+01  2.000E+04 -7.556E-02
   1   15   13     1    13    1.1676E+05 -1.1734E+03   1.1793E+05  0.000E+00  0.000E+00  0.000E+00  4.26933E+01  1.592E-01  2.000E+01  2.000E+04 -5.867E-02
   1   14   14     1    14    1.1793E+05  3.1979E+02   1.1761E+05  0.000E+00  0.000E+00  0.000E+00  4.22164E+01  1.596E-01  2.000E+01  2.000E+04  1.599E-02
   1   13   15     1    15    1.1761E+05 -6.0164E+01   1.1767E+05  0.000E+00  0.000E+00  0.000E+00  4.17390E+01  1.595E-01  2.000E+01  2.000E+04 -3.008E-03
   1   12   16     1    16    1.1767E+05 -2.5616E+03   1.2024E+05  0.000E+00  0.000E+00  0.000E+00  4.12628E+01  1.605E-01  2.000E+01  2.000E+04 -1.281E-01
   1   12   17     1    17    1.2024E+05 -1.8002E+03   1.2204E+05  0.000E+00  0.000E+00  0.000E+00  4.07873E+01  1.623E-01  2.000E+01  2.000E+04 -9.001E-02
   1   12   18     1    18    1.2204E+05 -1.6610E+03   1.2370E+05  0.000E+00  0.000E+00  0.000E+00  4.03114E+01  1.637E-01  2.000E+01  2.000E+04 -8.305E-02
   1   12   19     1    19    1.2370E+05 -1.7785E+03   1.2547E+05  0.000E+00  0.000E+00  0.000E+00  3.98355E+01  1.650E-01  2.000E+01  2.000E+04 -8.893E-02
   1   13   20     1    20    1.2547E+05 -9.7644E+02   1.2645E+05  0.000E+00  0.000E+00  0.000E+00  3.93593E+01  1.661E-01  2.000E+01  2.000E+04 -4.882E-02
   1   14   21     1    21    1.2645E+05 -8.3928E+02   1.2729E+05  0.000E+00  0.000E+00  0.000E+00  3.88828E+01  1.669E-01  2.000E+01  2.000E+04 -4.196E-02
   1   14   22     1    22    1.2729E+05  5.2747E+03   1.2202E+05  0.000E+00  0.000E+00  0.000E+00  3.84037E+01  1.651E-01  2.000E+01  2.000E+04  2.637E-01
   1    9   30     2     1    5.0000E+04  1.1998E+03   4.8800E+04  0.000E+00  0.000E+00  0.000E+00  4.02400E+01  1.150E-01  2.000E+01  2.000E+04  5.999E-02
   1    9   29     2     2    4.8800E+04  8.5158E+02   4.7949E+04  0.000E+00  0.000E+00  0.000E+00  3.99886E+01  1.136E-01  2.000E+01  2.000E+04  4.258E-02
   1    9   28     2     3    4.7949E+04  1.3895E+02   4.7810E+04  0.000E+00  0.000E+00  0.000E+00  3.97379E+01  1.129E-01  2.000E+01  2.000E+04  6.948E-03
   1    9   27     2     4    4.7810E+04 -1.5312E+03   4.9341E+04  0.000E+00  0.000E+00  0.000E+00  3.94889E+01  1.139E-01  2.000E+01  2.000E+04 -7.656E-02
   1   10   26     2     5    4.9341E+04  3.3691E+02   4.9004E+04  0.000E+00  0.000E+00  0.000E+00  3.92397E+01  1.147E-01  2.000E+01  2.000E+04  1.685E-02
   1   11   25     2     6    4.9004E+04  1.5420E+03   4.7462E+04  0.000E+00  0.000E+00  0.000E+00  3.89884E+01  1.134E-01  2.000E+01  2.000E+04  7.710E-02
   1   12   24     2     7    4.7462E+04  2.2850E+03   4.5177E+04  0.000E+00  0.000E+00  0.000E+00  3.87357E+01  1.107E-01  2.000E+01  2.000E+04  1.142E-01
   1   13   23     2     8    4.5177E+04  1.5965E+02   4.5017E+04  0.000E+00  0.000E+00  0.000E+00  3.84839E+01  1.089E-01  2.000E+01  2.000E+04  7.983E-03
   1   14   22     2     9    4.5017E+04  1.8489E+03   4.3168E+04  0.000E+00  0.000E+00  0.000E+00  3.82324E+01  1.074E-01  2.000E+01  2.000E+04  9.245E-02
   1   14   22     3     1    1.6518E+05 -8.3955E+03   1.7358E+05  0.000E+00  0.000E+00  0.000E+00  3.77202E+01  1.647E-01  2.000E+01  2.000E+04 -4.198E-01
   1   15   23     3     2    1.7358E+05 -4.8647E+02   1.7407E+05  0.000E+00  0.000E+00  0.000E+00  3.68339E+01  1.672E-01  2.000E+01  2.000E+04 -2.432E-02
   1   15   24     3     3    1.7407E+05 -3.0735E+02   1.7437E+05  0.000E+00  0.000E+00  0.000E+00  3.59453E+01  1.675E-01  2.000E+01  2.000E+04 -1.537E-02
   1   15   25     3     4    1.7437E+05 -2.8738E+02   1.7466E+05  0.000E+00  0.000E+00  0.000E+00  3.50565E+01  1.676E-01  2.000E+01  2.000E+04 -1.437E-02
   1   15   26     3     5    1.7466E+05 -1.6433E+02   1.7483E+05  0.000E+00  0.000E+00  0.000E+00  3.41678E+01  1.678E-01  2.000E+01  2.000E+04 -8.217E-03
   1   16   27     3     6    1.7483E+05 -7.0632E+01   1.7490E+05  0.000E+00  0.000E+00  0.000E+00  3.32790E+01  1.678E-01  2.000E+01  2.000E+04 -3.532E-03
   1   17   28     3     7    1.7490E+05  7.0417E+01   1.7483E+05  0.000E+00  0.000E+00  0.000E+00  3.23901E+01  1.678E-01  2.000E+01  2.000E+04  3.521E-03
   1   18   29     3     8    1.7483E+05 -2.2596E+03   1.7709E+05  0.000E+00  0.000E+00  0.000E+00  3.15018E+01  1.685E-01  2.000E+01  2.000E+04 -1.130E-01
   1   18   30     3     9    1.7709E+05 -2.4623E+03   1.7955E+05  0.000E+00  0.000E+00  0.000E+00  3.06143E+01  1.698E-01  2.000E+01  2.000E+04 -1.231E-01



1
              HEAD IN LAYER   1 AT END OF TIME STEP   1 IN STRESS PERIOD   10
  ---------------------------------------------------------------------------

          1      2      3      4      5      6      7      8      9     10
         11     12     13     14     15     16     17     18     19     20
         21     22     23     24     25     26     27     28     29     30
 .........................................................................
   1  ****** ****** ****** ****** ****** ****** ****** ****** ****** ******
      ****** ****** ****** ****** ****** ****** ****** ****** ****** ******
      ****** ****** ****** ****** ****** ****** ****** ****** ****** ******
   2  ****** ****** ****** ****** ****** ****** ****** ****** ****** ******
      ****** ****** ****** ****** ****** ****** ****** ****** ****** ******
      ****** ****** ****** ****** ****** ****** ****** ****** ****** ******
   3  ****** ****** ****** ****** ****** ****** ****** ****** ****** ******
      ****** ****** ****** ****** ****** ****** ****** ****** ****** ******
      ****** ****** ****** ****** ****** ****** ****** ****** ****** ******
   4  ****** ****** ****** ****** ****** ****** ****** ****** ****** ******
      ****** ****** ****** ****** ****** ****** ****** ****** ****** ******
      ****** ****** ****** ****** ****** ****** ****** ****** ****** ******
   5  ****** ****** ****** ****** ****** ****** ****** ****** ****** ******
      ****** ****** ****** ****** ****** ****** ****** ****** ****** ******
      ****** ****** ****** ****** ****** ****** ****** ****** ****** ******
   6  ****** ****** ****** ****** ****** ****** ****** ****** ****** ******
      ****** ****** ****** ****** ****** ****** ****** ****** ****** ******
      ****** ****** ****** ****** ****** ****** ****** ****** ****** ******
   7  ****** ****** ****** ****** ****** ****** ****** ****** ****** ******
      ****** ****** ****** ****** ****** ****** ****** ****** ****** ******
      ****** ****** ****** ****** ****** ****** ****** ****** ****** ******
   8  ****** ****** ****** ****** ****** ****** ****** ****** ****** ******
      ****** ****** ****** ****** ****** ****** ****** ****** ****** ******
      ****** ****** ****** ****** ****** ****** ****** ****** ****** ******
   9  ****** ****** ****** ****** ****** ****** ****** ****** ****** ******
      ****** ****** ****** ****** ****** ****** ****** ****** ****** ******
      ****** ****** ****** ****** ****** ****** ****** ****** ****** ******
  10  ****** ****** ****** ****** ****** ****** ****** ****** ****** ******
      ****** ****** ****** ****** ****** ****** ****** ****** ****** ******
      ****** ****** ****** ****** ****** ****** ****** ****** ****** ******
  11  ****** ****** ****** ****** ****** ****** ****** ****** ****** ******
      ****** ****** ****** ****** ****** ****** ****** ****** ****** ******
      ****** ****** ****** ****** ****** ****** ****** ****** ****** ******
  12  ****** ****** ****** ****** ****** ****** ****** ****** ****** ******
      ****** ****** ****** ****** ****** ****** ****** ****** ****** ******
      ****** ****** ****** ****** ****** ****** ****** ****** ****** ******
  13  ****** ****** ****** ****** ****** ****** ****** ****** ****** ******
      ****** ****** ****** ****** ****** ****** ****** ****** ****** ******
      ****** ****** ****** ****** ****** ****** ****** ****** ****** ******
  14  ****** ****** ****** ****** ****** ****** ****** ****** ****** ******
      ****** ****** ****** ****** ****** ****** ****** ****** ****** ******
      ****** ****** ****** ****** ****** ****** ****** ****** ****** ******
  15  ****** ****** ****** ****** ****** ****** ****** ****** ****** ******
      ****** ****** ****** ****** ****** ****** ****** ****** ****** ******
      ****** ****** ****** ****** ****** ****** ****** ****** ****** ******
  16  ****** ****** ****** ****** ****** ****** ****** ****** ****** ******
      ****** ****** ****** ****** ****** ****** ****** ****** ****** ******
      ****** ****** ****** ****** ****** ****** ****** ****** ****** ******
  17  ****** ****** ****** ****** ****** ****** ****** ****** ****** ******
      ****** ****** ****** ****** ****** ****** ****** ****** ****** ******
      ****** ****** ****** ****** ****** ****** ****** ****** ****** ******
  18  ****** ****** ****** ****** ****** ****** ****** ****** ****** ******
      ****** ****** ****** ****** ****** ****** ****** ****** ****** ******
      ****** ****** ****** ****** ****** ****** ****** ****** ****** ******
  19  ****** ****** ****** ****** ****** ****** ****** ****** ****** ******
      ****** ****** ****** ****** ****** ****** ****** ****** ****** ******
      ****** ****** ****** ****** ****** ****** ****** ****** ****** ******
  20  ****** ****** ****** ****** ****** ****** ****** ****** ****** ******
      ****** ****** ****** ****** ****** ****** ****** ****** ****** ******
      ****** ****** ****** ****** ****** ****** ****** ****** ****** ******
  21  ****** ****** ****** ****** ****** ****** ****** ****** ****** ******
      ****** ****** ****** ****** ****** ****** ****** ****** ****** ******
      ****** ****** ****** ****** ****** ****** ****** ****** ****** ******
  22  ****** ****** ****** ****** ****** ****** ****** ****** ****** ******
      ****** ****** ****** ****** ****** ****** ****** ****** ****** ******
      ****** ****** ****** ****** ****** ****** ****** ****** ****** ******
  23  ****** ****** ****** ****** ****** ****** ****** ****** ****** ******
      ****** ****** ****** ****** ****** ****** ****** ****** ****** ******
      ****** ****** ****** ****** ****** ****** ****** ****** ****** ******
  24  ****** ****** ****** ****** ****** ****** ****** ****** ****** ******
      ****** ****** ****** ****** ****** ****** ****** ****** ****** ******
      ****** ****** ****** ****** ****** ****** ****** ****** ****** ******
  25  ****** ****** ****** ****** ****** ****** ****** ****** ****** ******
      ****** ****** ****** ****** ****** ****** ****** ****** ****** ******
      ****** ****** ****** ****** ****** ****** ****** ****** ****** ******

 HEAD WILL BE SAVED ON UNIT   51 AT END OF TIME STEP    1, STRESS PERIOD   10
1
  VOLUMETRIC BUDGET FOR ENTIRE MODEL AT END OF TIME STEP    1, STRESS PERIOD  10
  ------------------------------------------------------------------------------

     CUMULATIVE VOLUMES      L**3       RATES FOR THIS TIME STEP      L**3/T
     ------------------                 ------------------------

           IN:                                      IN:
           ---                                      ---
             STORAGE =    33641049.3464               STORAGE =           0.0000
       CONSTANT HEAD =    24869727.4421         CONSTANT HEAD =       30739.5629
               WELLS =           0.0000                 WELLS =           0.0000
            RECHARGE =    23901600.0000              RECHARGE =       55200.0000
      STREAM LEAKAGE =    12610658.1774        STREAM LEAKAGE =       14027.7453

            TOTAL IN =    95023034.9659              TOTAL IN =       99967.3081

          OUT:                                     OUT:
          ----                                     ----
             STORAGE =     2394128.4737               STORAGE =       15769.1140
       CONSTANT HEAD =           0.0000         CONSTANT HEAD =           0.0000
               WELLS =    37088886.0505                 WELLS =       40623.0953
            RECHARGE =           0.0000              RECHARGE =           0.0000
      STREAM LEAKAGE =    55540021.9519        STREAM LEAKAGE =       43575.0951

           TOTAL OUT =    95023036.4762             TOTAL OUT =       99967.3045

            IN - OUT =          -1.5103              IN - OUT =       3.6510E-03

 PERCENT DISCREPANCY =          -0.00     PERCENT DISCREPANCY =           0.00






         TIME SUMMARY AT END OF TIME STEP    1 IN STRESS PERIOD   10
                    SECONDS     MINUTES      HOURS       DAYS        YEARS
                    -----------------------------------------------------------
   TIME STEP LENGTH 7.86240E+06 1.31040E+05  2184.0      91.000     0.24914    
 STRESS PERIOD TIME 7.86240E+06 1.31040E+05  2184.0      91.000     0.24914    
         TOTAL TIME 7.88832E+07 1.31472E+06  21912.      913.00      2.4997    
1
1
                            STRESS PERIOD NO.   11, LENGTH =   91.00000    
                            -----------------------------------------------

                              NUMBER OF TIME STEPS =     1

                               MULTIPLIER FOR DELT =     1.500

                            INITIAL TIME STEP SIZE =   91.00000    

 WELL NO.  LAYER   ROW   COL   STRESS RATE         
 --------------------------------------------------
      1      1     21     19      -8385.    
      2      1     13     14      -6352.    
      3      1     11     23     -0.1199E+05
      4      1     12     29     -0.1389E+05

      4 WELLS

                 RECHARGE =   0.00000    

 REUSING STREAM SEGMENT DATA FROM LAST STRESS PERIOD
 
 SOLVING FOR HEAD 


     7 CALLS TO PCG ROUTINE FOR TIME STEP   1 IN STRESS PERIOD   11
    26 TOTAL ITERATIONS

 OUTPUT CONTROL FOR STRESS PERIOD   11   TIME STEP    1
    SAVE BUDGET
    SAVE HEAD FOR ALL LAYERS
    PRINT HEAD FOR ALL LAYERS
 UBDSV2 SAVING "STREAMFLOW OUT  " ON UNIT  50 AT TIME STEP  1, STRESS PERIOD  11



 STREAM LISTING     PERIOD     11   STEP        1

 LAYER ROW COL. STREAM  RCH.  FLOW INTO     FLOW TO   FLOW OUT OF   OVRLND.     DIRECT     STREAM       STREAM     STREAM     STREAM   STREAMBED  STREAMBED
                SEG.NO.  NO.  STRM. RCH.    AQUIFER    STRM. RCH.    RUNOFF     PRECIP       ET          HEAD       DEPTH      WIDTH   CONDCTNC.   GRADIENT

   1   13    1     1     1    1.0000E+05 -1.5378E+03   1.0154E+05  0.000E+00  0.000E+00  0.000E+00  4.84067E+01  1.453E-01  2.000E+01  2.000E+04 -7.689E-02
   1   13    2     1     2    1.0154E+05 -2.4669E+03   1.0400E+05  0.000E+00  0.000E+00  0.000E+00  4.79311E+01  1.470E-01  2.000E+01  2.000E+04 -1.233E-01
   1   14    3     1     3    1.0400E+05 -3.5861E+02   1.0436E+05  0.000E+00  0.000E+00  0.000E+00  4.74551E+01  1.483E-01  2.000E+01  2.000E+04 -1.793E-02
   1   15    4     1     4    1.0436E+05 -3.2741E+02   1.0469E+05  0.000E+00  0.000E+00  0.000E+00  4.69781E+01  1.485E-01  2.000E+01  2.000E+04 -1.637E-02
   1   16    5     1     5    1.0469E+05 -1.3196E+03   1.0601E+05  0.000E+00  0.000E+00  0.000E+00  4.65015E+01  1.492E-01  2.000E+01  2.000E+04 -6.598E-02
   1   16    6     1     6    1.0601E+05 -8.2993E+02   1.0684E+05  0.000E+00  0.000E+00  0.000E+00  4.60252E+01  1.502E-01  2.000E+01  2.000E+04 -4.150E-02
   1   16    7     1     7    1.0684E+05 -8.0512E+02   1.0765E+05  0.000E+00  0.000E+00  0.000E+00  4.55486E+01  1.508E-01  2.000E+01  2.000E+04 -4.026E-02
   1   16    8     1     8    1.0765E+05 -7.8443E+02   1.0843E+05  0.000E+00  0.000E+00  0.000E+00  4.50720E+01  1.515E-01  2.000E+01  2.000E+04 -3.922E-02
   1   16    9     1     9    1.0843E+05 -7.5146E+02   1.0918E+05  0.000E+00  0.000E+00  0.000E+00  4.45953E+01  1.522E-01  2.000E+01  2.000E+04 -3.757E-02
   1   16   10     1    10    1.0918E+05 -7.0234E+02   1.0988E+05  0.000E+00  0.000E+00  0.000E+00  4.41187E+01  1.528E-01  2.000E+01  2.000E+04 -3.512E-02
   1   16   11     1    11    1.0988E+05 -6.4091E+02   1.1052E+05  0.000E+00  0.000E+00  0.000E+00  4.36420E+01  1.533E-01  2.000E+01  2.000E+04 -3.205E-02
   1   16   12     1    12    1.1052E+05 -8.6552E+02   1.1139E+05  0.000E+00  0.000E+00  0.000E+00  4.31653E+01  1.540E-01  2.000E+01  2.000E+04 -4.328E-02
   1   15   13     1    13    1.1139E+05 -4.8529E+02   1.1188E+05  0.000E+00  0.000E+00  0.000E+00  4.26886E+01  1.545E-01  2.000E+01  2.000E+04 -2.426E-02
   1   14   14     1    14    1.1188E+05  1.0253E+03   1.1085E+05  0.000E+00  0.000E+00  0.000E+00  4.22111E+01  1.543E-01  2.000E+01  2.000E+04  5.126E-02
   1   13   15     1    15    1.1085E+05  6.3941E+02   1.1021E+05  0.000E+00  0.000E+00  0.000E+00  4.17332E+01  1.536E-01  2.000E+01  2.000E+04  3.197E-02
   1   12   16     1    16    1.1021E+05 -1.8861E+03   1.1210E+05  0.000E+00  0.000E+00  0.000E+00  4.12564E+01  1.541E-01  2.000E+01  2.000E+04 -9.430E-02
   1   12   17     1    17    1.1210E+05 -1.2943E+03   1.1339E+05  0.000E+00  0.000E+00  0.000E+00  4.07804E+01  1.554E-01  2.000E+01  2.000E+04 -6.471E-02
   1   12   18     1    18    1.1339E+05 -1.1626E+03   1.1455E+05  0.000E+00  0.000E+00  0.000E+00  4.03042E+01  1.565E-01  2.000E+01  2.000E+04 -5.813E-02
   1   12   19     1    19    1.1455E+05 -1.1667E+03   1.1572E+05  0.000E+00  0.000E+00  0.000E+00  3.98279E+01  1.574E-01  2.000E+01  2.000E+04 -5.834E-02
   1   13   20     1    20    1.1572E+05 -3.6432E+02   1.1608E+05  0.000E+00  0.000E+00  0.000E+00  3.93512E+01  1.580E-01  2.000E+01  2.000E+04 -1.822E-02
   1   14   21     1    21    1.1608E+05 -2.4207E+02   1.1633E+05  0.000E+00  0.000E+00  0.000E+00  3.88742E+01  1.583E-01  2.000E+01  2.000E+04 -1.210E-02
   1   14   22     1    22    1.1633E+05  5.4270E+03   1.1090E+05  0.000E+00  0.000E+00  0.000E+00  3.83948E+01  1.562E-01  2.000E+01  2.000E+04  2.713E-01
   1    9   30     2     1    5.0000E+04  1.6877E+03   4.8312E+04  0.000E+00  0.000E+00  0.000E+00  4.02397E+01  1.147E-01  2.000E+01  2.000E+04  8.439E-02
   1    9   29     2     2    4.8312E+04  1.3364E+03   4.6976E+04  0.000E+00  0.000E+00  0.000E+00  3.99876E+01  1.126E-01  2.000E+01  2.000E+04  6.682E-02
   1    9   28     2     3    4.6976E+04  6.2148E+02   4.6354E+04  0.000E+00  0.000E+00  0.000E+00  3.97362E+01  1.112E-01  2.000E+01  2.000E+04  3.107E-02
   1    9   27     2     4    4.6354E+04 -8.9204E+02   4.7246E+04  0.000E+00  0.000E+00  0.000E+00  3.94864E+01  1.114E-01  2.000E+01  2.000E+04 -4.460E-02
   1   10   26     2     5    4.7246E+04  9.9054E+02   4.6256E+04  0.000E+00  0.000E+00  0.000E+00  3.92363E+01  1.113E-01  2.000E+01  2.000E+04  4.953E-02
   1   11   25     2     6    4.6256E+04  2.1718E+03   4.4084E+04  0.000E+00  0.000E+00  0.000E+00  3.89840E+01  1.090E-01  2.000E+01  2.000E+04  1.086E-01
   1   12   24     2     7    4.4084E+04  2.8576E+03   4.1227E+04  0.000E+00  0.000E+00  0.000E+00  3.87303E+01  1.053E-01  2.000E+01  2.000E+04  1.429E-01
   1   13   23     2     8    4.1227E+04  3.4533E+02   4.0881E+04  0.000E+00  0.000E+00  0.000E+00  3.84779E+01  1.029E-01  2.000E+01  2.000E+04  1.727E-02
   1   14   22     2     9    4.0881E+04  2.0535E+03   3.8828E+04  0.000E+00  0.000E+00  0.000E+00  3.82261E+01  1.011E-01  2.000E+01  2.000E+04  1.027E-01
   1   14   22     3     1    1.4973E+05 -8.2491E+03   1.5798E+05  0.000E+00  0.000E+00  0.000E+00  3.77110E+01  1.554E-01  2.000E+01  2.000E+04 -4.125E-01
   1   15   23     3     2    1.5798E+05 -2.9439E+02   1.5827E+05  0.000E+00  0.000E+00  0.000E+00  3.68247E+01  1.580E-01  2.000E+01  2.000E+04 -1.472E-02
   1   15   24     3     3    1.5827E+05 -1.4221E+02   1.5841E+05  0.000E+00  0.000E+00  0.000E+00  3.59359E+01  1.581E-01  2.000E+01  2.000E+04 -7.110E-03
   1   15   25     3     4    1.5841E+05 -1.1841E+02   1.5853E+05  0.000E+00  0.000E+00  0.000E+00  3.50471E+01  1.582E-01  2.000E+01  2.000E+04 -5.920E-03
   1   15   26     3     5    1.5853E+05  3.1351E+01   1.5850E+05  0.000E+00  0.000E+00  0.000E+00  3.41583E+01  1.583E-01  2.000E+01  2.000E+04  1.568E-03
   1   16   27     3     6    1.5850E+05  1.5238E+02   1.5835E+05  0.000E+00  0.000E+00  0.000E+00  3.32693E+01  1.582E-01  2.000E+01  2.000E+04  7.619E-03
   1   17   28     3     7    1.5835E+05  6.8018E+02   1.5767E+05  0.000E+00  0.000E+00  0.000E+00  3.23802E+01  1.579E-01  2.000E+01  2.000E+04  3.401E-02
   1   18   29     3     8    1.5767E+05 -1.6375E+03   1.5931E+05  0.000E+00  0.000E+00  0.000E+00  3.14916E+01  1.582E-01  2.000E+01  2.000E+04 -8.187E-02
   1   18   30     3     9    1.5931E+05 -1.9731E+03   1.6128E+05  0.000E+00  0.000E+00  0.000E+00  3.06038E+01  1.593E-01  2.000E+01  2.000E+04 -9.865E-02



1
              HEAD IN LAYER   1 AT END OF TIME STEP   1 IN STRESS PERIOD   11
  ---------------------------------------------------------------------------

          1      2      3      4      5      6      7      8      9     10
         11     12     13     14     15     16     17     18     19     20
         21     22     23     24     25     26     27     28     29     30
 .........................................................................
   1  ****** ****** ****** ****** ****** ****** ****** ****** ****** ******
      ****** ****** ****** ****** ****** ****** ****** ****** ****** ******
      ****** ****** ****** ****** ****** ****** ****** ****** ****** ******
   2  ****** ****** ****** ****** ****** ****** ****** ****** ****** ******
      ****** ****** ****** ****** ****** ****** ****** ****** ****** ******
      ****** ****** ****** ****** ****** ****** ****** ****** ****** ******
   3  ****** ****** ****** ****** ****** ****** ****** ****** ****** ******
      ****** ****** ****** ****** ****** ****** ****** ****** ****** ******
      ****** ****** ****** ****** ****** ****** ****** ****** ****** ******
   4  ****** ****** ****** ****** ****** ****** ****** ****** ****** ******
      ****** ****** ****** ****** ****** ****** ****** ****** ****** ******
      ****** ****** ****** ****** ****** ****** ****** ****** ****** ******
   5  ****** ****** ****** ****** ****** ****** ****** ****** ****** ******
      ****** ****** ****** ****** ****** ****** ****** ****** ****** ******
      ****** ****** ****** ****** ****** ****** ****** ****** ****** ******
   6  ****** ****** ****** ****** ****** ****** ****** ****** ****** ******
      ****** ****** ****** ****** ****** ****** ****** ****** ****** ******
      ****** ****** ****** ****** ****** ****** ****** ****** ****** ******
   7  ****** ****** ****** ****** ****** ****** ****** ****** ****** ******
      ****** ****** ****** ****** ****** ****** ****** ****** ****** ******
      ****** ****** ****** ****** ****** ****** ****** ****** ****** ******
   8  ****** ****** ****** ****** ****** ****** ****** ****** ****** ******
      ****** ****** ****** ****** ****** ****** ****** ****** ****** ******
      ****** ****** ****** ****** ****** ****** ****** ****** ****** ******
   9  ****** ****** ****** ****** ****** ****** ****** ****** ****** ******
      ****** ****** ****** ****** ****** ****** ****** ****** ****** ******
      ****** ****** ****** ****** ****** ****** ****** ****** ****** ******
  10  ****** ****** ****** ****** ****** ****** ****** ****** ****** ******
      ****** ****** ****** ****** ****** ****** ****** ****** ****** ******
      ****** ****** ****** ****** ****** ****** ****** ****** ****** ******
  11  ****** ****** ****** ****** ****** ****** ****** ****** ****** ******
      ****** ****** ****** ****** ****** ****** ****** ****** ****** ******
      ****** ****** ****** ****** ****** ****** ****** ****** ****** ******
  12  ****** ****** ****** ****** ****** ****** ****** ****** ****** ******
      ****** ****** ****** ****** ****** ****** ****** ****** ****** ******
      ****** ****** ****** ****** ****** ****** ****** ****** ****** ******
  13  ****** ****** ****** ****** ****** ****** ****** ****** ****** ******
      ****** ****** ****** ****** ****** ****** ****** ****** ****** ******
      ****** ****** ****** ****** ****** ****** ****** ****** ****** ******
  14  ****** ****** ****** ****** ****** ****** ****** ****** ****** ******
      ****** ****** ****** ****** ****** ****** ****** ****** ****** ******
      ****** ****** ****** ****** ****** ****** ****** ****** ****** ******
  15  ****** ****** ****** ****** ****** ****** ****** ****** ****** ******
      ****** ****** ****** ****** ****** ****** ****** ****** ****** ******
      ****** ****** ****** ****** ****** ****** ****** ****** ****** ******
  16  ****** ****** ****** ****** ****** ****** ****** ****** ****** ******
      ****** ****** ****** ****** ****** ****** ****** ****** ****** ******
      ****** ****** ****** ****** ****** ****** ****** ****** ****** ******
  17  ****** ****** ****** ****** ****** ****** ****** ****** ****** ******
      ****** ****** ****** ****** ****** ****** ****** ****** ****** ******
      ****** ****** ****** ****** ****** ****** ****** ****** ****** ******
  18  ****** ****** ****** ****** ****** ****** ****** ****** ****** ******
      ****** ****** ****** ****** ****** ****** ****** ****** ****** ******
      ****** ****** ****** ****** ****** ****** ****** ****** ****** ******
  19  ****** ****** ****** ****** ****** ****** ****** ****** ****** ******
      ****** ****** ****** ****** ****** ****** ****** ****** ****** ******
      ****** ****** ****** ****** ****** ****** ****** ****** ****** ******
  20  ****** ****** ****** ****** ****** ****** ****** ****** ****** ******
      ****** ****** ****** ****** ****** ****** ****** ****** ****** ******
      ****** ****** ****** ****** ****** ****** ****** ****** ****** ******
  21  ****** ****** ****** ****** ****** ****** ****** ****** ****** ******
      ****** ****** ****** ****** ****** ****** ****** ****** ****** ******
      ****** ****** ****** ****** ****** ****** ****** ****** ****** ******
  22  ****** ****** ****** ****** ****** ****** ****** ****** ****** ******
      ****** ****** ****** ****** ****** ****** ****** ****** ****** ******
      ****** ****** ****** ****** ****** ****** ****** ****** ****** ******
  23  ****** ****** ****** ****** ****** ****** ****** ****** ****** ******
      ****** ****** ****** ****** ****** ****** ****** ****** ****** ******
      ****** ****** ****** ****** ****** ****** ****** ****** ****** ******
  24  ****** ****** ****** ****** ****** ****** ****** ****** ****** ******
      ****** ****** ****** ****** ****** ****** ****** ****** ****** ******
      ****** ****** ****** ****** ****** ****** ****** ****** ****** ******
  25  ****** ****** ****** ****** ****** ****** ****** ****** ****** ******
      ****** ****** ****** ****** ****** ****** ****** ****** ****** ******
      ****** ****** ****** ****** ****** ****** ****** ****** ****** ******

 HEAD WILL BE SAVED ON UNIT   51 AT END OF TIME STEP    1, STRESS PERIOD   11
1
  VOLUMETRIC BUDGET FOR ENTIRE MODEL AT END OF TIME STEP    1, STRESS PERIOD  11
  ------------------------------------------------------------------------------

     CUMULATIVE VOLUMES      L**3       RATES FOR THIS TIME STEP      L**3/T
     ------------------                 ------------------------

           IN:                                      IN:
           ---                                      ---
             STORAGE =    35268326.1346               STORAGE =       17882.1625
       CONSTANT HEAD =    27965473.1277         CONSTANT HEAD =       34019.1834
               WELLS =           0.0000                 WELLS =           0.0000
            RECHARGE =    23901600.0000              RECHARGE =           0.0000
      STREAM LEAKAGE =    14432462.3478        STREAM LEAKAGE =       20019.8260

            TOTAL IN =   101567861.6101              TOTAL IN =       71921.1719

          OUT:                                     OUT:
          ----                                     ----
             STORAGE =     2394128.4737               STORAGE =           0.0000
       CONSTANT HEAD =           0.0000         CONSTANT HEAD =           0.0000
               WELLS =    40785587.7270                 WELLS =       40623.0953
            RECHARGE =           0.0000              RECHARGE =           0.0000
      STREAM LEAKAGE =    58388147.3673        STREAM LEAKAGE =       31298.0815

           TOTAL OUT =   101567863.5680             TOTAL OUT =       71921.1768

            IN - OUT =          -1.9579              IN - OUT =      -4.9193E-03

 PERCENT DISCREPANCY =          -0.00     PERCENT DISCREPANCY =          -0.00






         TIME SUMMARY AT END OF TIME STEP    1 IN STRESS PERIOD   11
                    SECONDS     MINUTES      HOURS       DAYS        YEARS
                    -----------------------------------------------------------
   TIME STEP LENGTH 7.86240E+06 1.31040E+05  2184.0      91.000     0.24914    
 STRESS PERIOD TIME 7.86240E+06 1.31040E+05  2184.0      91.000     0.24914    
         TOTAL TIME 8.67456E+07 1.44576E+06  24096.      1004.0      2.7488    
1
1
                            STRESS PERIOD NO.   12, LENGTH =   91.00000    
                            -----------------------------------------------

                              NUMBER OF TIME STEPS =     1

                               MULTIPLIER FOR DELT =     1.500

                            INITIAL TIME STEP SIZE =   91.00000    

 WELL NO.  LAYER   ROW   COL   STRESS RATE         
 --------------------------------------------------
      1      1     21     19      -8385.    
      2      1     13     14      -6352.    
      3      1     11     23     -0.1199E+05
      4      1     12     29     -0.1389E+05

      4 WELLS

                 RECHARGE =  1.000000E-03

 REUSING STREAM SEGMENT DATA FROM LAST STRESS PERIOD
 
 SOLVING FOR HEAD 


     6 CALLS TO PCG ROUTINE FOR TIME STEP   1 IN STRESS PERIOD   12
    23 TOTAL ITERATIONS

 OUTPUT CONTROL FOR STRESS PERIOD   12   TIME STEP    1
    SAVE BUDGET
    SAVE HEAD FOR ALL LAYERS
    PRINT HEAD FOR ALL LAYERS
 UBDSV2 SAVING "STREAMFLOW OUT  " ON UNIT  50 AT TIME STEP  1, STRESS PERIOD  12



 STREAM LISTING     PERIOD     12   STEP        1

 LAYER ROW COL. STREAM  RCH.  FLOW INTO     FLOW TO   FLOW OUT OF   OVRLND.     DIRECT     STREAM       STREAM     STREAM     STREAM   STREAMBED  STREAMBED
                SEG.NO.  NO.  STRM. RCH.    AQUIFER    STRM. RCH.    RUNOFF     PRECIP       ET          HEAD       DEPTH      WIDTH   CONDCTNC.   GRADIENT

   1   13    1     1     1    1.0000E+05 -1.6833E+03   1.0168E+05  0.000E+00  0.000E+00  0.000E+00  4.84067E+01  1.454E-01  2.000E+01  2.000E+04 -8.417E-02
   1   13    2     1     2    1.0168E+05 -2.6235E+03   1.0431E+05  0.000E+00  0.000E+00  0.000E+00  4.79313E+01  1.472E-01  2.000E+01  2.000E+04 -1.312E-01
   1   14    3     1     3    1.0431E+05 -4.3739E+02   1.0474E+05  0.000E+00  0.000E+00  0.000E+00  4.74554E+01  1.485E-01  2.000E+01  2.000E+04 -2.187E-02
   1   15    4     1     4    1.0474E+05 -4.0994E+02   1.0515E+05  0.000E+00  0.000E+00  0.000E+00  4.69785E+01  1.489E-01  2.000E+01  2.000E+04 -2.050E-02
   1   16    5     1     5    1.0515E+05 -1.5294E+03   1.0668E+05  0.000E+00  0.000E+00  0.000E+00  4.65020E+01  1.497E-01  2.000E+01  2.000E+04 -7.647E-02
   1   16    6     1     6    1.0668E+05 -9.6051E+02   1.0764E+05  0.000E+00  0.000E+00  0.000E+00  4.60258E+01  1.508E-01  2.000E+01  2.000E+04 -4.803E-02
   1   16    7     1     7    1.0764E+05 -9.3064E+02   1.0857E+05  0.000E+00  0.000E+00  0.000E+00  4.55493E+01  1.516E-01  2.000E+01  2.000E+04 -4.653E-02
   1   16    8     1     8    1.0857E+05 -9.0890E+02   1.0948E+05  0.000E+00  0.000E+00  0.000E+00  4.50728E+01  1.524E-01  2.000E+01  2.000E+04 -4.545E-02
   1   16    9     1     9    1.0948E+05 -8.7633E+02   1.1036E+05  0.000E+00  0.000E+00  0.000E+00  4.45963E+01  1.531E-01  2.000E+01  2.000E+04 -4.382E-02
   1   16   10     1    10    1.1036E+05 -8.2849E+02   1.1119E+05  0.000E+00  0.000E+00  0.000E+00  4.41197E+01  1.538E-01  2.000E+01  2.000E+04 -4.142E-02
   1   16   11     1    11    1.1119E+05 -7.6921E+02   1.1196E+05  0.000E+00  0.000E+00  0.000E+00  4.36431E+01  1.545E-01  2.000E+01  2.000E+04 -3.846E-02
   1   16   12     1    12    1.1196E+05 -1.0673E+03   1.1302E+05  0.000E+00  0.000E+00  0.000E+00  4.31666E+01  1.552E-01  2.000E+01  2.000E+04 -5.336E-02
   1   15   13     1    13    1.1302E+05 -7.0264E+02   1.1373E+05  0.000E+00  0.000E+00  0.000E+00  4.26901E+01  1.560E-01  2.000E+01  2.000E+04 -3.513E-02
   1   14   14     1    14    1.1373E+05  8.0710E+02   1.1292E+05  0.000E+00  0.000E+00  0.000E+00  4.22127E+01  1.559E-01  2.000E+01  2.000E+04  4.035E-02
   1   13   15     1    15    1.1292E+05  4.2835E+02   1.1249E+05  0.000E+00  0.000E+00  0.000E+00  4.17350E+01  1.554E-01  2.000E+01  2.000E+04  2.142E-02
   1   12   16     1    16    1.1249E+05 -2.0710E+03   1.1456E+05  0.000E+00  0.000E+00  0.000E+00  4.12584E+01  1.561E-01  2.000E+01  2.000E+04 -1.036E-01
   1   12   17     1    17    1.1456E+05 -1.4485E+03   1.1601E+05  0.000E+00  0.000E+00  0.000E+00  4.07825E+01  1.575E-01  2.000E+01  2.000E+04 -7.242E-02
   1   12   18     1    18    1.1601E+05 -1.3188E+03   1.1733E+05  0.000E+00  0.000E+00  0.000E+00  4.03064E+01  1.587E-01  2.000E+01  2.000E+04 -6.594E-02
   1   12   19     1    19    1.1733E+05 -1.3599E+03   1.1869E+05  0.000E+00  0.000E+00  0.000E+00  3.98302E+01  1.598E-01  2.000E+01  2.000E+04 -6.799E-02
   1   13   20     1    20    1.1869E+05 -5.7495E+02   1.1927E+05  0.000E+00  0.000E+00  0.000E+00  3.93537E+01  1.605E-01  2.000E+01  2.000E+04 -2.875E-02
   1   14   21     1    21    1.1927E+05 -4.3617E+02   1.1970E+05  0.000E+00  0.000E+00  0.000E+00  3.88769E+01  1.610E-01  2.000E+01  2.000E+04 -2.181E-02
   1   14   22     1    22    1.1970E+05  5.3719E+03   1.1433E+05  0.000E+00  0.000E+00  0.000E+00  3.83976E+01  1.590E-01  2.000E+01  2.000E+04  2.686E-01
   1    9   30     2     1    5.0000E+04  1.5111E+03   4.8489E+04  0.000E+00  0.000E+00  0.000E+00  4.02398E+01  1.148E-01  2.000E+01  2.000E+04  7.556E-02
   1    9   29     2     2    4.8489E+04  1.1618E+03   4.7327E+04  0.000E+00  0.000E+00  0.000E+00  3.99879E+01  1.129E-01  2.000E+01  2.000E+04  5.809E-02
   1    9   28     2     3    4.7327E+04  4.5044E+02   4.6877E+04  0.000E+00  0.000E+00  0.000E+00  3.97368E+01  1.118E-01  2.000E+01  2.000E+04  2.252E-02
   1    9   27     2     4    4.6877E+04 -1.1016E+03   4.7978E+04  0.000E+00  0.000E+00  0.000E+00  3.94873E+01  1.123E-01  2.000E+01  2.000E+04 -5.508E-02
   1   10   26     2     5    4.7978E+04  7.6038E+02   4.7218E+04  0.000E+00  0.000E+00  0.000E+00  3.92375E+01  1.125E-01  2.000E+01  2.000E+04  3.802E-02
   1   11   25     2     6    4.7218E+04  1.9456E+03   4.5272E+04  0.000E+00  0.000E+00  0.000E+00  3.89856E+01  1.106E-01  2.000E+01  2.000E+04  9.728E-02
   1   12   24     2     7    4.5272E+04  2.6512E+03   4.2621E+04  0.000E+00  0.000E+00  0.000E+00  3.87322E+01  1.072E-01  2.000E+01  2.000E+04  1.326E-01
   1   13   23     2     8    4.2621E+04  2.6769E+02   4.2353E+04  0.000E+00  0.000E+00  0.000E+00  3.84801E+01  1.051E-01  2.000E+01  2.000E+04  1.338E-02
   1   14   22     2     9    4.2353E+04  1.9881E+03   4.0365E+04  0.000E+00  0.000E+00  0.000E+00  3.82284E+01  1.034E-01  2.000E+01  2.000E+04  9.941E-02
   1   14   22     3     1    1.5469E+05 -8.2998E+03   1.6299E+05  0.000E+00  0.000E+00  0.000E+00  3.77140E+01  1.584E-01  2.000E+01  2.000E+04 -4.150E-01
   1   15   23     3     2    1.6299E+05 -3.6637E+02   1.6336E+05  0.000E+00  0.000E+00  0.000E+00  3.68277E+01  1.610E-01  2.000E+01  2.000E+04 -1.832E-02
   1   15   24     3     3    1.6336E+05 -2.0726E+02   1.6357E+05  0.000E+00  0.000E+00  0.000E+00  3.59390E+01  1.612E-01  2.000E+01  2.000E+04 -1.036E-02
   1   15   25     3     4    1.6357E+05 -1.8474E+02   1.6375E+05  0.000E+00  0.000E+00  0.000E+00  3.50502E+01  1.613E-01  2.000E+01  2.000E+04 -9.237E-03
   1   15   26     3     5    1.6375E+05 -4.6105E+01   1.6380E+05  0.000E+00  0.000E+00  0.000E+00  3.41614E+01  1.614E-01  2.000E+01  2.000E+04 -2.305E-03
   1   16   27     3     6    1.6380E+05  6.5639E+01   1.6373E+05  0.000E+00  0.000E+00  0.000E+00  3.32725E+01  1.614E-01  2.000E+01  2.000E+04  3.282E-03
   1   17   28     3     7    1.6373E+05  4.5958E+02   1.6327E+05  0.000E+00  0.000E+00  0.000E+00  3.23834E+01  1.612E-01  2.000E+01  2.000E+04  2.298E-02
   1   18   29     3     8    1.6327E+05 -1.8379E+03   1.6511E+05  0.000E+00  0.000E+00  0.000E+00  3.14950E+01  1.616E-01  2.000E+01  2.000E+04 -9.190E-02
   1   18   30     3     9    1.6511E+05 -2.1411E+03   1.6725E+05  0.000E+00  0.000E+00  0.000E+00  3.06072E+01  1.628E-01  2.000E+01  2.000E+04 -1.071E-01



1
              HEAD IN LAYER   1 AT END OF TIME STEP   1 IN STRESS PERIOD   12
  ---------------------------------------------------------------------------

          1      2      3      4      5      6      7      8      9     10
         11     12     13     14     15     16     17     18     19     20
         21     22     23     24     25     26     27     28     29     30
 .........................................................................
   1  ****** ****** ****** ****** ****** ****** ****** ****** ****** ******
      ****** ****** ****** ****** ****** ****** ****** ****** ****** ******
      ****** ****** ****** ****** ****** ****** ****** ****** ****** ******
   2  ****** ****** ****** ****** ****** ****** ****** ****** ****** ******
      ****** ****** ****** ****** ****** ****** ****** ****** ****** ******
      ****** ****** ****** ****** ****** ****** ****** ****** ****** ******
   3  ****** ****** ****** ****** ****** ****** ****** ****** ****** ******
      ****** ****** ****** ****** ****** ****** ****** ****** ****** ******
      ****** ****** ****** ****** ****** ****** ****** ****** ****** ******
   4  ****** ****** ****** ****** ****** ****** ****** ****** ****** ******
      ****** ****** ****** ****** ****** ****** ****** ****** ****** ******
      ****** ****** ****** ****** ****** ****** ****** ****** ****** ******
   5  ****** ****** ****** ****** ****** ****** ****** ****** ****** ******
      ****** ****** ****** ****** ****** ****** ****** ****** ****** ******
      ****** ****** ****** ****** ****** ****** ****** ****** ****** ******
   6  ****** ****** ****** ****** ****** ****** ****** ****** ****** ******
      ****** ****** ****** ****** ****** ****** ****** ****** ****** ******
      ****** ****** ****** ****** ****** ****** ****** ****** ****** ******
   7  ****** ****** ****** ****** ****** ****** ****** ****** ****** ******
      ****** ****** ****** ****** ****** ****** ****** ****** ****** ******
      ****** ****** ****** ****** ****** ****** ****** ****** ****** ******
   8  ****** ****** ****** ****** ****** ****** ****** ****** ****** ******
      ****** ****** ****** ****** ****** ****** ****** ****** ****** ******
      ****** ****** ****** ****** ****** ****** ****** ****** ****** ******
   9  ****** ****** ****** ****** ****** ****** ****** ****** ****** ******
      ****** ****** ****** ****** ****** ****** ****** ****** ****** ******
      ****** ****** ****** ****** ****** ****** ****** ****** ****** ******
  10  ****** ****** ****** ****** ****** ****** ****** ****** ****** ******
      ****** ****** ****** ****** ****** ****** ****** ****** ****** ******
      ****** ****** ****** ****** ****** ****** ****** ****** ****** ******
  11  ****** ****** ****** ****** ****** ****** ****** ****** ****** ******
      ****** ****** ****** ****** ****** ****** ****** ****** ****** ******
      ****** ****** ****** ****** ****** ****** ****** ****** ****** ******
  12  ****** ****** ****** ****** ****** ****** ****** ****** ****** ******
      ****** ****** ****** ****** ****** ****** ****** ****** ****** ******
      ****** ****** ****** ****** ****** ****** ****** ****** ****** ******
  13  ****** ****** ****** ****** ****** ****** ****** ****** ****** ******
      ****** ****** ****** ****** ****** ****** ****** ****** ****** ******
      ****** ****** ****** ****** ****** ****** ****** ****** ****** ******
  14  ****** ****** ****** ****** ****** ****** ****** ****** ****** ******
      ****** ****** ****** ****** ****** ****** ****** ****** ****** ******
      ****** ****** ****** ****** ****** ****** ****** ****** ****** ******
  15  ****** ****** ****** ****** ****** ****** ****** ****** ****** ******
      ****** ****** ****** ****** ****** ****** ****** ****** ****** ******
      ****** ****** ****** ****** ****** ****** ****** ****** ****** ******
  16  ****** ****** ****** ****** ****** ****** ****** ****** ****** ******
      ****** ****** ****** ****** ****** ****** ****** ****** ****** ******
      ****** ****** ****** ****** ****** ****** ****** ****** ****** ******
  17  ****** ****** ****** ****** ****** ****** ****** ****** ****** ******
      ****** ****** ****** ****** ****** ****** ****** ****** ****** ******
      ****** ****** ****** ****** ****** ****** ****** ****** ****** ******
  18  ****** ****** ****** ****** ****** ****** ****** ****** ****** ******
      ****** ****** ****** ****** ****** ****** ****** ****** ****** ******
      ****** ****** ****** ****** ****** ****** ****** ****** ****** ******
  19  ****** ****** ****** ****** ****** ****** ****** ****** ****** ******
      ****** ****** ****** ****** ****** ****** ****** ****** ****** ******
      ****** ****** ****** ****** ****** ****** ****** ****** ****** ******
  20  ****** ****** ****** ****** ****** ****** ****** ****** ****** ******
      ****** ****** ****** ****** ****** ****** ****** ****** ****** ******
      ****** ****** ****** ****** ****** ****** ****** ****** ****** ******
  21  ****** ****** ****** ****** ****** ****** ****** ****** ****** ******
      ****** ****** ****** ****** ****** ****** ****** ****** ****** ******
      ****** ****** ****** ****** ****** ****** ****** ****** ****** ******
  22  ****** ****** ****** ****** ****** ****** ****** ****** ****** ******
      ****** ****** ****** ****** ****** ****** ****** ****** ****** ******
      ****** ****** ****** ****** ****** ****** ****** ****** ****** ******
  23  ****** ****** ****** ****** ****** ****** ****** ****** ****** ******
      ****** ****** ****** ****** ****** ****** ****** ****** ****** ******
      ****** ****** ****** ****** ****** ****** ****** ****** ****** ******
  24  ****** ****** ****** ****** ****** ****** ****** ****** ****** ******
      ****** ****** ****** ****** ****** ****** ****** ****** ****** ******
      ****** ****** ****** ****** ****** ****** ****** ****** ****** ******
  25  ****** ****** ****** ****** ****** ****** ****** ****** ****** ******
      ****** ****** ****** ****** ****** ****** ****** ****** ****** ******
      ****** ****** ****** ****** ****** ****** ****** ****** ****** ******

 HEAD WILL BE SAVED ON UNIT   51 AT END OF TIME STEP    1, STRESS PERIOD   12
1
  VOLUMETRIC BUDGET FOR ENTIRE MODEL AT END OF TIME STEP    1, STRESS PERIOD  12
  ------------------------------------------------------------------------------

     CUMULATIVE VOLUMES      L**3       RATES FOR THIS TIME STEP      L**3/T
     ------------------                 ------------------------

           IN:                                      IN:
           ---                                      ---
             STORAGE =    35268947.8754               STORAGE =           6.8323
       CONSTANT HEAD =    30997460.7528         CONSTANT HEAD =       33318.5453
               WELLS =           0.0000                 WELLS =           0.0000
            RECHARGE =    26413200.0000              RECHARGE =       27600.0000
      STREAM LEAKAGE =    16058534.5369        STREAM LEAKAGE =       17868.9252

            TOTAL IN =   108738143.1651              TOTAL IN =       78794.3028

          OUT:                                     OUT:
          ----                                     ----
             STORAGE =     2671628.3583               STORAGE =        3049.4493
       CONSTANT HEAD =           0.0000         CONSTANT HEAD =           0.0000
               WELLS =    44482289.4034                 WELLS =       40623.0953
            RECHARGE =           0.0000              RECHARGE =           0.0000
      STREAM LEAKAGE =    61584227.3021        STREAM LEAKAGE =       35121.7575

           TOTAL OUT =   108738145.0638             TOTAL OUT =       78794.3022

            IN - OUT =          -1.8986              IN - OUT =       6.5150E-04

 PERCENT DISCREPANCY =          -0.00     PERCENT DISCREPANCY =           0.00






         TIME SUMMARY AT END OF TIME STEP    1 IN STRESS PERIOD   12
                    SECONDS     MINUTES      HOURS       DAYS        YEARS
                    -----------------------------------------------------------
   TIME STEP LENGTH 7.86240E+06 1.31040E+05  2184.0      91.000     0.24914    
 STRESS PERIOD TIME 7.86240E+06 1.31040E+05  2184.0      91.000     0.24914    
         TOTAL TIME 9.46080E+07 1.57680E+06  26280.      1095.0      2.9979    
1

 Run end date and time (yyyy/mm/dd hh:mm:ss): 2019/02/14 22:03:50
 Elapsed run time:  0.139 Seconds

