                                  MODFLOW-2005     
      U.S. GEOLOGICAL SURVEY MODULAR FINITE-DIFFERENCE GROUND-WATER FLOW MODEL
                            VERSION 1.11.00 8/8/2013

 LIST FILE: supply2.lst
                         UNIT   10

 OPENING ..\data\supply.dis
 FILE TYPE:DIS   UNIT   11   STATUS:OLD    
 FORMAT:FORMATTED              ACCESS:SEQUENTIAL          

 OPENING ..\data\supply.ba6
 FILE TYPE:BAS6   UNIT   12   STATUS:OLD    
 FORMAT:FORMATTED              ACCESS:SEQUENTIAL          

 OPENING ..\data\supply.bc6
 FILE TYPE:BCF6   UNIT   13   STATUS:OLD    
 FORMAT:FORMATTED              ACCESS:SEQUENTIAL          

 OPENING ..\data\supply.rch
 FILE TYPE:RCH   UNIT   15   STATUS:OLD    
 FORMAT:FORMATTED              ACCESS:SEQUENTIAL          

 OPENING ..\data\supply2.sfr
 FILE TYPE:SFR   UNIT   16   STATUS:OLD    
 FORMAT:FORMATTED              ACCESS:SEQUENTIAL          

 OPENING ..\data\supply.oc
 FILE TYPE:OC   UNIT   17   STATUS:OLD    
 FORMAT:FORMATTED              ACCESS:SEQUENTIAL          

 OPENING ..\data\supply.pcg
 FILE TYPE:PCG   UNIT   18   STATUS:OLD    
 FORMAT:FORMATTED              ACCESS:SEQUENTIAL          

 OPENING supply2.wel
 FILE TYPE:WEL   UNIT   19   STATUS:OLD    
 FORMAT:FORMATTED              ACCESS:SEQUENTIAL          

 OPENING supply2sf.bin
 FILE TYPE:DATA(BINARY)   UNIT   50   STATUS:UNKNOWN
 FORMAT:BINARY                 ACCESS:SEQUENTIAL          

 OPENING supply2hd.bin
 FILE TYPE:DATA(BINARY)   UNIT   51   STATUS:UNKNOWN
 FORMAT:BINARY                 ACCESS:SEQUENTIAL          

 BAS -- BASIC PACKAGE, VERSION 7, 5/2/2005 INPUT READ FROM UNIT   12
 
 MODFLOW was compiled using uniform precision
 Precision of REAL and DOUBLE PRECISION variables:          15

 DISCRETIZATION INPUT DATA READ FROM UNIT   11
    1 LAYERS        25 ROWS        30 COLUMNS
   12 STRESS PERIOD(S) IN SIMULATION
 MODEL TIME UNIT IS DAYS
 MODEL LENGTH UNIT IS UNDEFINED
  Confining bed flag for each layer:
   0

                     DELR =   200.000    

                     DELC =   200.000    

 TOP ELEVATION OF LAYER 1 =  100.0000    

   MODEL LAYER BOTTOM EL. =   0.00000     FOR LAYER   1


 STRESS PERIOD     LENGTH       TIME STEPS     MULTIPLIER FOR DELT    SS FLAG
 ----------------------------------------------------------------------------
        1         92.00000          1                    1.500         TR
        2         91.00000          1                    1.500         TR
        3         91.00000          1                    1.500         TR
        4         91.00000          1                    1.500         TR
        5         92.00000          1                    1.500         TR
        6         91.00000          1                    1.500         TR
        7         91.00000          1                    1.500         TR
        8         91.00000          1                    1.500         TR
        9         92.00000          1                    1.500         TR
       10         91.00000          1                    1.500         TR
       11         91.00000          1                    1.500         TR
       12         91.00000          1                    1.500         TR

 TRANSIENT SIMULATION



 
 #MODOFC transient water supply sample problem                                   
 #                                                                               
 THE FREE FORMAT OPTION HAS BEEN SELECTED



                     BOUNDARY ARRAY FOR LAYER   1
 READING ON UNIT   12 WITH FORMAT: (20I4)              

 AQUIFER HEAD WILL BE SET TO   0.0000     AT ALL NO-FLOW NODES (IBOUND=0).



                       INITIAL HEAD FOR LAYER   1
 READING ON UNIT   12 WITH FORMAT: (10F13.0)           

 OUTPUT CONTROL IS SPECIFIED ONLY AT TIME STEPS FOR WHICH OUTPUT IS DESIRED
 COMPACT CELL-BY-CELL BUDGET FILES WILL BE WRITTEN
 HEAD PRINT FORMAT CODE IS  18    DRAWDOWN PRINT FORMAT CODE IS   0
 HEADS WILL BE SAVED ON UNIT   51    DRAWDOWNS WILL BE SAVED ON UNIT    0

 BCF -- BLOCK-CENTERED FLOW PACKAGE, VERSION 7, 5/2/2005
         INPUT READ FROM UNIT 13
 TRANSIENT SIMULATION
 HEAD AT CELLS THAT CONVERT TO DRY=   0.0000    
 WETTING CAPABILITY IS NOT ACTIVE
      LAYER  LAYER-TYPE CODE     INTERBLOCK T
      --------------------------------------------
         1            0          0 -- HARMONIC    

 COLUMN TO ROW ANISOTROPY =  1.000000    

     PRIMARY STORAGE COEF =  5.000000E-02 FOR LAYER   1

     TRANSMIS. ALONG ROWS =   5000.00     FOR LAYER   1

 WEL -- WELL PACKAGE, VERSION 7, 5/2/2005 INPUT READ FROM UNIT   19
 # Well package input file written by MMProc
 No named parameters
 MAXIMUM OF      7 ACTIVE WELLS AT ONE TIME


     0 Well parameters

 RCH -- RECHARGE PACKAGE, VERSION 7, 5/2/2005 INPUT READ FROM UNIT   15
 No named parameters
 OPTION 1 -- RECHARGE TO TOP LAYER


     0 Recharge parameters

 SFR7 -- STREAMFLOW ROUTING PACKAGE, VERSION 1.0.7, 2013-01-15
         INPUT READ FROM UNIT  16
 #  Supply2 test problem for GWM-VI
 #  The eighth entry in the first data line is ISTCB2 -
 #    Setting this to a negative number indicates that
 #    streamflows out of the reach will be saved to a
 #    binary file.  The absolute value of ISTCB2 is the
 #    unit to which unformatted flows will be written.
 #
 No named parameters
 Segment information will not be 
 read by reach
 No named parameters
 No specifed inflow files


 NUMBER OF STREAM REACHES IS   40

 NUMBER OF STREAM SEGMENTS IS    3

 NUMBER OF STREAM PARAMETERS IS    0

 NUMBER OF STREAM SEGMENTS DEFINED USING PARAMETERS IS              0

 MAXIMUM ERROR FOR STREAM LEAKAGE RATES IS  1.00E-04

 CONSTANT FOR MANNINGS EQUATION IS  1.2839E+05





   STREAM NETWORK DESCRIPTION: 

   LAYER    ROW    COL   SEGMENT   REACH     LENGTH
                          NUMBER   NUMBER    IN CELL        
   --------------------------------------------------
      1     13      1       1        1    2.0000E+02
      1     13      2       1        2    2.0000E+02
      1     14      3       1        3    2.0000E+02
      1     15      4       1        4    2.0000E+02
      1     16      5       1        5    2.0000E+02
      1     16      6       1        6    2.0000E+02
      1     16      7       1        7    2.0000E+02
      1     16      8       1        8    2.0000E+02
      1     16      9       1        9    2.0000E+02
      1     16     10       1       10    2.0000E+02
      1     16     11       1       11    2.0000E+02
      1     16     12       1       12    2.0000E+02
      1     15     13       1       13    2.0000E+02
      1     14     14       1       14    2.0000E+02
      1     13     15       1       15    2.0000E+02
      1     12     16       1       16    2.0000E+02
      1     12     17       1       17    2.0000E+02
      1     12     18       1       18    2.0000E+02
      1     12     19       1       19    2.0000E+02
      1     13     20       1       20    2.0000E+02
      1     14     21       1       21    2.0000E+02
      1     14     22       1       22    2.0000E+02
      1      9     30       2        1    2.0000E+02
      1      9     29       2        2    2.0000E+02
      1      9     28       2        3    2.0000E+02
      1      9     27       2        4    2.0000E+02
      1     10     26       2        5    2.0000E+02
      1     11     25       2        6    2.0000E+02
      1     12     24       2        7    2.0000E+02
      1     13     23       2        8    2.0000E+02
      1     14     22       2        9    2.0000E+02
      1     14     22       3        1    2.0000E+02
      1     15     23       3        2    2.0000E+02
      1     15     24       3        3    2.0000E+02
      1     15     25       3        4    2.0000E+02
      1     15     26       3        5    2.0000E+02
      1     16     27       3        6    2.0000E+02
      1     17     28       3        7    2.0000E+02
      1     18     29       3        8    2.0000E+02
      1     18     30       3        9    2.0000E+02




 PCG -- CONJUGATE-GRADIENT SOLUTION PACKAGE, VERSION 7, 5/2/2005
 MAXIMUM OF    500 CALLS OF SOLUTION ROUTINE
 MAXIMUM OF      5 INTERNAL ITERATIONS PER CALL TO SOLUTION ROUTINE
 MATRIX PRECONDITIONING TYPE :    1



                                    SOLUTION BY THE CONJUGATE-GRADIENT METHOD
                                   -------------------------------------------
                    MAXIMUM NUMBER OF CALLS TO PCG ROUTINE =      500
                        MAXIMUM ITERATIONS PER CALL TO PCG =        5
                               MATRIX PRECONDITIONING TYPE =        1
        RELAXATION FACTOR (ONLY USED WITH PRECOND. TYPE 1) =    0.10000E+01
 PARAMETER OF POLYNOMIAL PRECOND. = 2 (2) OR IS CALCULATED :        0
                         HEAD CHANGE CRITERION FOR CLOSURE =    0.10000E-05
                     RESIDUAL CHANGE CRITERION FOR CLOSURE =    0.10000E+01
            PCG HEAD AND RESIDUAL CHANGE PRINTOUT INTERVAL =        1
     PRINTING FROM SOLVER IS LIMITED(1) OR SUPPRESSED (>1) =        1
                            STEADY-STATE DAMPING PARAMETER =    0.10000E+01
                               TRANSIENT DAMPING PARAMETER =    0.10000E+01
1
                            STRESS PERIOD NO.    1, LENGTH =   92.00000    
                            -----------------------------------------------

                              NUMBER OF TIME STEPS =     1

                               MULTIPLIER FOR DELT =     1.500

                            INITIAL TIME STEP SIZE =   92.00000    

 WELL NO.  LAYER   ROW   COL   STRESS RATE         
 --------------------------------------------------
      1      1      5      8     -0.5000E+05
      2      1      3      6     -0.3000E+05

      2 WELLS

                 RECHARGE =  5.000000E-04



 CLASSIFICATION & COUNT OF STREAM SEGMENTS BASED ON SOURCE OF INFLOW:

                HEADWATER     DIVERSION     RECEIVES TRIBUTARY FLOW
                ---------     ---------     -----------------------
                     2              0               1



                    INPUT DATA FOR EACH STREAM SEGMENT
 ---------------------------------------------------------------------------------------------

 SEGMENT    SEG.     INFLOW   OVERLAND   STREAM    STREAM   ICALC  OUTFLOW  DIVERSION PRIORITY
    NO.    LENGTH     RATE     RUNOFF      ET       PPT.    METH.  TO SEG.  FROM SEG.    NO.

      1  4.400E+03 1.000E+05 0.000E+00 0.000E+00 0.000E+00    1        3        0        0
      2  1.800E+03 5.000E+04 0.000E+00 0.000E+00 0.000E+00    1        3        0        0
      3  1.800E+03 0.000E+00 0.000E+00 0.000E+00 0.000E+00    1        0        0        0


         STREAMBED PROPERTIES AND STREAM DIMENSIONS

 SEGMENT     BED HYD. COND.      BED THICKNESS     ELEV.-TOP OF BED     WIDTH OF STREAM     DEPTH OF STREAM    STREAM ROUGHNESS
    No.     UPPER     LOWER     UPPER     LOWER     UPPER     LOWER     UPPER     LOWER     UPPER     LOWER   CHANNEL      BANK

     1  5.000E+00 5.000E+00 1.000E+00 1.000E+00 4.850E+01 3.800E+01 2.000E+01 2.000E+01                     5.000E-02
     2  5.000E+00 5.000E+00 1.000E+00 1.000E+00 4.025E+01 3.800E+01 2.000E+01 2.000E+01                     5.000E-02
     3  5.000E+00 5.000E+00 1.000E+00 1.000E+00 3.800E+01 3.000E+01 2.000E+01 2.000E+01                     5.000E-02



 
 SOLVING FOR HEAD 


     8 CALLS TO PCG ROUTINE FOR TIME STEP   1 IN STRESS PERIOD    1
    32 TOTAL ITERATIONS

 OUTPUT CONTROL FOR STRESS PERIOD    1   TIME STEP    1
    SAVE BUDGET
    SAVE HEAD FOR ALL LAYERS
    PRINT HEAD FOR ALL LAYERS
 UBDSV2 SAVING "STREAMFLOW OUT  " ON UNIT  50 AT TIME STEP  1, STRESS PERIOD   1



 STREAM LISTING     PERIOD      1   STEP        1

 LAYER ROW COL. STREAM  RCH.  FLOW INTO     FLOW TO   FLOW OUT OF   OVRLND.     DIRECT     STREAM       STREAM     STREAM     STREAM   STREAMBED  STREAMBED
                SEG.NO.  NO.  STRM. RCH.    AQUIFER    STRM. RCH.    RUNOFF     PRECIP       ET          HEAD       DEPTH      WIDTH   CONDCTNC.   GRADIENT

   1   13    1     1     1    1.0000E+05 -3.0155E+04   1.3015E+05  0.000E+00  0.000E+00  0.000E+00  4.84187E+01  1.574E-01  2.000E+01  2.000E+04 -1.508E+00
   1   13    2     1     2    1.3015E+05 -4.0141E+04   1.7030E+05  0.000E+00  0.000E+00  0.000E+00  4.79687E+01  1.847E-01  2.000E+01  2.000E+04 -2.007E+00
   1   14    3     1     3    1.7030E+05 -3.6252E+04   2.0655E+05  0.000E+00  0.000E+00  0.000E+00  4.75184E+01  2.115E-01  2.000E+01  2.000E+04 -1.813E+00
   1   15    4     1     4    2.0655E+05 -3.5715E+04   2.4226E+05  0.000E+00  0.000E+00  0.000E+00  4.70645E+01  2.349E-01  2.000E+01  2.000E+04 -1.786E+00
   1   16    5     1     5    2.4226E+05 -3.7118E+04   2.7938E+05  0.000E+00  0.000E+00  0.000E+00  4.66094E+01  2.571E-01  2.000E+01  2.000E+04 -1.856E+00
   1   16    6     1     6    2.7938E+05 -3.2328E+04   3.1171E+05  0.000E+00  0.000E+00  0.000E+00  4.61521E+01  2.771E-01  2.000E+01  2.000E+04 -1.616E+00
   1   16    7     1     7    3.1171E+05 -3.2098E+04   3.4381E+05  0.000E+00  0.000E+00  0.000E+00  4.56926E+01  2.949E-01  2.000E+01  2.000E+04 -1.605E+00
   1   16    8     1     8    3.4381E+05 -3.2307E+04   3.7611E+05  0.000E+00  0.000E+00  0.000E+00  4.52324E+01  3.119E-01  2.000E+01  2.000E+04 -1.615E+00
   1   16    9     1     9    3.7611E+05 -3.2439E+04   4.0855E+05  0.000E+00  0.000E+00  0.000E+00  4.47717E+01  3.285E-01  2.000E+01  2.000E+04 -1.622E+00
   1   16   10     1    10    4.0855E+05 -3.2543E+04   4.4109E+05  0.000E+00  0.000E+00  0.000E+00  4.43105E+01  3.445E-01  2.000E+01  2.000E+04 -1.627E+00
   1   16   11     1    11    4.4109E+05 -3.3307E+04   4.7440E+05  0.000E+00  0.000E+00  0.000E+00  4.38490E+01  3.603E-01  2.000E+01  2.000E+04 -1.665E+00
   1   16   12     1    12    4.7440E+05 -3.9515E+04   5.1392E+05  0.000E+00  0.000E+00  0.000E+00  4.33886E+01  3.773E-01  2.000E+01  2.000E+04 -1.976E+00
   1   15   13     1    13    5.1392E+05 -3.8598E+04   5.5251E+05  0.000E+00  0.000E+00  0.000E+00  4.29290E+01  3.949E-01  2.000E+01  2.000E+04 -1.930E+00
   1   14   14     1    14    5.5251E+05 -3.9262E+04   5.9178E+05  0.000E+00  0.000E+00  0.000E+00  4.24688E+01  4.119E-01  2.000E+01  2.000E+04 -1.963E+00
   1   13   15     1    15    5.9178E+05 -4.1363E+04   6.3314E+05  0.000E+00  0.000E+00  0.000E+00  4.20087E+01  4.291E-01  2.000E+01  2.000E+04 -2.068E+00
   1   12   16     1    16    6.3314E+05 -4.7037E+04   6.8018E+05  0.000E+00  0.000E+00  0.000E+00  4.15497E+01  4.474E-01  2.000E+01  2.000E+04 -2.352E+00
   1   12   17     1    17    6.8018E+05 -3.7245E+04   7.1742E+05  0.000E+00  0.000E+00  0.000E+00  4.10894E+01  4.644E-01  2.000E+01  2.000E+04 -1.862E+00
   1   12   18     1    18    7.1742E+05 -3.5675E+04   7.5310E+05  0.000E+00  0.000E+00  0.000E+00  4.06266E+01  4.788E-01  2.000E+01  2.000E+04 -1.784E+00
   1   12   19     1    19    7.5310E+05 -4.0179E+04   7.9328E+05  0.000E+00  0.000E+00  0.000E+00  4.01640E+01  4.935E-01  2.000E+01  2.000E+04 -2.009E+00
   1   13   20     1    20    7.9328E+05 -3.0567E+04   8.2384E+05  0.000E+00  0.000E+00  0.000E+00  3.97001E+01  5.069E-01  2.000E+01  2.000E+04 -1.528E+00
   1   14   21     1    21    8.2384E+05 -2.3003E+04   8.4685E+05  0.000E+00  0.000E+00  0.000E+00  3.92329E+01  5.169E-01  2.000E+01  2.000E+04 -1.150E+00
   1   14   22     1    22    8.4685E+05 -3.0078E+03   8.4985E+05  0.000E+00  0.000E+00  0.000E+00  3.87604E+01  5.218E-01  2.000E+01  2.000E+04 -1.504E-01
   1    9   30     2     1    5.0000E+04 -2.9657E+04   7.9657E+04  0.000E+00  0.000E+00  0.000E+00  4.02604E+01  1.354E-01  2.000E+01  2.000E+04 -1.483E+00
   1    9   29     2     2    7.9657E+04 -3.2094E+04   1.1175E+05  0.000E+00  0.000E+00  0.000E+00  4.00461E+01  1.711E-01  2.000E+01  2.000E+04 -1.605E+00
   1    9   28     2     3    1.1175E+05 -3.6408E+04   1.4816E+05  0.000E+00  0.000E+00  0.000E+00  3.98305E+01  2.055E-01  2.000E+01  2.000E+04 -1.820E+00
   1    9   27     2     4    1.4816E+05 -5.1015E+04   1.9917E+05  0.000E+00  0.000E+00  0.000E+00  3.96196E+01  2.446E-01  2.000E+01  2.000E+04 -2.551E+00
   1   10   26     2     5    1.9917E+05 -3.7419E+04   2.3659E+05  0.000E+00  0.000E+00  0.000E+00  3.94052E+01  2.802E-01  2.000E+01  2.000E+04 -1.871E+00
   1   11   25     2     6    2.3659E+05 -2.9026E+04   2.6562E+05  0.000E+00  0.000E+00  0.000E+00  3.91801E+01  3.051E-01  2.000E+01  2.000E+04 -1.451E+00
   1   12   24     2     7    2.6562E+05 -2.2076E+04   2.8769E+05  0.000E+00  0.000E+00  0.000E+00  3.89484E+01  3.234E-01  2.000E+01  2.000E+04 -1.104E+00
   1   13   23     2     8    2.8769E+05 -1.6059E+04   3.0375E+05  0.000E+00  0.000E+00  0.000E+00  3.87116E+01  3.366E-01  2.000E+01  2.000E+04 -8.030E-01
   1   14   22     2     9    3.0375E+05 -8.8154E+03   3.1257E+05  0.000E+00  0.000E+00  0.000E+00  3.84700E+01  3.450E-01  2.000E+01  2.000E+04 -4.408E-01
   1   14   22     3     1    1.1624E+06 -1.6599E+04   1.1790E+06  0.000E+00  0.000E+00  0.000E+00  3.80808E+01  5.253E-01  2.000E+01  2.000E+04 -8.300E-01
   1   15   23     3     2    1.1790E+06 -2.6749E+04   1.2058E+06  0.000E+00  0.000E+00  0.000E+00  3.71977E+01  5.311E-01  2.000E+01  2.000E+04 -1.337E+00
   1   15   24     3     3    1.2058E+06 -2.2389E+04   1.2282E+06  0.000E+00  0.000E+00  0.000E+00  3.63154E+01  5.376E-01  2.000E+01  2.000E+04 -1.119E+00
   1   15   25     3     4    1.2282E+06 -2.2113E+04   1.2503E+06  0.000E+00  0.000E+00  0.000E+00  3.54324E+01  5.435E-01  2.000E+01  2.000E+04 -1.106E+00
   1   15   26     3     5    1.2503E+06 -2.5540E+04   1.2758E+06  0.000E+00  0.000E+00  0.000E+00  3.45497E+01  5.497E-01  2.000E+01  2.000E+04 -1.277E+00
   1   16   27     3     6    1.2758E+06 -3.3265E+04   1.3091E+06  0.000E+00  0.000E+00  0.000E+00  3.36685E+01  5.574E-01  2.000E+01  2.000E+04 -1.663E+00
   1   17   28     3     7    1.3091E+06 -4.0273E+04   1.3494E+06  0.000E+00  0.000E+00  0.000E+00  3.27891E+01  5.668E-01  2.000E+01  2.000E+04 -2.014E+00
   1   18   29     3     8    1.3494E+06 -5.0723E+04   1.4001E+06  0.000E+00  0.000E+00  0.000E+00  3.19117E+01  5.784E-01  2.000E+01  2.000E+04 -2.536E+00
   1   18   30     3     9    1.4001E+06 -4.6719E+04   1.4468E+06  0.000E+00  0.000E+00  0.000E+00  3.10351E+01  5.906E-01  2.000E+01  2.000E+04 -2.336E+00



1
              HEAD IN LAYER   1 AT END OF TIME STEP   1 IN STRESS PERIOD    1
  ---------------------------------------------------------------------------

          1      2      3      4      5      6      7      8      9     10
         11     12     13     14     15     16     17     18     19     20
         21     22     23     24     25     26     27     28     29     30
 .........................................................................
   1  ****** ****** ****** ****** ****** ****** ****** ****** ****** ******
      ****** ****** ****** ****** ****** ****** ****** ****** ****** ******
      ****** ****** ****** ****** ****** ****** ****** ****** ****** ******
   2  ****** ****** ****** ****** ****** ****** ****** ****** ****** ******
      ****** ****** ****** ****** ****** ****** ****** ****** ****** ******
      ****** ****** ****** ****** ****** ****** ****** ****** ****** ******
   3  ****** ****** ****** ****** ****** ****** ****** ****** ****** ******
      ****** ****** ****** ****** ****** ****** ****** ****** ****** ******
      ****** ****** ****** ****** ****** ****** ****** ****** ****** ******
   4  ****** ****** ****** ****** ****** ****** ****** ****** ****** ******
      ****** ****** ****** ****** ****** ****** ****** ****** ****** ******
      ****** ****** ****** ****** ****** ****** ****** ****** ****** ******
   5  ****** ****** ****** ****** ****** ****** ****** ****** ****** ******
      ****** ****** ****** ****** ****** ****** ****** ****** ****** ******
      ****** ****** ****** ****** ****** ****** ****** ****** ****** ******
   6  ****** ****** ****** ****** ****** ****** ****** ****** ****** ******
      ****** ****** ****** ****** ****** ****** ****** ****** ****** ******
      ****** ****** ****** ****** ****** ****** ****** ****** ****** ******
   7  ****** ****** ****** ****** ****** ****** ****** ****** ****** ******
      ****** ****** ****** ****** ****** ****** ****** ****** ****** ******
      ****** ****** ****** ****** ****** ****** ****** ****** ****** ******
   8  ****** ****** ****** ****** ****** ****** ****** ****** ****** ******
      ****** ****** ****** ****** ****** ****** ****** ****** ****** ******
      ****** ****** ****** ****** ****** ****** ****** ****** ****** ******
   9  ****** ****** ****** ****** ****** ****** ****** ****** ****** ******
      ****** ****** ****** ****** ****** ****** ****** ****** ****** ******
      ****** ****** ****** ****** ****** ****** ****** ****** ****** ******
  10  ****** ****** ****** ****** ****** ****** ****** ****** ****** ******
      ****** ****** ****** ****** ****** ****** ****** ****** ****** ******
      ****** ****** ****** ****** ****** ****** ****** ****** ****** ******
  11  ****** ****** ****** ****** ****** ****** ****** ****** ****** ******
      ****** ****** ****** ****** ****** ****** ****** ****** ****** ******
      ****** ****** ****** ****** ****** ****** ****** ****** ****** ******
  12  ****** ****** ****** ****** ****** ****** ****** ****** ****** ******
      ****** ****** ****** ****** ****** ****** ****** ****** ****** ******
      ****** ****** ****** ****** ****** ****** ****** ****** ****** ******
  13  ****** ****** ****** ****** ****** ****** ****** ****** ****** ******
      ****** ****** ****** ****** ****** ****** ****** ****** ****** ******
      ****** ****** ****** ****** ****** ****** ****** ****** ****** ******
  14  ****** ****** ****** ****** ****** ****** ****** ****** ****** ******
      ****** ****** ****** ****** ****** ****** ****** ****** ****** ******
      ****** ****** ****** ****** ****** ****** ****** ****** ****** ******
  15  ****** ****** ****** ****** ****** ****** ****** ****** ****** ******
      ****** ****** ****** ****** ****** ****** ****** ****** ****** ******
      ****** ****** ****** ****** ****** ****** ****** ****** ****** ******
  16  ****** ****** ****** ****** ****** ****** ****** ****** ****** ******
      ****** ****** ****** ****** ****** ****** ****** ****** ****** ******
      ****** ****** ****** ****** ****** ****** ****** ****** ****** ******
  17  ****** ****** ****** ****** ****** ****** ****** ****** ****** ******
      ****** ****** ****** ****** ****** ****** ****** ****** ****** ******
      ****** ****** ****** ****** ****** ****** ****** ****** ****** ******
  18  ****** ****** ****** ****** ****** ****** ****** ****** ****** ******
      ****** ****** ****** ****** ****** ****** ****** ****** ****** ******
      ****** ****** ****** ****** ****** ****** ****** ****** ****** ******
  19  ****** ****** ****** ****** ****** ****** ****** ****** ****** ******
      ****** ****** ****** ****** ****** ****** ****** ****** ****** ******
      ****** ****** ****** ****** ****** ****** ****** ****** ****** ******
  20  ****** ****** ****** ****** ****** ****** ****** ****** ****** ******
      ****** ****** ****** ****** ****** ****** ****** ****** ****** ******
      ****** ****** ****** ****** ****** ****** ****** ****** ****** ******
  21  ****** ****** ****** ****** ****** ****** ****** ****** ****** ******
      ****** ****** ****** ****** ****** ****** ****** ****** ****** ******
      ****** ****** ****** ****** ****** ****** ****** ****** ****** ******
  22  ****** ****** ****** ****** ****** ****** ****** ****** ****** ******
      ****** ****** ****** ****** ****** ****** ****** ****** ****** ******
      ****** ****** ****** ****** ****** ****** ****** ****** ****** ******
  23  ****** ****** ****** ****** ****** ****** ****** ****** ****** ******
      ****** ****** ****** ****** ****** ****** ****** ****** ****** ******
      ****** ****** ****** ****** ****** ****** ****** ****** ****** ******
  24  ****** ****** ****** ****** ****** ****** ****** ****** ****** ******
      ****** ****** ****** ****** ****** ****** ****** ****** ****** ******
      ****** ****** ****** ****** ****** ****** ****** ****** ****** ******
  25  ****** ****** ****** ****** ****** ****** ****** ****** ****** ******
      ****** ****** ****** ****** ****** ****** ****** ****** ****** ******
      ****** ****** ****** ****** ****** ****** ****** ****** ****** ******

 HEAD WILL BE SAVED ON UNIT   51 AT END OF TIME STEP    1, STRESS PERIOD    1
1
  VOLUMETRIC BUDGET FOR ENTIRE MODEL AT END OF TIME STEP    1, STRESS PERIOD   1
  ------------------------------------------------------------------------------

     CUMULATIVE VOLUMES      L**3       RATES FOR THIS TIME STEP      L**3/T
     ------------------                 ------------------------

           IN:                                      IN:
           ---                                      ---
             STORAGE =    19341836.0981               STORAGE =      210237.3489
       CONSTANT HEAD =   106053827.4582         CONSTANT HEAD =     1152758.9941
               WELLS =           0.0000                 WELLS =           0.0000
            RECHARGE =     1269600.0000              RECHARGE =       13800.0000
      STREAM LEAKAGE =           0.0000        STREAM LEAKAGE =           0.0000

            TOTAL IN =   126665263.5563              TOTAL IN =     1376796.3430

          OUT:                                     OUT:
          ----                                     ----
             STORAGE =           0.0000               STORAGE =           0.0000
       CONSTANT HEAD =           0.0000         CONSTANT HEAD =           0.0000
               WELLS =     7360000.0000                 WELLS =       80000.0000
            RECHARGE =           0.0000              RECHARGE =           0.0000
      STREAM LEAKAGE =   119305265.4515        STREAM LEAKAGE =     1296796.3636

           TOTAL OUT =   126665265.4515             TOTAL OUT =     1376796.3636

            IN - OUT =          -1.8952              IN - OUT =      -2.0600E-02

 PERCENT DISCREPANCY =          -0.00     PERCENT DISCREPANCY =          -0.00






         TIME SUMMARY AT END OF TIME STEP    1 IN STRESS PERIOD    1
                    SECONDS     MINUTES      HOURS       DAYS        YEARS
                    -----------------------------------------------------------
   TIME STEP LENGTH 7.94880E+06 1.32480E+05  2208.0      92.000     0.25188    
 STRESS PERIOD TIME 7.94880E+06 1.32480E+05  2208.0      92.000     0.25188    
         TOTAL TIME 7.94880E+06 1.32480E+05  2208.0      92.000     0.25188    
1
1
                            STRESS PERIOD NO.    2, LENGTH =   91.00000    
                            -----------------------------------------------

                              NUMBER OF TIME STEPS =     1

                               MULTIPLIER FOR DELT =     1.500

                            INITIAL TIME STEP SIZE =   91.00000    

 WELL NO.  LAYER   ROW   COL   STRESS RATE         
 --------------------------------------------------
      1      1      5      8     -0.5000E+05
      2      1      3      6     -0.3000E+05
      3      1      3      9       0.000    

      3 WELLS

                 RECHARGE =  2.000000E-03

 REUSING STREAM SEGMENT DATA FROM LAST STRESS PERIOD
 
 SOLVING FOR HEAD 


     6 CALLS TO PCG ROUTINE FOR TIME STEP   1 IN STRESS PERIOD    2
    25 TOTAL ITERATIONS

 OUTPUT CONTROL FOR STRESS PERIOD    2   TIME STEP    1
    SAVE BUDGET
    SAVE HEAD FOR ALL LAYERS
    PRINT HEAD FOR ALL LAYERS
 UBDSV2 SAVING "STREAMFLOW OUT  " ON UNIT  50 AT TIME STEP  1, STRESS PERIOD   2



 STREAM LISTING     PERIOD      2   STEP        1

 LAYER ROW COL. STREAM  RCH.  FLOW INTO     FLOW TO   FLOW OUT OF   OVRLND.     DIRECT     STREAM       STREAM     STREAM     STREAM   STREAMBED  STREAMBED
                SEG.NO.  NO.  STRM. RCH.    AQUIFER    STRM. RCH.    RUNOFF     PRECIP       ET          HEAD       DEPTH      WIDTH   CONDCTNC.   GRADIENT

   1   13    1     1     1    1.0000E+05 -2.6841E+04   1.2684E+05  0.000E+00  0.000E+00  0.000E+00  4.84174E+01  1.560E-01  2.000E+01  2.000E+04 -1.342E+00
   1   13    2     1     2    1.2684E+05 -3.6201E+04   1.6304E+05  0.000E+00  0.000E+00  0.000E+00  4.79648E+01  1.807E-01  2.000E+01  2.000E+04 -1.810E+00
   1   14    3     1     3    1.6304E+05 -3.2275E+04   1.9532E+05  0.000E+00  0.000E+00  0.000E+00  4.75121E+01  2.053E-01  2.000E+01  2.000E+04 -1.614E+00
   1   15    4     1     4    1.9532E+05 -3.1922E+04   2.2724E+05  0.000E+00  0.000E+00  0.000E+00  4.70561E+01  2.266E-01  2.000E+01  2.000E+04 -1.596E+00
   1   16    5     1     5    2.2724E+05 -3.3869E+04   2.6111E+05  0.000E+00  0.000E+00  0.000E+00  4.65994E+01  2.471E-01  2.000E+01  2.000E+04 -1.693E+00
   1   16    6     1     6    2.6111E+05 -2.9448E+04   2.9056E+05  0.000E+00  0.000E+00  0.000E+00  4.61409E+01  2.659E-01  2.000E+01  2.000E+04 -1.472E+00
   1   16    7     1     7    2.9056E+05 -2.9222E+04   3.1978E+05  0.000E+00  0.000E+00  0.000E+00  4.56802E+01  2.825E-01  2.000E+01  2.000E+04 -1.461E+00
   1   16    8     1     8    3.1978E+05 -2.9409E+04   3.4919E+05  0.000E+00  0.000E+00  0.000E+00  4.52190E+01  2.985E-01  2.000E+01  2.000E+04 -1.470E+00
   1   16    9     1     9    3.4919E+05 -2.9534E+04   3.7872E+05  0.000E+00  0.000E+00  0.000E+00  4.47572E+01  3.140E-01  2.000E+01  2.000E+04 -1.477E+00
   1   16   10     1    10    3.7872E+05 -2.9644E+04   4.0836E+05  0.000E+00  0.000E+00  0.000E+00  4.42950E+01  3.291E-01  2.000E+01  2.000E+04 -1.482E+00
   1   16   11     1    11    4.0836E+05 -3.0380E+04   4.3874E+05  0.000E+00  0.000E+00  0.000E+00  4.38326E+01  3.439E-01  2.000E+01  2.000E+04 -1.519E+00
   1   16   12     1    12    4.3874E+05 -3.6158E+04   4.7490E+05  0.000E+00  0.000E+00  0.000E+00  4.33713E+01  3.599E-01  2.000E+01  2.000E+04 -1.808E+00
   1   15   13     1    13    4.7490E+05 -3.4662E+04   5.0956E+05  0.000E+00  0.000E+00  0.000E+00  4.29105E+01  3.764E-01  2.000E+01  2.000E+04 -1.733E+00
   1   14   14     1    14    5.0956E+05 -3.5113E+04   5.4468E+05  0.000E+00  0.000E+00  0.000E+00  4.24490E+01  3.922E-01  2.000E+01  2.000E+04 -1.756E+00
   1   13   15     1    15    5.4468E+05 -3.7242E+04   5.8192E+05  0.000E+00  0.000E+00  0.000E+00  4.19876E+01  4.081E-01  2.000E+01  2.000E+04 -1.862E+00
   1   12   16     1    16    5.8192E+05 -4.3196E+04   6.2511E+05  0.000E+00  0.000E+00  0.000E+00  4.15276E+01  4.253E-01  2.000E+01  2.000E+04 -2.160E+00
   1   12   17     1    17    6.2511E+05 -3.4080E+04   6.5919E+05  0.000E+00  0.000E+00  0.000E+00  4.10665E+01  4.415E-01  2.000E+01  2.000E+04 -1.704E+00
   1   12   18     1    18    6.5919E+05 -3.2623E+04   6.9182E+05  0.000E+00  0.000E+00  0.000E+00  4.06028E+01  4.551E-01  2.000E+01  2.000E+04 -1.631E+00
   1   12   19     1    19    6.9182E+05 -3.6832E+04   7.2865E+05  0.000E+00  0.000E+00  0.000E+00  4.01394E+01  4.690E-01  2.000E+01  2.000E+04 -1.842E+00
   1   13   20     1    20    7.2865E+05 -2.7298E+04   7.5595E+05  0.000E+00  0.000E+00  0.000E+00  3.96748E+01  4.816E-01  2.000E+01  2.000E+04 -1.365E+00
   1   14   21     1    21    7.5595E+05 -2.0242E+04   7.7619E+05  0.000E+00  0.000E+00  0.000E+00  3.92067E+01  4.908E-01  2.000E+01  2.000E+04 -1.012E+00
   1   14   22     1    22    7.7619E+05 -1.9661E+03   7.7815E+05  0.000E+00  0.000E+00  0.000E+00  3.87337E+01  4.950E-01  2.000E+01  2.000E+04 -9.831E-02
   1    9   30     2     1    5.0000E+04 -2.7000E+04   7.7000E+04  0.000E+00  0.000E+00  0.000E+00  4.02587E+01  1.337E-01  2.000E+01  2.000E+04 -1.350E+00
   1    9   29     2     2    7.7000E+04 -2.9464E+04   1.0646E+05  0.000E+00  0.000E+00  0.000E+00  4.00418E+01  1.668E-01  2.000E+01  2.000E+04 -1.473E+00
   1    9   28     2     3    1.0646E+05 -3.3761E+04   1.4023E+05  0.000E+00  0.000E+00  0.000E+00  3.98242E+01  1.992E-01  2.000E+01  2.000E+04 -1.688E+00
   1    9   27     2     4    1.4023E+05 -4.7970E+04   1.8820E+05  0.000E+00  0.000E+00  0.000E+00  3.96115E+01  2.365E-01  2.000E+01  2.000E+04 -2.399E+00
   1   10   26     2     5    1.8820E+05 -3.3963E+04   2.2216E+05  0.000E+00  0.000E+00  0.000E+00  3.93953E+01  2.703E-01  2.000E+01  2.000E+04 -1.698E+00
   1   11   25     2     6    2.2216E+05 -2.5590E+04   2.4775E+05  0.000E+00  0.000E+00  0.000E+00  3.91682E+01  2.932E-01  2.000E+01  2.000E+04 -1.280E+00
   1   12   24     2     7    2.4775E+05 -1.8963E+04   2.6671E+05  0.000E+00  0.000E+00  0.000E+00  3.89346E+01  3.096E-01  2.000E+01  2.000E+04 -9.481E-01
   1   13   23     2     8    2.6671E+05 -1.3530E+04   2.8024E+05  0.000E+00  0.000E+00  0.000E+00  3.86962E+01  3.212E-01  2.000E+01  2.000E+04 -6.765E-01
   1   14   22     2     9    2.8024E+05 -7.5687E+03   2.8781E+05  0.000E+00  0.000E+00  0.000E+00  3.84535E+01  3.285E-01  2.000E+01  2.000E+04 -3.784E-01
   1   14   22     3     1    1.0660E+06 -1.5554E+04   1.0815E+06  0.000E+00  0.000E+00  0.000E+00  3.80543E+01  4.987E-01  2.000E+01  2.000E+04 -7.777E-01
   1   15   23     3     2    1.0815E+06 -2.4218E+04   1.1057E+06  0.000E+00  0.000E+00  0.000E+00  3.71709E+01  5.042E-01  2.000E+01  2.000E+04 -1.211E+00
   1   15   24     3     3    1.1057E+06 -2.0151E+04   1.1259E+06  0.000E+00  0.000E+00  0.000E+00  3.62881E+01  5.103E-01  2.000E+01  2.000E+04 -1.008E+00
   1   15   25     3     4    1.1259E+06 -1.9739E+04   1.1456E+06  0.000E+00  0.000E+00  0.000E+00  3.54047E+01  5.158E-01  2.000E+01  2.000E+04 -9.870E-01
   1   15   26     3     5    1.1456E+06 -2.2559E+04   1.1682E+06  0.000E+00  0.000E+00  0.000E+00  3.45215E+01  5.215E-01  2.000E+01  2.000E+04 -1.128E+00
   1   16   27     3     6    1.1682E+06 -2.9839E+04   1.1980E+06  0.000E+00  0.000E+00  0.000E+00  3.36397E+01  5.286E-01  2.000E+01  2.000E+04 -1.492E+00
   1   17   28     3     7    1.1980E+06 -3.6912E+04   1.2349E+06  0.000E+00  0.000E+00  0.000E+00  3.27597E+01  5.375E-01  2.000E+01  2.000E+04 -1.846E+00
   1   18   29     3     8    1.2349E+06 -4.7866E+04   1.2828E+06  0.000E+00  0.000E+00  0.000E+00  3.18820E+01  5.486E-01  2.000E+01  2.000E+04 -2.393E+00
   1   18   30     3     9    1.2828E+06 -4.4193E+04   1.3270E+06  0.000E+00  0.000E+00  0.000E+00  3.10050E+01  5.606E-01  2.000E+01  2.000E+04 -2.210E+00



1
              HEAD IN LAYER   1 AT END OF TIME STEP   1 IN STRESS PERIOD    2
  ---------------------------------------------------------------------------

          1      2      3      4      5      6      7      8      9     10
         11     12     13     14     15     16     17     18     19     20
         21     22     23     24     25     26     27     28     29     30
 .........................................................................
   1  ****** ****** ****** ****** ****** ****** ****** ****** ****** ******
      ****** ****** ****** ****** ****** ****** ****** ****** ****** ******
      ****** ****** ****** ****** ****** ****** ****** ****** ****** ******
   2  ****** ****** ****** ****** ****** ****** ****** ****** ****** ******
      ****** ****** ****** ****** ****** ****** ****** ****** ****** ******
      ****** ****** ****** ****** ****** ****** ****** ****** ****** ******
   3  ****** ****** ****** ****** ****** ****** ****** ****** ****** ******
      ****** ****** ****** ****** ****** ****** ****** ****** ****** ******
      ****** ****** ****** ****** ****** ****** ****** ****** ****** ******
   4  ****** ****** ****** ****** ****** ****** ****** ****** ****** ******
      ****** ****** ****** ****** ****** ****** ****** ****** ****** ******
      ****** ****** ****** ****** ****** ****** ****** ****** ****** ******
   5  ****** ****** ****** ****** ****** ****** ****** ****** ****** ******
      ****** ****** ****** ****** ****** ****** ****** ****** ****** ******
      ****** ****** ****** ****** ****** ****** ****** ****** ****** ******
   6  ****** ****** ****** ****** ****** ****** ****** ****** ****** ******
      ****** ****** ****** ****** ****** ****** ****** ****** ****** ******
      ****** ****** ****** ****** ****** ****** ****** ****** ****** ******
   7  ****** ****** ****** ****** ****** ****** ****** ****** ****** ******
      ****** ****** ****** ****** ****** ****** ****** ****** ****** ******
      ****** ****** ****** ****** ****** ****** ****** ****** ****** ******
   8  ****** ****** ****** ****** ****** ****** ****** ****** ****** ******
      ****** ****** ****** ****** ****** ****** ****** ****** ****** ******
      ****** ****** ****** ****** ****** ****** ****** ****** ****** ******
   9  ****** ****** ****** ****** ****** ****** ****** ****** ****** ******
      ****** ****** ****** ****** ****** ****** ****** ****** ****** ******
      ****** ****** ****** ****** ****** ****** ****** ****** ****** ******
  10  ****** ****** ****** ****** ****** ****** ****** ****** ****** ******
      ****** ****** ****** ****** ****** ****** ****** ****** ****** ******
      ****** ****** ****** ****** ****** ****** ****** ****** ****** ******
  11  ****** ****** ****** ****** ****** ****** ****** ****** ****** ******
      ****** ****** ****** ****** ****** ****** ****** ****** ****** ******
      ****** ****** ****** ****** ****** ****** ****** ****** ****** ******
  12  ****** ****** ****** ****** ****** ****** ****** ****** ****** ******
      ****** ****** ****** ****** ****** ****** ****** ****** ****** ******
      ****** ****** ****** ****** ****** ****** ****** ****** ****** ******
  13  ****** ****** ****** ****** ****** ****** ****** ****** ****** ******
      ****** ****** ****** ****** ****** ****** ****** ****** ****** ******
      ****** ****** ****** ****** ****** ****** ****** ****** ****** ******
  14  ****** ****** ****** ****** ****** ****** ****** ****** ****** ******
      ****** ****** ****** ****** ****** ****** ****** ****** ****** ******
      ****** ****** ****** ****** ****** ****** ****** ****** ****** ******
  15  ****** ****** ****** ****** ****** ****** ****** ****** ****** ******
      ****** ****** ****** ****** ****** ****** ****** ****** ****** ******
      ****** ****** ****** ****** ****** ****** ****** ****** ****** ******
  16  ****** ****** ****** ****** ****** ****** ****** ****** ****** ******
      ****** ****** ****** ****** ****** ****** ****** ****** ****** ******
      ****** ****** ****** ****** ****** ****** ****** ****** ****** ******
  17  ****** ****** ****** ****** ****** ****** ****** ****** ****** ******
      ****** ****** ****** ****** ****** ****** ****** ****** ****** ******
      ****** ****** ****** ****** ****** ****** ****** ****** ****** ******
  18  ****** ****** ****** ****** ****** ****** ****** ****** ****** ******
      ****** ****** ****** ****** ****** ****** ****** ****** ****** ******
      ****** ****** ****** ****** ****** ****** ****** ****** ****** ******
  19  ****** ****** ****** ****** ****** ****** ****** ****** ****** ******
      ****** ****** ****** ****** ****** ****** ****** ****** ****** ******
      ****** ****** ****** ****** ****** ****** ****** ****** ****** ******
  20  ****** ****** ****** ****** ****** ****** ****** ****** ****** ******
      ****** ****** ****** ****** ****** ****** ****** ****** ****** ******
      ****** ****** ****** ****** ****** ****** ****** ****** ****** ******
  21  ****** ****** ****** ****** ****** ****** ****** ****** ****** ******
      ****** ****** ****** ****** ****** ****** ****** ****** ****** ******
      ****** ****** ****** ****** ****** ****** ****** ****** ****** ******
  22  ****** ****** ****** ****** ****** ****** ****** ****** ****** ******
      ****** ****** ****** ****** ****** ****** ****** ****** ****** ******
      ****** ****** ****** ****** ****** ****** ****** ****** ****** ******
  23  ****** ****** ****** ****** ****** ****** ****** ****** ****** ******
      ****** ****** ****** ****** ****** ****** ****** ****** ****** ******
      ****** ****** ****** ****** ****** ****** ****** ****** ****** ******
  24  ****** ****** ****** ****** ****** ****** ****** ****** ****** ******
      ****** ****** ****** ****** ****** ****** ****** ****** ****** ******
      ****** ****** ****** ****** ****** ****** ****** ****** ****** ******
  25  ****** ****** ****** ****** ****** ****** ****** ****** ****** ******
      ****** ****** ****** ****** ****** ****** ****** ****** ****** ******
      ****** ****** ****** ****** ****** ****** ****** ****** ****** ******

 HEAD WILL BE SAVED ON UNIT   51 AT END OF TIME STEP    1, STRESS PERIOD    2
1
  VOLUMETRIC BUDGET FOR ENTIRE MODEL AT END OF TIME STEP    1, STRESS PERIOD   2
  ------------------------------------------------------------------------------

     CUMULATIVE VOLUMES      L**3       RATES FOR THIS TIME STEP      L**3/T
     ------------------                 ------------------------

           IN:                                      IN:
           ---                                      ---
             STORAGE =    20040954.4846               STORAGE =        7682.6196
       CONSTANT HEAD =   214718177.7681         CONSTANT HEAD =     1194113.7397
               WELLS =           0.0000                 WELLS =           0.0000
            RECHARGE =     6292800.0000              RECHARGE =       55200.0000
      STREAM LEAKAGE =           0.0000        STREAM LEAKAGE =           0.0000

            TOTAL IN =   241051932.2527              TOTAL IN =     1256996.3593

          OUT:                                     OUT:
          ----                                     ----
             STORAGE =           0.0000               STORAGE =           0.0000
       CONSTANT HEAD =           0.0000         CONSTANT HEAD =           0.0000
               WELLS =    14640000.0000                 WELLS =       80000.0000
            RECHARGE =           0.0000              RECHARGE =           0.0000
      STREAM LEAKAGE =   226411935.8246        STREAM LEAKAGE =     1176996.3777

           TOTAL OUT =   241051935.8246             TOTAL OUT =     1256996.3777

            IN - OUT =          -3.5719              IN - OUT =      -1.8425E-02

 PERCENT DISCREPANCY =          -0.00     PERCENT DISCREPANCY =          -0.00






         TIME SUMMARY AT END OF TIME STEP    1 IN STRESS PERIOD    2
                    SECONDS     MINUTES      HOURS       DAYS        YEARS
                    -----------------------------------------------------------
   TIME STEP LENGTH 7.86240E+06 1.31040E+05  2184.0      91.000     0.24914    
 STRESS PERIOD TIME 7.86240E+06 1.31040E+05  2184.0      91.000     0.24914    
         TOTAL TIME 1.58112E+07 2.63520E+05  4392.0      183.00     0.50103    
1
1
                            STRESS PERIOD NO.    3, LENGTH =   91.00000    
                            -----------------------------------------------

                              NUMBER OF TIME STEPS =     1

                               MULTIPLIER FOR DELT =     1.500

                            INITIAL TIME STEP SIZE =   91.00000    

 WELL NO.  LAYER   ROW   COL   STRESS RATE         
 --------------------------------------------------
      1      1      5      8     -0.5000E+05
      2      1      3      6     -0.3000E+05

      2 WELLS

                 RECHARGE =   0.00000    

 REUSING STREAM SEGMENT DATA FROM LAST STRESS PERIOD
 
 SOLVING FOR HEAD 


     6 CALLS TO PCG ROUTINE FOR TIME STEP   1 IN STRESS PERIOD    3
    23 TOTAL ITERATIONS

 OUTPUT CONTROL FOR STRESS PERIOD    3   TIME STEP    1
    SAVE BUDGET
    SAVE HEAD FOR ALL LAYERS
    PRINT HEAD FOR ALL LAYERS
 UBDSV2 SAVING "STREAMFLOW OUT  " ON UNIT  50 AT TIME STEP  1, STRESS PERIOD   3



 STREAM LISTING     PERIOD      3   STEP        1

 LAYER ROW COL. STREAM  RCH.  FLOW INTO     FLOW TO   FLOW OUT OF   OVRLND.     DIRECT     STREAM       STREAM     STREAM     STREAM   STREAMBED  STREAMBED
                SEG.NO.  NO.  STRM. RCH.    AQUIFER    STRM. RCH.    RUNOFF     PRECIP       ET          HEAD       DEPTH      WIDTH   CONDCTNC.   GRADIENT

   1   13    1     1     1    1.0000E+05 -2.5795E+04   1.2579E+05  0.000E+00  0.000E+00  0.000E+00  4.84169E+01  1.556E-01  2.000E+01  2.000E+04 -1.290E+00
   1   13    2     1     2    1.2579E+05 -3.4942E+04   1.6074E+05  0.000E+00  0.000E+00  0.000E+00  4.79636E+01  1.795E-01  2.000E+01  2.000E+04 -1.747E+00
   1   14    3     1     3    1.6074E+05 -3.1062E+04   1.9180E+05  0.000E+00  0.000E+00  0.000E+00  4.75101E+01  2.032E-01  2.000E+01  2.000E+04 -1.553E+00
   1   15    4     1     4    1.9180E+05 -3.0769E+04   2.2257E+05  0.000E+00  0.000E+00  0.000E+00  4.70535E+01  2.239E-01  2.000E+01  2.000E+04 -1.538E+00
   1   16    5     1     5    2.2257E+05 -3.2844E+04   2.5541E+05  0.000E+00  0.000E+00  0.000E+00  4.65963E+01  2.440E-01  2.000E+01  2.000E+04 -1.642E+00
   1   16    6     1     6    2.5541E+05 -2.8553E+04   2.8397E+05  0.000E+00  0.000E+00  0.000E+00  4.61373E+01  2.623E-01  2.000E+01  2.000E+04 -1.428E+00
   1   16    7     1     7    2.8397E+05 -2.8332E+04   3.1230E+05  0.000E+00  0.000E+00  0.000E+00  4.56763E+01  2.786E-01  2.000E+01  2.000E+04 -1.417E+00
   1   16    8     1     8    3.1230E+05 -2.8515E+04   3.4081E+05  0.000E+00  0.000E+00  0.000E+00  4.52147E+01  2.942E-01  2.000E+01  2.000E+04 -1.426E+00
   1   16    9     1     9    3.4081E+05 -2.8640E+04   3.6945E+05  0.000E+00  0.000E+00  0.000E+00  4.47526E+01  3.094E-01  2.000E+01  2.000E+04 -1.432E+00
   1   16   10     1    10    3.6945E+05 -2.8754E+04   3.9821E+05  0.000E+00  0.000E+00  0.000E+00  4.42901E+01  3.242E-01  2.000E+01  2.000E+04 -1.438E+00
   1   16   11     1    11    3.9821E+05 -2.9481E+04   4.2769E+05  0.000E+00  0.000E+00  0.000E+00  4.38274E+01  3.387E-01  2.000E+01  2.000E+04 -1.474E+00
   1   16   12     1    12    4.2769E+05 -3.5113E+04   4.6280E+05  0.000E+00  0.000E+00  0.000E+00  4.33658E+01  3.544E-01  2.000E+01  2.000E+04 -1.756E+00
   1   15   13     1    13    4.6280E+05 -3.3492E+04   4.9629E+05  0.000E+00  0.000E+00  0.000E+00  4.29046E+01  3.705E-01  2.000E+01  2.000E+04 -1.675E+00
   1   14   14     1    14    4.9629E+05 -3.3898E+04   5.3019E+05  0.000E+00  0.000E+00  0.000E+00  4.24428E+01  3.859E-01  2.000E+01  2.000E+04 -1.695E+00
   1   13   15     1    15    5.3019E+05 -3.6033E+04   5.6622E+05  0.000E+00  0.000E+00  0.000E+00  4.19811E+01  4.015E-01  2.000E+01  2.000E+04 -1.802E+00
   1   12   16     1    16    5.6622E+05 -4.2024E+04   6.0825E+05  0.000E+00  0.000E+00  0.000E+00  4.15207E+01  4.184E-01  2.000E+01  2.000E+04 -2.101E+00
   1   12   17     1    17    6.0825E+05 -3.3148E+04   6.4140E+05  0.000E+00  0.000E+00  0.000E+00  4.10593E+01  4.343E-01  2.000E+01  2.000E+04 -1.657E+00
   1   12   18     1    18    6.4140E+05 -3.1739E+04   6.7314E+05  0.000E+00  0.000E+00  0.000E+00  4.05954E+01  4.477E-01  2.000E+01  2.000E+04 -1.587E+00
   1   12   19     1    19    6.7314E+05 -3.5871E+04   7.0901E+05  0.000E+00  0.000E+00  0.000E+00  4.01318E+01  4.614E-01  2.000E+01  2.000E+04 -1.794E+00
   1   13   20     1    20    7.0901E+05 -2.6410E+04   7.3542E+05  0.000E+00  0.000E+00  0.000E+00  3.96669E+01  4.737E-01  2.000E+01  2.000E+04 -1.320E+00
   1   14   21     1    21    7.3542E+05 -1.9481E+04   7.5490E+05  0.000E+00  0.000E+00  0.000E+00  3.91986E+01  4.827E-01  2.000E+01  2.000E+04 -9.741E-01
   1   14   22     1    22    7.5490E+05 -1.7049E+03   7.5660E+05  0.000E+00  0.000E+00  0.000E+00  3.87254E+01  4.868E-01  2.000E+01  2.000E+04 -8.525E-02
   1    9   30     2     1    5.0000E+04 -2.6332E+04   7.6332E+04  0.000E+00  0.000E+00  0.000E+00  4.02583E+01  1.333E-01  2.000E+01  2.000E+04 -1.317E+00
   1    9   29     2     2    7.6332E+04 -2.8796E+04   1.0513E+05  0.000E+00  0.000E+00  0.000E+00  4.00407E+01  1.657E-01  2.000E+01  2.000E+04 -1.440E+00
   1    9   28     2     3    1.0513E+05 -3.3068E+04   1.3820E+05  0.000E+00  0.000E+00  0.000E+00  3.98225E+01  1.975E-01  2.000E+01  2.000E+04 -1.653E+00
   1    9   27     2     4    1.3820E+05 -4.7116E+04   1.8531E+05  0.000E+00  0.000E+00  0.000E+00  3.96094E+01  2.344E-01  2.000E+01  2.000E+04 -2.356E+00
   1   10   26     2     5    1.8531E+05 -3.3072E+04   2.1838E+05  0.000E+00  0.000E+00  0.000E+00  3.93927E+01  2.677E-01  2.000E+01  2.000E+04 -1.654E+00
   1   11   25     2     6    2.1838E+05 -2.4731E+04   2.4311E+05  0.000E+00  0.000E+00  0.000E+00  3.91650E+01  2.900E-01  2.000E+01  2.000E+04 -1.237E+00
   1   12   24     2     7    2.4311E+05 -1.8196E+04   2.6131E+05  0.000E+00  0.000E+00  0.000E+00  3.89309E+01  3.059E-01  2.000E+01  2.000E+04 -9.098E-01
   1   13   23     2     8    2.6131E+05 -1.2910E+04   2.7422E+05  0.000E+00  0.000E+00  0.000E+00  3.86921E+01  3.171E-01  2.000E+01  2.000E+04 -6.455E-01
   1   14   22     2     9    2.7422E+05 -7.2292E+03   2.8145E+05  0.000E+00  0.000E+00  0.000E+00  3.84492E+01  3.242E-01  2.000E+01  2.000E+04 -3.615E-01
   1   14   22     3     1    1.0381E+06 -1.5286E+04   1.0533E+06  0.000E+00  0.000E+00  0.000E+00  3.80464E+01  4.908E-01  2.000E+01  2.000E+04 -7.643E-01
   1   15   23     3     2    1.0533E+06 -2.3516E+04   1.0769E+06  0.000E+00  0.000E+00  0.000E+00  3.71630E+01  4.963E-01  2.000E+01  2.000E+04 -1.176E+00
   1   15   24     3     3    1.0769E+06 -1.9576E+04   1.0964E+06  0.000E+00  0.000E+00  0.000E+00  3.62801E+01  5.023E-01  2.000E+01  2.000E+04 -9.788E-01
   1   15   25     3     4    1.0964E+06 -1.9170E+04   1.1156E+06  0.000E+00  0.000E+00  0.000E+00  3.53965E+01  5.076E-01  2.000E+01  2.000E+04 -9.585E-01
   1   15   26     3     5    1.1156E+06 -2.1894E+04   1.1375E+06  0.000E+00  0.000E+00  0.000E+00  3.45133E+01  5.133E-01  2.000E+01  2.000E+04 -1.095E+00
   1   16   27     3     6    1.1375E+06 -2.9033E+04   1.1665E+06  0.000E+00  0.000E+00  0.000E+00  3.36313E+01  5.202E-01  2.000E+01  2.000E+04 -1.452E+00
   1   17   28     3     7    1.1665E+06 -3.6089E+04   1.2026E+06  0.000E+00  0.000E+00  0.000E+00  3.27512E+01  5.290E-01  2.000E+01  2.000E+04 -1.804E+00
   1   18   29     3     8    1.2026E+06 -4.7098E+04   1.2497E+06  0.000E+00  0.000E+00  0.000E+00  3.18734E+01  5.400E-01  2.000E+01  2.000E+04 -2.355E+00
   1   18   30     3     9    1.2497E+06 -4.3555E+04   1.2933E+06  0.000E+00  0.000E+00  0.000E+00  3.09964E+01  5.519E-01  2.000E+01  2.000E+04 -2.178E+00



1
              HEAD IN LAYER   1 AT END OF TIME STEP   1 IN STRESS PERIOD    3
  ---------------------------------------------------------------------------

          1      2      3      4      5      6      7      8      9     10
         11     12     13     14     15     16     17     18     19     20
         21     22     23     24     25     26     27     28     29     30
 .........................................................................
   1  ****** ****** ****** ****** ****** ****** ****** ****** ****** ******
      ****** ****** ****** ****** ****** ****** ****** ****** ****** ******
      ****** ****** ****** ****** ****** ****** ****** ****** ****** ******
   2  ****** ****** ****** ****** ****** ****** ****** ****** ****** ******
      ****** ****** ****** ****** ****** ****** ****** ****** ****** ******
      ****** ****** ****** ****** ****** ****** ****** ****** ****** ******
   3  ****** ****** ****** ****** ****** ****** ****** ****** ****** ******
      ****** ****** ****** ****** ****** ****** ****** ****** ****** ******
      ****** ****** ****** ****** ****** ****** ****** ****** ****** ******
   4  ****** ****** ****** ****** ****** ****** ****** ****** ****** ******
      ****** ****** ****** ****** ****** ****** ****** ****** ****** ******
      ****** ****** ****** ****** ****** ****** ****** ****** ****** ******
   5  ****** ****** ****** ****** ****** ****** ****** ****** ****** ******
      ****** ****** ****** ****** ****** ****** ****** ****** ****** ******
      ****** ****** ****** ****** ****** ****** ****** ****** ****** ******
   6  ****** ****** ****** ****** ****** ****** ****** ****** ****** ******
      ****** ****** ****** ****** ****** ****** ****** ****** ****** ******
      ****** ****** ****** ****** ****** ****** ****** ****** ****** ******
   7  ****** ****** ****** ****** ****** ****** ****** ****** ****** ******
      ****** ****** ****** ****** ****** ****** ****** ****** ****** ******
      ****** ****** ****** ****** ****** ****** ****** ****** ****** ******
   8  ****** ****** ****** ****** ****** ****** ****** ****** ****** ******
      ****** ****** ****** ****** ****** ****** ****** ****** ****** ******
      ****** ****** ****** ****** ****** ****** ****** ****** ****** ******
   9  ****** ****** ****** ****** ****** ****** ****** ****** ****** ******
      ****** ****** ****** ****** ****** ****** ****** ****** ****** ******
      ****** ****** ****** ****** ****** ****** ****** ****** ****** ******
  10  ****** ****** ****** ****** ****** ****** ****** ****** ****** ******
      ****** ****** ****** ****** ****** ****** ****** ****** ****** ******
      ****** ****** ****** ****** ****** ****** ****** ****** ****** ******
  11  ****** ****** ****** ****** ****** ****** ****** ****** ****** ******
      ****** ****** ****** ****** ****** ****** ****** ****** ****** ******
      ****** ****** ****** ****** ****** ****** ****** ****** ****** ******
  12  ****** ****** ****** ****** ****** ****** ****** ****** ****** ******
      ****** ****** ****** ****** ****** ****** ****** ****** ****** ******
      ****** ****** ****** ****** ****** ****** ****** ****** ****** ******
  13  ****** ****** ****** ****** ****** ****** ****** ****** ****** ******
      ****** ****** ****** ****** ****** ****** ****** ****** ****** ******
      ****** ****** ****** ****** ****** ****** ****** ****** ****** ******
  14  ****** ****** ****** ****** ****** ****** ****** ****** ****** ******
      ****** ****** ****** ****** ****** ****** ****** ****** ****** ******
      ****** ****** ****** ****** ****** ****** ****** ****** ****** ******
  15  ****** ****** ****** ****** ****** ****** ****** ****** ****** ******
      ****** ****** ****** ****** ****** ****** ****** ****** ****** ******
      ****** ****** ****** ****** ****** ****** ****** ****** ****** ******
  16  ****** ****** ****** ****** ****** ****** ****** ****** ****** ******
      ****** ****** ****** ****** ****** ****** ****** ****** ****** ******
      ****** ****** ****** ****** ****** ****** ****** ****** ****** ******
  17  ****** ****** ****** ****** ****** ****** ****** ****** ****** ******
      ****** ****** ****** ****** ****** ****** ****** ****** ****** ******
      ****** ****** ****** ****** ****** ****** ****** ****** ****** ******
  18  ****** ****** ****** ****** ****** ****** ****** ****** ****** ******
      ****** ****** ****** ****** ****** ****** ****** ****** ****** ******
      ****** ****** ****** ****** ****** ****** ****** ****** ****** ******
  19  ****** ****** ****** ****** ****** ****** ****** ****** ****** ******
      ****** ****** ****** ****** ****** ****** ****** ****** ****** ******
      ****** ****** ****** ****** ****** ****** ****** ****** ****** ******
  20  ****** ****** ****** ****** ****** ****** ****** ****** ****** ******
      ****** ****** ****** ****** ****** ****** ****** ****** ****** ******
      ****** ****** ****** ****** ****** ****** ****** ****** ****** ******
  21  ****** ****** ****** ****** ****** ****** ****** ****** ****** ******
      ****** ****** ****** ****** ****** ****** ****** ****** ****** ******
      ****** ****** ****** ****** ****** ****** ****** ****** ****** ******
  22  ****** ****** ****** ****** ****** ****** ****** ****** ****** ******
      ****** ****** ****** ****** ****** ****** ****** ****** ****** ******
      ****** ****** ****** ****** ****** ****** ****** ****** ****** ******
  23  ****** ****** ****** ****** ****** ****** ****** ****** ****** ******
      ****** ****** ****** ****** ****** ****** ****** ****** ****** ******
      ****** ****** ****** ****** ****** ****** ****** ****** ****** ******
  24  ****** ****** ****** ****** ****** ****** ****** ****** ****** ******
      ****** ****** ****** ****** ****** ****** ****** ****** ****** ******
      ****** ****** ****** ****** ****** ****** ****** ****** ****** ******
  25  ****** ****** ****** ****** ****** ****** ****** ****** ****** ******
      ****** ****** ****** ****** ****** ****** ****** ****** ****** ******
      ****** ****** ****** ****** ****** ****** ****** ****** ****** ******

 HEAD WILL BE SAVED ON UNIT   51 AT END OF TIME STEP    1, STRESS PERIOD    3
1
  VOLUMETRIC BUDGET FOR ENTIRE MODEL AT END OF TIME STEP    1, STRESS PERIOD   3
  ------------------------------------------------------------------------------

     CUMULATIVE VOLUMES      L**3       RATES FOR THIS TIME STEP      L**3/T
     ------------------                 ------------------------

           IN:                                      IN:
           ---                                      ---
             STORAGE =    20320448.3580               STORAGE =        3071.3612
       CONSTANT HEAD =   325756190.1539         CONSTANT HEAD =     1220197.9383
               WELLS =           0.0000                 WELLS =           0.0000
            RECHARGE =     6292800.0000              RECHARGE =           0.0000
      STREAM LEAKAGE =           0.0000        STREAM LEAKAGE =           0.0000

            TOTAL IN =   352369438.5119              TOTAL IN =     1223269.2996

          OUT:                                     OUT:
          ----                                     ----
             STORAGE =           0.0000               STORAGE =           0.0000
       CONSTANT HEAD =           0.0000         CONSTANT HEAD =           0.0000
               WELLS =    21920000.0000                 WELLS =       80000.0000
            RECHARGE =           0.0000              RECHARGE =           0.0000
      STREAM LEAKAGE =   330449446.0697        STREAM LEAKAGE =     1143269.3434

           TOTAL OUT =   352369446.0697             TOTAL OUT =     1223269.3434

            IN - OUT =          -7.5578              IN - OUT =      -4.3801E-02

 PERCENT DISCREPANCY =          -0.00     PERCENT DISCREPANCY =          -0.00






         TIME SUMMARY AT END OF TIME STEP    1 IN STRESS PERIOD    3
                    SECONDS     MINUTES      HOURS       DAYS        YEARS
                    -----------------------------------------------------------
   TIME STEP LENGTH 7.86240E+06 1.31040E+05  2184.0      91.000     0.24914    
 STRESS PERIOD TIME 7.86240E+06 1.31040E+05  2184.0      91.000     0.24914    
         TOTAL TIME 2.36736E+07 3.94560E+05  6576.0      274.00     0.75017    
1
1
                            STRESS PERIOD NO.    4, LENGTH =   91.00000    
                            -----------------------------------------------

                              NUMBER OF TIME STEPS =     1

                               MULTIPLIER FOR DELT =     1.500

                            INITIAL TIME STEP SIZE =   91.00000    

 WELL NO.  LAYER   ROW   COL   STRESS RATE         
 --------------------------------------------------
      1      1      5      8     -0.5000E+05
      2      1      3      6     -0.3000E+05
      3      1      3      9      -5001.    

      3 WELLS

                 RECHARGE =  1.000000E-03

 REUSING STREAM SEGMENT DATA FROM LAST STRESS PERIOD
 
 SOLVING FOR HEAD 


     6 CALLS TO PCG ROUTINE FOR TIME STEP   1 IN STRESS PERIOD    4
    22 TOTAL ITERATIONS

 OUTPUT CONTROL FOR STRESS PERIOD    4   TIME STEP    1
    SAVE BUDGET
    SAVE HEAD FOR ALL LAYERS
    PRINT HEAD FOR ALL LAYERS
 UBDSV2 SAVING "STREAMFLOW OUT  " ON UNIT  50 AT TIME STEP  1, STRESS PERIOD   4



 STREAM LISTING     PERIOD      4   STEP        1

 LAYER ROW COL. STREAM  RCH.  FLOW INTO     FLOW TO   FLOW OUT OF   OVRLND.     DIRECT     STREAM       STREAM     STREAM     STREAM   STREAMBED  STREAMBED
                SEG.NO.  NO.  STRM. RCH.    AQUIFER    STRM. RCH.    RUNOFF     PRECIP       ET          HEAD       DEPTH      WIDTH   CONDCTNC.   GRADIENT

   1   13    1     1     1    1.0000E+05 -2.6127E+04   1.2613E+05  0.000E+00  0.000E+00  0.000E+00  4.84171E+01  1.557E-01  2.000E+01  2.000E+04 -1.306E+00
   1   13    2     1     2    1.2613E+05 -3.5329E+04   1.6146E+05  0.000E+00  0.000E+00  0.000E+00  4.79640E+01  1.799E-01  2.000E+01  2.000E+04 -1.766E+00
   1   14    3     1     3    1.6146E+05 -3.1464E+04   1.9292E+05  0.000E+00  0.000E+00  0.000E+00  4.75107E+01  2.039E-01  2.000E+01  2.000E+04 -1.573E+00
   1   15    4     1     4    1.9292E+05 -3.1170E+04   2.2409E+05  0.000E+00  0.000E+00  0.000E+00  4.70543E+01  2.248E-01  2.000E+01  2.000E+04 -1.558E+00
   1   16    5     1     5    2.2409E+05 -3.3221E+04   2.5731E+05  0.000E+00  0.000E+00  0.000E+00  4.65973E+01  2.450E-01  2.000E+01  2.000E+04 -1.661E+00
   1   16    6     1     6    2.5731E+05 -2.8874E+04   2.8619E+05  0.000E+00  0.000E+00  0.000E+00  4.61385E+01  2.635E-01  2.000E+01  2.000E+04 -1.444E+00
   1   16    7     1     7    2.8619E+05 -2.8647E+04   3.1483E+05  0.000E+00  0.000E+00  0.000E+00  4.56777E+01  2.799E-01  2.000E+01  2.000E+04 -1.432E+00
   1   16    8     1     8    3.1483E+05 -2.8830E+04   3.4366E+05  0.000E+00  0.000E+00  0.000E+00  4.52161E+01  2.957E-01  2.000E+01  2.000E+04 -1.441E+00
   1   16    9     1     9    3.4366E+05 -2.8955E+04   3.7262E+05  0.000E+00  0.000E+00  0.000E+00  4.47542E+01  3.110E-01  2.000E+01  2.000E+04 -1.448E+00
   1   16   10     1    10    3.7262E+05 -2.9070E+04   4.0169E+05  0.000E+00  0.000E+00  0.000E+00  4.42918E+01  3.259E-01  2.000E+01  2.000E+04 -1.453E+00
   1   16   11     1    11    4.0169E+05 -2.9804E+04   4.3149E+05  0.000E+00  0.000E+00  0.000E+00  4.38292E+01  3.405E-01  2.000E+01  2.000E+04 -1.490E+00
   1   16   12     1    12    4.3149E+05 -3.5497E+04   4.6699E+05  0.000E+00  0.000E+00  0.000E+00  4.33677E+01  3.563E-01  2.000E+01  2.000E+04 -1.775E+00
   1   15   13     1    13    4.6699E+05 -3.3902E+04   5.0089E+05  0.000E+00  0.000E+00  0.000E+00  4.29067E+01  3.726E-01  2.000E+01  2.000E+04 -1.695E+00
   1   14   14     1    14    5.0089E+05 -3.4312E+04   5.3520E+05  0.000E+00  0.000E+00  0.000E+00  4.24449E+01  3.881E-01  2.000E+01  2.000E+04 -1.716E+00
   1   13   15     1    15    5.3520E+05 -3.6436E+04   5.7164E+05  0.000E+00  0.000E+00  0.000E+00  4.19833E+01  4.038E-01  2.000E+01  2.000E+04 -1.822E+00
   1   12   16     1    16    5.7164E+05 -4.2403E+04   6.1404E+05  0.000E+00  0.000E+00  0.000E+00  4.15231E+01  4.208E-01  2.000E+01  2.000E+04 -2.120E+00
   1   12   17     1    17    6.1404E+05 -3.3470E+04   6.4751E+05  0.000E+00  0.000E+00  0.000E+00  4.10618E+01  4.368E-01  2.000E+01  2.000E+04 -1.673E+00
   1   12   18     1    18    6.4751E+05 -3.2056E+04   6.7957E+05  0.000E+00  0.000E+00  0.000E+00  4.05980E+01  4.502E-01  2.000E+01  2.000E+04 -1.603E+00
   1   12   19     1    19    6.7957E+05 -3.6223E+04   7.1579E+05  0.000E+00  0.000E+00  0.000E+00  4.01345E+01  4.640E-01  2.000E+01  2.000E+04 -1.811E+00
   1   13   20     1    20    7.1579E+05 -2.6752E+04   7.4254E+05  0.000E+00  0.000E+00  0.000E+00  3.96696E+01  4.765E-01  2.000E+01  2.000E+04 -1.338E+00
   1   14   21     1    21    7.4254E+05 -1.9781E+04   7.6232E+05  0.000E+00  0.000E+00  0.000E+00  3.92014E+01  4.855E-01  2.000E+01  2.000E+04 -9.890E-01
   1   14   22     1    22    7.6232E+05 -1.8138E+03   7.6414E+05  0.000E+00  0.000E+00  0.000E+00  3.87283E+01  4.897E-01  2.000E+01  2.000E+04 -9.069E-02
   1    9   30     2     1    5.0000E+04 -2.6609E+04   7.6609E+04  0.000E+00  0.000E+00  0.000E+00  4.02585E+01  1.335E-01  2.000E+01  2.000E+04 -1.330E+00
   1    9   29     2     2    7.6609E+04 -2.9072E+04   1.0568E+05  0.000E+00  0.000E+00  0.000E+00  4.00411E+01  1.661E-01  2.000E+01  2.000E+04 -1.454E+00
   1    9   28     2     3    1.0568E+05 -3.3352E+04   1.3903E+05  0.000E+00  0.000E+00  0.000E+00  3.98232E+01  1.982E-01  2.000E+01  2.000E+04 -1.668E+00
   1    9   27     2     4    1.3903E+05 -4.7460E+04   1.8649E+05  0.000E+00  0.000E+00  0.000E+00  3.96102E+01  2.352E-01  2.000E+01  2.000E+04 -2.373E+00
   1   10   26     2     5    1.8649E+05 -3.3428E+04   2.1992E+05  0.000E+00  0.000E+00  0.000E+00  3.93937E+01  2.687E-01  2.000E+01  2.000E+04 -1.671E+00
   1   11   25     2     6    2.1992E+05 -2.5074E+04   2.4500E+05  0.000E+00  0.000E+00  0.000E+00  3.91663E+01  2.913E-01  2.000E+01  2.000E+04 -1.254E+00
   1   12   24     2     7    2.4500E+05 -1.8502E+04   2.6350E+05  0.000E+00  0.000E+00  0.000E+00  3.89324E+01  3.074E-01  2.000E+01  2.000E+04 -9.251E-01
   1   13   23     2     8    2.6350E+05 -1.3159E+04   2.7666E+05  0.000E+00  0.000E+00  0.000E+00  3.86938E+01  3.188E-01  2.000E+01  2.000E+04 -6.580E-01
   1   14   22     2     9    2.7666E+05 -7.3608E+03   2.8402E+05  0.000E+00  0.000E+00  0.000E+00  3.84510E+01  3.260E-01  2.000E+01  2.000E+04 -3.680E-01
   1   14   22     3     1    1.0482E+06 -1.5395E+04   1.0635E+06  0.000E+00  0.000E+00  0.000E+00  3.80493E+01  4.937E-01  2.000E+01  2.000E+04 -7.698E-01
   1   15   23     3     2    1.0635E+06 -2.3799E+04   1.0873E+06  0.000E+00  0.000E+00  0.000E+00  3.71658E+01  4.992E-01  2.000E+01  2.000E+04 -1.190E+00
   1   15   24     3     3    1.0873E+06 -1.9813E+04   1.1072E+06  0.000E+00  0.000E+00  0.000E+00  3.62830E+01  5.052E-01  2.000E+01  2.000E+04 -9.906E-01
   1   15   25     3     4    1.1072E+06 -1.9407E+04   1.1266E+06  0.000E+00  0.000E+00  0.000E+00  3.53995E+01  5.106E-01  2.000E+01  2.000E+04 -9.703E-01
   1   15   26     3     5    1.1266E+06 -2.2171E+04   1.1487E+06  0.000E+00  0.000E+00  0.000E+00  3.45163E+01  5.163E-01  2.000E+01  2.000E+04 -1.109E+00
   1   16   27     3     6    1.1487E+06 -2.9365E+04   1.1781E+06  0.000E+00  0.000E+00  0.000E+00  3.36344E+01  5.233E-01  2.000E+01  2.000E+04 -1.468E+00
   1   17   28     3     7    1.1781E+06 -3.6430E+04   1.2145E+06  0.000E+00  0.000E+00  0.000E+00  3.27543E+01  5.321E-01  2.000E+01  2.000E+04 -1.821E+00
   1   18   29     3     8    1.2145E+06 -4.7418E+04   1.2620E+06  0.000E+00  0.000E+00  0.000E+00  3.18766E+01  5.432E-01  2.000E+01  2.000E+04 -2.371E+00
   1   18   30     3     9    1.2620E+06 -4.3822E+04   1.3058E+06  0.000E+00  0.000E+00  0.000E+00  3.09996E+01  5.552E-01  2.000E+01  2.000E+04 -2.191E+00



1
              HEAD IN LAYER   1 AT END OF TIME STEP   1 IN STRESS PERIOD    4
  ---------------------------------------------------------------------------

          1      2      3      4      5      6      7      8      9     10
         11     12     13     14     15     16     17     18     19     20
         21     22     23     24     25     26     27     28     29     30
 .........................................................................
   1  ****** ****** ****** ****** ****** ****** ****** ****** ****** ******
      ****** ****** ****** ****** ****** ****** ****** ****** ****** ******
      ****** ****** ****** ****** ****** ****** ****** ****** ****** ******
   2  ****** ****** ****** ****** ****** ****** ****** ****** ****** ******
      ****** ****** ****** ****** ****** ****** ****** ****** ****** ******
      ****** ****** ****** ****** ****** ****** ****** ****** ****** ******
   3  ****** ****** ****** ****** ****** ****** ****** ****** ****** ******
      ****** ****** ****** ****** ****** ****** ****** ****** ****** ******
      ****** ****** ****** ****** ****** ****** ****** ****** ****** ******
   4  ****** ****** ****** ****** ****** ****** ****** ****** ****** ******
      ****** ****** ****** ****** ****** ****** ****** ****** ****** ******
      ****** ****** ****** ****** ****** ****** ****** ****** ****** ******
   5  ****** ****** ****** ****** ****** ****** ****** ****** ****** ******
      ****** ****** ****** ****** ****** ****** ****** ****** ****** ******
      ****** ****** ****** ****** ****** ****** ****** ****** ****** ******
   6  ****** ****** ****** ****** ****** ****** ****** ****** ****** ******
      ****** ****** ****** ****** ****** ****** ****** ****** ****** ******
      ****** ****** ****** ****** ****** ****** ****** ****** ****** ******
   7  ****** ****** ****** ****** ****** ****** ****** ****** ****** ******
      ****** ****** ****** ****** ****** ****** ****** ****** ****** ******
      ****** ****** ****** ****** ****** ****** ****** ****** ****** ******
   8  ****** ****** ****** ****** ****** ****** ****** ****** ****** ******
      ****** ****** ****** ****** ****** ****** ****** ****** ****** ******
      ****** ****** ****** ****** ****** ****** ****** ****** ****** ******
   9  ****** ****** ****** ****** ****** ****** ****** ****** ****** ******
      ****** ****** ****** ****** ****** ****** ****** ****** ****** ******
      ****** ****** ****** ****** ****** ****** ****** ****** ****** ******
  10  ****** ****** ****** ****** ****** ****** ****** ****** ****** ******
      ****** ****** ****** ****** ****** ****** ****** ****** ****** ******
      ****** ****** ****** ****** ****** ****** ****** ****** ****** ******
  11  ****** ****** ****** ****** ****** ****** ****** ****** ****** ******
      ****** ****** ****** ****** ****** ****** ****** ****** ****** ******
      ****** ****** ****** ****** ****** ****** ****** ****** ****** ******
  12  ****** ****** ****** ****** ****** ****** ****** ****** ****** ******
      ****** ****** ****** ****** ****** ****** ****** ****** ****** ******
      ****** ****** ****** ****** ****** ****** ****** ****** ****** ******
  13  ****** ****** ****** ****** ****** ****** ****** ****** ****** ******
      ****** ****** ****** ****** ****** ****** ****** ****** ****** ******
      ****** ****** ****** ****** ****** ****** ****** ****** ****** ******
  14  ****** ****** ****** ****** ****** ****** ****** ****** ****** ******
      ****** ****** ****** ****** ****** ****** ****** ****** ****** ******
      ****** ****** ****** ****** ****** ****** ****** ****** ****** ******
  15  ****** ****** ****** ****** ****** ****** ****** ****** ****** ******
      ****** ****** ****** ****** ****** ****** ****** ****** ****** ******
      ****** ****** ****** ****** ****** ****** ****** ****** ****** ******
  16  ****** ****** ****** ****** ****** ****** ****** ****** ****** ******
      ****** ****** ****** ****** ****** ****** ****** ****** ****** ******
      ****** ****** ****** ****** ****** ****** ****** ****** ****** ******
  17  ****** ****** ****** ****** ****** ****** ****** ****** ****** ******
      ****** ****** ****** ****** ****** ****** ****** ****** ****** ******
      ****** ****** ****** ****** ****** ****** ****** ****** ****** ******
  18  ****** ****** ****** ****** ****** ****** ****** ****** ****** ******
      ****** ****** ****** ****** ****** ****** ****** ****** ****** ******
      ****** ****** ****** ****** ****** ****** ****** ****** ****** ******
  19  ****** ****** ****** ****** ****** ****** ****** ****** ****** ******
      ****** ****** ****** ****** ****** ****** ****** ****** ****** ******
      ****** ****** ****** ****** ****** ****** ****** ****** ****** ******
  20  ****** ****** ****** ****** ****** ****** ****** ****** ****** ******
      ****** ****** ****** ****** ****** ****** ****** ****** ****** ******
      ****** ****** ****** ****** ****** ****** ****** ****** ****** ******
  21  ****** ****** ****** ****** ****** ****** ****** ****** ****** ******
      ****** ****** ****** ****** ****** ****** ****** ****** ****** ******
      ****** ****** ****** ****** ****** ****** ****** ****** ****** ******
  22  ****** ****** ****** ****** ****** ****** ****** ****** ****** ******
      ****** ****** ****** ****** ****** ****** ****** ****** ****** ******
      ****** ****** ****** ****** ****** ****** ****** ****** ****** ******
  23  ****** ****** ****** ****** ****** ****** ****** ****** ****** ******
      ****** ****** ****** ****** ****** ****** ****** ****** ****** ******
      ****** ****** ****** ****** ****** ****** ****** ****** ****** ******
  24  ****** ****** ****** ****** ****** ****** ****** ****** ****** ******
      ****** ****** ****** ****** ****** ****** ****** ****** ****** ******
      ****** ****** ****** ****** ****** ****** ****** ****** ****** ******
  25  ****** ****** ****** ****** ****** ****** ****** ****** ****** ******
      ****** ****** ****** ****** ****** ****** ****** ****** ****** ******
      ****** ****** ****** ****** ****** ****** ****** ****** ****** ******

 HEAD WILL BE SAVED ON UNIT   51 AT END OF TIME STEP    1, STRESS PERIOD    4
1
  VOLUMETRIC BUDGET FOR ENTIRE MODEL AT END OF TIME STEP    1, STRESS PERIOD   4
  ------------------------------------------------------------------------------

     CUMULATIVE VOLUMES      L**3       RATES FOR THIS TIME STEP      L**3/T
     ------------------                 ------------------------

           IN:                                      IN:
           ---                                      ---
             STORAGE =    20323798.1473               STORAGE =          36.8109
       CONSTANT HEAD =   436236632.7575         CONSTANT HEAD =     1214070.7978
               WELLS =           0.0000                 WELLS =           0.0000
            RECHARGE =     8804400.0000              RECHARGE =       27600.0000
      STREAM LEAKAGE =           0.0000        STREAM LEAKAGE =           0.0000

            TOTAL IN =   465364830.9049              TOTAL IN =     1241707.6087

          OUT:                                     OUT:
          ----                                     ----
             STORAGE =       85013.3095               STORAGE =         934.2122
       CONSTANT HEAD =           0.0000         CONSTANT HEAD =           0.0000
               WELLS =    29655045.5000                 WELLS =       85000.5000
            RECHARGE =           0.0000              RECHARGE =           0.0000
      STREAM LEAKAGE =   435624778.0711        STREAM LEAKAGE =     1155772.8791

           TOTAL OUT =   465364836.8807             TOTAL OUT =     1241707.5913

            IN - OUT =          -5.9758              IN - OUT =       1.7385E-02

 PERCENT DISCREPANCY =          -0.00     PERCENT DISCREPANCY =           0.00






         TIME SUMMARY AT END OF TIME STEP    1 IN STRESS PERIOD    4
                    SECONDS     MINUTES      HOURS       DAYS        YEARS
                    -----------------------------------------------------------
   TIME STEP LENGTH 7.86240E+06 1.31040E+05  2184.0      91.000     0.24914    
 STRESS PERIOD TIME 7.86240E+06 1.31040E+05  2184.0      91.000     0.24914    
         TOTAL TIME 3.15360E+07 5.25600E+05  8760.0      365.00     0.99932    
1
1
                            STRESS PERIOD NO.    5, LENGTH =   92.00000    
                            -----------------------------------------------

                              NUMBER OF TIME STEPS =     1

                               MULTIPLIER FOR DELT =     1.500

                            INITIAL TIME STEP SIZE =   92.00000    

 WELL NO.  LAYER   ROW   COL   STRESS RATE         
 --------------------------------------------------
      1      1      5      8     -0.5000E+05
      2      1      3      6     -0.3000E+05

      2 WELLS

                 RECHARGE =  5.000000E-04

 REUSING STREAM SEGMENT DATA FROM LAST STRESS PERIOD
 
 SOLVING FOR HEAD 


     5 CALLS TO PCG ROUTINE FOR TIME STEP   1 IN STRESS PERIOD    5
    19 TOTAL ITERATIONS

 OUTPUT CONTROL FOR STRESS PERIOD    5   TIME STEP    1
    SAVE BUDGET
    SAVE HEAD FOR ALL LAYERS
    PRINT HEAD FOR ALL LAYERS
 UBDSV2 SAVING "STREAMFLOW OUT  " ON UNIT  50 AT TIME STEP  1, STRESS PERIOD   5



 STREAM LISTING     PERIOD      5   STEP        1

 LAYER ROW COL. STREAM  RCH.  FLOW INTO     FLOW TO   FLOW OUT OF   OVRLND.     DIRECT     STREAM       STREAM     STREAM     STREAM   STREAMBED  STREAMBED
                SEG.NO.  NO.  STRM. RCH.    AQUIFER    STRM. RCH.    RUNOFF     PRECIP       ET          HEAD       DEPTH      WIDTH   CONDCTNC.   GRADIENT

   1   13    1     1     1    1.0000E+05 -2.5968E+04   1.2597E+05  0.000E+00  0.000E+00  0.000E+00  4.84170E+01  1.556E-01  2.000E+01  2.000E+04 -1.298E+00
   1   13    2     1     2    1.2597E+05 -3.5146E+04   1.6111E+05  0.000E+00  0.000E+00  0.000E+00  4.79638E+01  1.797E-01  2.000E+01  2.000E+04 -1.757E+00
   1   14    3     1     3    1.6111E+05 -3.1270E+04   1.9238E+05  0.000E+00  0.000E+00  0.000E+00  4.75104E+01  2.036E-01  2.000E+01  2.000E+04 -1.563E+00
   1   15    4     1     4    1.9238E+05 -3.0973E+04   2.2336E+05  0.000E+00  0.000E+00  0.000E+00  4.70539E+01  2.244E-01  2.000E+01  2.000E+04 -1.549E+00
   1   16    5     1     5    2.2336E+05 -3.3033E+04   2.5639E+05  0.000E+00  0.000E+00  0.000E+00  4.65968E+01  2.445E-01  2.000E+01  2.000E+04 -1.652E+00
   1   16    6     1     6    2.5639E+05 -2.8715E+04   2.8511E+05  0.000E+00  0.000E+00  0.000E+00  4.61379E+01  2.629E-01  2.000E+01  2.000E+04 -1.436E+00
   1   16    7     1     7    2.8511E+05 -2.8492E+04   3.1360E+05  0.000E+00  0.000E+00  0.000E+00  4.56770E+01  2.793E-01  2.000E+01  2.000E+04 -1.425E+00
   1   16    8     1     8    3.1360E+05 -2.8675E+04   3.4227E+05  0.000E+00  0.000E+00  0.000E+00  4.52154E+01  2.950E-01  2.000E+01  2.000E+04 -1.434E+00
   1   16    9     1     9    3.4227E+05 -2.8801E+04   3.7107E+05  0.000E+00  0.000E+00  0.000E+00  4.47534E+01  3.102E-01  2.000E+01  2.000E+04 -1.440E+00
   1   16   10     1    10    3.7107E+05 -2.8915E+04   3.9999E+05  0.000E+00  0.000E+00  0.000E+00  4.42910E+01  3.251E-01  2.000E+01  2.000E+04 -1.446E+00
   1   16   11     1    11    3.9999E+05 -2.9644E+04   4.2963E+05  0.000E+00  0.000E+00  0.000E+00  4.38283E+01  3.397E-01  2.000E+01  2.000E+04 -1.482E+00
   1   16   12     1    12    4.2963E+05 -3.5305E+04   4.6494E+05  0.000E+00  0.000E+00  0.000E+00  4.33667E+01  3.554E-01  2.000E+01  2.000E+04 -1.765E+00
   1   15   13     1    13    4.6494E+05 -3.3701E+04   4.9864E+05  0.000E+00  0.000E+00  0.000E+00  4.29057E+01  3.716E-01  2.000E+01  2.000E+04 -1.685E+00
   1   14   14     1    14    4.9864E+05 -3.4110E+04   5.3275E+05  0.000E+00  0.000E+00  0.000E+00  4.24439E+01  3.870E-01  2.000E+01  2.000E+04 -1.706E+00
   1   13   15     1    15    5.3275E+05 -3.6242E+04   5.6899E+05  0.000E+00  0.000E+00  0.000E+00  4.19822E+01  4.027E-01  2.000E+01  2.000E+04 -1.812E+00
   1   12   16     1    16    5.6899E+05 -4.2223E+04   6.1122E+05  0.000E+00  0.000E+00  0.000E+00  4.15219E+01  4.196E-01  2.000E+01  2.000E+04 -2.111E+00
   1   12   17     1    17    6.1122E+05 -3.3313E+04   6.4453E+05  0.000E+00  0.000E+00  0.000E+00  4.10606E+01  4.356E-01  2.000E+01  2.000E+04 -1.666E+00
   1   12   18     1    18    6.4453E+05 -3.1899E+04   6.7643E+05  0.000E+00  0.000E+00  0.000E+00  4.05967E+01  4.490E-01  2.000E+01  2.000E+04 -1.595E+00
   1   12   19     1    19    6.7643E+05 -3.6048E+04   7.1248E+05  0.000E+00  0.000E+00  0.000E+00  4.01332E+01  4.627E-01  2.000E+01  2.000E+04 -1.802E+00
   1   13   20     1    20    7.1248E+05 -2.6579E+04   7.3905E+05  0.000E+00  0.000E+00  0.000E+00  3.96683E+01  4.751E-01  2.000E+01  2.000E+04 -1.329E+00
   1   14   21     1    21    7.3905E+05 -1.9628E+04   7.5868E+05  0.000E+00  0.000E+00  0.000E+00  3.92000E+01  4.841E-01  2.000E+01  2.000E+04 -9.814E-01
   1   14   22     1    22    7.5868E+05 -1.7581E+03   7.6044E+05  0.000E+00  0.000E+00  0.000E+00  3.87269E+01  4.883E-01  2.000E+01  2.000E+04 -8.791E-02
   1    9   30     2     1    5.0000E+04 -2.6469E+04   7.6469E+04  0.000E+00  0.000E+00  0.000E+00  4.02584E+01  1.334E-01  2.000E+01  2.000E+04 -1.323E+00
   1    9   29     2     2    7.6469E+04 -2.8932E+04   1.0540E+05  0.000E+00  0.000E+00  0.000E+00  4.00409E+01  1.659E-01  2.000E+01  2.000E+04 -1.447E+00
   1    9   28     2     3    1.0540E+05 -3.3208E+04   1.3861E+05  0.000E+00  0.000E+00  0.000E+00  3.98229E+01  1.979E-01  2.000E+01  2.000E+04 -1.660E+00
   1    9   27     2     4    1.3861E+05 -4.7285E+04   1.8589E+05  0.000E+00  0.000E+00  0.000E+00  3.96098E+01  2.348E-01  2.000E+01  2.000E+04 -2.364E+00
   1   10   26     2     5    1.8589E+05 -3.3248E+04   2.1914E+05  0.000E+00  0.000E+00  0.000E+00  3.93932E+01  2.682E-01  2.000E+01  2.000E+04 -1.662E+00
   1   11   25     2     6    2.1914E+05 -2.4900E+04   2.4404E+05  0.000E+00  0.000E+00  0.000E+00  3.91657E+01  2.907E-01  2.000E+01  2.000E+04 -1.245E+00
   1   12   24     2     7    2.4404E+05 -1.8348E+04   2.6239E+05  0.000E+00  0.000E+00  0.000E+00  3.89317E+01  3.067E-01  2.000E+01  2.000E+04 -9.174E-01
   1   13   23     2     8    2.6239E+05 -1.3033E+04   2.7542E+05  0.000E+00  0.000E+00  0.000E+00  3.86929E+01  3.179E-01  2.000E+01  2.000E+04 -6.517E-01
   1   14   22     2     9    2.7542E+05 -7.2945E+03   2.8272E+05  0.000E+00  0.000E+00  0.000E+00  3.84501E+01  3.251E-01  2.000E+01  2.000E+04 -3.647E-01
   1   14   22     3     1    1.0432E+06 -1.5339E+04   1.0585E+06  0.000E+00  0.000E+00  0.000E+00  3.80478E+01  4.923E-01  2.000E+01  2.000E+04 -7.670E-01
   1   15   23     3     2    1.0585E+06 -2.3655E+04   1.0822E+06  0.000E+00  0.000E+00  0.000E+00  3.71644E+01  4.977E-01  2.000E+01  2.000E+04 -1.183E+00
   1   15   24     3     3    1.0822E+06 -1.9693E+04   1.1018E+06  0.000E+00  0.000E+00  0.000E+00  3.62815E+01  5.038E-01  2.000E+01  2.000E+04 -9.846E-01
   1   15   25     3     4    1.1018E+06 -1.9286E+04   1.1211E+06  0.000E+00  0.000E+00  0.000E+00  3.53980E+01  5.091E-01  2.000E+01  2.000E+04 -9.643E-01
   1   15   26     3     5    1.1211E+06 -2.2030E+04   1.1432E+06  0.000E+00  0.000E+00  0.000E+00  3.45148E+01  5.148E-01  2.000E+01  2.000E+04 -1.102E+00
   1   16   27     3     6    1.1432E+06 -2.9196E+04   1.1724E+06  0.000E+00  0.000E+00  0.000E+00  3.36329E+01  5.218E-01  2.000E+01  2.000E+04 -1.460E+00
   1   17   28     3     7    1.1724E+06 -3.6257E+04   1.2086E+06  0.000E+00  0.000E+00  0.000E+00  3.27528E+01  5.306E-01  2.000E+01  2.000E+04 -1.813E+00
   1   18   29     3     8    1.2086E+06 -4.7256E+04   1.2559E+06  0.000E+00  0.000E+00  0.000E+00  3.18750E+01  5.416E-01  2.000E+01  2.000E+04 -2.363E+00
   1   18   30     3     9    1.2559E+06 -4.3687E+04   1.2996E+06  0.000E+00  0.000E+00  0.000E+00  3.09980E+01  5.536E-01  2.000E+01  2.000E+04 -2.184E+00



1
              HEAD IN LAYER   1 AT END OF TIME STEP   1 IN STRESS PERIOD    5
  ---------------------------------------------------------------------------

          1      2      3      4      5      6      7      8      9     10
         11     12     13     14     15     16     17     18     19     20
         21     22     23     24     25     26     27     28     29     30
 .........................................................................
   1  ****** ****** ****** ****** ****** ****** ****** ****** ****** ******
      ****** ****** ****** ****** ****** ****** ****** ****** ****** ******
      ****** ****** ****** ****** ****** ****** ****** ****** ****** ******
   2  ****** ****** ****** ****** ****** ****** ****** ****** ****** ******
      ****** ****** ****** ****** ****** ****** ****** ****** ****** ******
      ****** ****** ****** ****** ****** ****** ****** ****** ****** ******
   3  ****** ****** ****** ****** ****** ****** ****** ****** ****** ******
      ****** ****** ****** ****** ****** ****** ****** ****** ****** ******
      ****** ****** ****** ****** ****** ****** ****** ****** ****** ******
   4  ****** ****** ****** ****** ****** ****** ****** ****** ****** ******
      ****** ****** ****** ****** ****** ****** ****** ****** ****** ******
      ****** ****** ****** ****** ****** ****** ****** ****** ****** ******
   5  ****** ****** ****** ****** ****** ****** ****** ****** ****** ******
      ****** ****** ****** ****** ****** ****** ****** ****** ****** ******
      ****** ****** ****** ****** ****** ****** ****** ****** ****** ******
   6  ****** ****** ****** ****** ****** ****** ****** ****** ****** ******
      ****** ****** ****** ****** ****** ****** ****** ****** ****** ******
      ****** ****** ****** ****** ****** ****** ****** ****** ****** ******
   7  ****** ****** ****** ****** ****** ****** ****** ****** ****** ******
      ****** ****** ****** ****** ****** ****** ****** ****** ****** ******
      ****** ****** ****** ****** ****** ****** ****** ****** ****** ******
   8  ****** ****** ****** ****** ****** ****** ****** ****** ****** ******
      ****** ****** ****** ****** ****** ****** ****** ****** ****** ******
      ****** ****** ****** ****** ****** ****** ****** ****** ****** ******
   9  ****** ****** ****** ****** ****** ****** ****** ****** ****** ******
      ****** ****** ****** ****** ****** ****** ****** ****** ****** ******
      ****** ****** ****** ****** ****** ****** ****** ****** ****** ******
  10  ****** ****** ****** ****** ****** ****** ****** ****** ****** ******
      ****** ****** ****** ****** ****** ****** ****** ****** ****** ******
      ****** ****** ****** ****** ****** ****** ****** ****** ****** ******
  11  ****** ****** ****** ****** ****** ****** ****** ****** ****** ******
      ****** ****** ****** ****** ****** ****** ****** ****** ****** ******
      ****** ****** ****** ****** ****** ****** ****** ****** ****** ******
  12  ****** ****** ****** ****** ****** ****** ****** ****** ****** ******
      ****** ****** ****** ****** ****** ****** ****** ****** ****** ******
      ****** ****** ****** ****** ****** ****** ****** ****** ****** ******
  13  ****** ****** ****** ****** ****** ****** ****** ****** ****** ******
      ****** ****** ****** ****** ****** ****** ****** ****** ****** ******
      ****** ****** ****** ****** ****** ****** ****** ****** ****** ******
  14  ****** ****** ****** ****** ****** ****** ****** ****** ****** ******
      ****** ****** ****** ****** ****** ****** ****** ****** ****** ******
      ****** ****** ****** ****** ****** ****** ****** ****** ****** ******
  15  ****** ****** ****** ****** ****** ****** ****** ****** ****** ******
      ****** ****** ****** ****** ****** ****** ****** ****** ****** ******
      ****** ****** ****** ****** ****** ****** ****** ****** ****** ******
  16  ****** ****** ****** ****** ****** ****** ****** ****** ****** ******
      ****** ****** ****** ****** ****** ****** ****** ****** ****** ******
      ****** ****** ****** ****** ****** ****** ****** ****** ****** ******
  17  ****** ****** ****** ****** ****** ****** ****** ****** ****** ******
      ****** ****** ****** ****** ****** ****** ****** ****** ****** ******
      ****** ****** ****** ****** ****** ****** ****** ****** ****** ******
  18  ****** ****** ****** ****** ****** ****** ****** ****** ****** ******
      ****** ****** ****** ****** ****** ****** ****** ****** ****** ******
      ****** ****** ****** ****** ****** ****** ****** ****** ****** ******
  19  ****** ****** ****** ****** ****** ****** ****** ****** ****** ******
      ****** ****** ****** ****** ****** ****** ****** ****** ****** ******
      ****** ****** ****** ****** ****** ****** ****** ****** ****** ******
  20  ****** ****** ****** ****** ****** ****** ****** ****** ****** ******
      ****** ****** ****** ****** ****** ****** ****** ****** ****** ******
      ****** ****** ****** ****** ****** ****** ****** ****** ****** ******
  21  ****** ****** ****** ****** ****** ****** ****** ****** ****** ******
      ****** ****** ****** ****** ****** ****** ****** ****** ****** ******
      ****** ****** ****** ****** ****** ****** ****** ****** ****** ******
  22  ****** ****** ****** ****** ****** ****** ****** ****** ****** ******
      ****** ****** ****** ****** ****** ****** ****** ****** ****** ******
      ****** ****** ****** ****** ****** ****** ****** ****** ****** ******
  23  ****** ****** ****** ****** ****** ****** ****** ****** ****** ******
      ****** ****** ****** ****** ****** ****** ****** ****** ****** ******
      ****** ****** ****** ****** ****** ****** ****** ****** ****** ******
  24  ****** ****** ****** ****** ****** ****** ****** ****** ****** ******
      ****** ****** ****** ****** ****** ****** ****** ****** ****** ******
      ****** ****** ****** ****** ****** ****** ****** ****** ****** ******
  25  ****** ****** ****** ****** ****** ****** ****** ****** ****** ******
      ****** ****** ****** ****** ****** ****** ****** ****** ****** ******
      ****** ****** ****** ****** ****** ****** ****** ****** ****** ******

 HEAD WILL BE SAVED ON UNIT   51 AT END OF TIME STEP    1, STRESS PERIOD    5
1
  VOLUMETRIC BUDGET FOR ENTIRE MODEL AT END OF TIME STEP    1, STRESS PERIOD   5
  ------------------------------------------------------------------------------

     CUMULATIVE VOLUMES      L**3       RATES FOR THIS TIME STEP      L**3/T
     ------------------                 ------------------------

           IN:                                      IN:
           ---                                      ---
             STORAGE =    20363180.0183               STORAGE =         428.0638
       CONSTANT HEAD =   548052511.3481         CONSTANT HEAD =     1215389.9847
               WELLS =           0.0000                 WELLS =           0.0000
            RECHARGE =    10074000.0000              RECHARGE =       13800.0000
      STREAM LEAKAGE =           0.0000        STREAM LEAKAGE =           0.0000

            TOTAL IN =   578489691.3664              TOTAL IN =     1229618.0485

          OUT:                                     OUT:
          ----                                     ----
             STORAGE =       90542.9938               STORAGE =          60.1053
       CONSTANT HEAD =           0.0000         CONSTANT HEAD =           0.0000
               WELLS =    37015045.5000                 WELLS =       80000.0000
            RECHARGE =           0.0000              RECHARGE =           0.0000
      STREAM LEAKAGE =   541384112.9372        STREAM LEAKAGE =     1149557.9877

           TOTAL OUT =   578489701.4310             TOTAL OUT =     1229618.0929

            IN - OUT =         -10.0646              IN - OUT =      -4.4444E-02

 PERCENT DISCREPANCY =          -0.00     PERCENT DISCREPANCY =          -0.00






         TIME SUMMARY AT END OF TIME STEP    1 IN STRESS PERIOD    5
                    SECONDS     MINUTES      HOURS       DAYS        YEARS
                    -----------------------------------------------------------
   TIME STEP LENGTH 7.94880E+06 1.32480E+05  2208.0      92.000     0.25188    
 STRESS PERIOD TIME 7.94880E+06 1.32480E+05  2208.0      92.000     0.25188    
         TOTAL TIME 3.94848E+07 6.58080E+05  10968.      457.00      1.2512    
1
1
                            STRESS PERIOD NO.    6, LENGTH =   91.00000    
                            -----------------------------------------------

                              NUMBER OF TIME STEPS =     1

                               MULTIPLIER FOR DELT =     1.500

                            INITIAL TIME STEP SIZE =   91.00000    

 WELL NO.  LAYER   ROW   COL   STRESS RATE         
 --------------------------------------------------
      1      1      5      8     -0.5000E+05
      2      1      3      6     -0.3000E+05
      3      1      3      9       0.000    

      3 WELLS

                 RECHARGE =  2.000000E-03

 REUSING STREAM SEGMENT DATA FROM LAST STRESS PERIOD
 
 SOLVING FOR HEAD 


     6 CALLS TO PCG ROUTINE FOR TIME STEP   1 IN STRESS PERIOD    6
    22 TOTAL ITERATIONS

 OUTPUT CONTROL FOR STRESS PERIOD    6   TIME STEP    1
    SAVE BUDGET
    SAVE HEAD FOR ALL LAYERS
    PRINT HEAD FOR ALL LAYERS
 UBDSV2 SAVING "STREAMFLOW OUT  " ON UNIT  50 AT TIME STEP  1, STRESS PERIOD   6



 STREAM LISTING     PERIOD      6   STEP        1

 LAYER ROW COL. STREAM  RCH.  FLOW INTO     FLOW TO   FLOW OUT OF   OVRLND.     DIRECT     STREAM       STREAM     STREAM     STREAM   STREAMBED  STREAMBED
                SEG.NO.  NO.  STRM. RCH.    AQUIFER    STRM. RCH.    RUNOFF     PRECIP       ET          HEAD       DEPTH      WIDTH   CONDCTNC.   GRADIENT

   1   13    1     1     1    1.0000E+05 -2.6626E+04   1.2663E+05  0.000E+00  0.000E+00  0.000E+00  4.84173E+01  1.559E-01  2.000E+01  2.000E+04 -1.331E+00
   1   13    2     1     2    1.2663E+05 -3.5933E+04   1.6256E+05  0.000E+00  0.000E+00  0.000E+00  4.79646E+01  1.805E-01  2.000E+01  2.000E+04 -1.797E+00
   1   14    3     1     3    1.6256E+05 -3.2037E+04   1.9460E+05  0.000E+00  0.000E+00  0.000E+00  4.75117E+01  2.048E-01  2.000E+01  2.000E+04 -1.602E+00
   1   15    4     1     4    1.9460E+05 -3.1710E+04   2.2631E+05  0.000E+00  0.000E+00  0.000E+00  4.70556E+01  2.261E-01  2.000E+01  2.000E+04 -1.585E+00
   1   16    5     1     5    2.2631E+05 -3.3697E+04   2.6000E+05  0.000E+00  0.000E+00  0.000E+00  4.65988E+01  2.465E-01  2.000E+01  2.000E+04 -1.685E+00
   1   16    6     1     6    2.6000E+05 -2.9293E+04   2.8930E+05  0.000E+00  0.000E+00  0.000E+00  4.61402E+01  2.652E-01  2.000E+01  2.000E+04 -1.465E+00
   1   16    7     1     7    2.8930E+05 -2.9064E+04   3.1836E+05  0.000E+00  0.000E+00  0.000E+00  4.56795E+01  2.818E-01  2.000E+01  2.000E+04 -1.453E+00
   1   16    8     1     8    3.1836E+05 -2.9249E+04   3.4761E+05  0.000E+00  0.000E+00  0.000E+00  4.52182E+01  2.977E-01  2.000E+01  2.000E+04 -1.462E+00
   1   16    9     1     9    3.4761E+05 -2.9374E+04   3.7698E+05  0.000E+00  0.000E+00  0.000E+00  4.47563E+01  3.132E-01  2.000E+01  2.000E+04 -1.469E+00
   1   16   10     1    10    3.7698E+05 -2.9486E+04   4.0647E+05  0.000E+00  0.000E+00  0.000E+00  4.42941E+01  3.282E-01  2.000E+01  2.000E+04 -1.474E+00
   1   16   11     1    11    4.0647E+05 -3.0223E+04   4.3669E+05  0.000E+00  0.000E+00  0.000E+00  4.38316E+01  3.430E-01  2.000E+01  2.000E+04 -1.511E+00
   1   16   12     1    12    4.3669E+05 -3.5979E+04   4.7267E+05  0.000E+00  0.000E+00  0.000E+00  4.33702E+01  3.589E-01  2.000E+01  2.000E+04 -1.799E+00
   1   15   13     1    13    4.7267E+05 -3.4446E+04   5.0712E+05  0.000E+00  0.000E+00  0.000E+00  4.29094E+01  3.753E-01  2.000E+01  2.000E+04 -1.722E+00
   1   14   14     1    14    5.0712E+05 -3.4881E+04   5.4200E+05  0.000E+00  0.000E+00  0.000E+00  4.24478E+01  3.910E-01  2.000E+01  2.000E+04 -1.744E+00
   1   13   15     1    15    5.4200E+05 -3.7007E+04   5.7901E+05  0.000E+00  0.000E+00  0.000E+00  4.19864E+01  4.069E-01  2.000E+01  2.000E+04 -1.850E+00
   1   12   16     1    16    5.7901E+05 -4.2963E+04   6.2197E+05  0.000E+00  0.000E+00  0.000E+00  4.15263E+01  4.241E-01  2.000E+01  2.000E+04 -2.148E+00
   1   12   17     1    17    6.2197E+05 -3.3908E+04   6.5588E+05  0.000E+00  0.000E+00  0.000E+00  4.10651E+01  4.401E-01  2.000E+01  2.000E+04 -1.695E+00
   1   12   18     1    18    6.5588E+05 -3.2466E+04   6.8834E+05  0.000E+00  0.000E+00  0.000E+00  4.06014E+01  4.537E-01  2.000E+01  2.000E+04 -1.623E+00
   1   12   19     1    19    6.8834E+05 -3.6666E+04   7.2501E+05  0.000E+00  0.000E+00  0.000E+00  4.01380E+01  4.676E-01  2.000E+01  2.000E+04 -1.833E+00
   1   13   20     1    20    7.2501E+05 -2.7156E+04   7.5217E+05  0.000E+00  0.000E+00  0.000E+00  3.96733E+01  4.801E-01  2.000E+01  2.000E+04 -1.358E+00
   1   14   21     1    21    7.5217E+05 -2.0125E+04   7.7229E+05  0.000E+00  0.000E+00  0.000E+00  3.92052E+01  4.893E-01  2.000E+01  2.000E+04 -1.006E+00
   1   14   22     1    22    7.7229E+05 -1.9323E+03   7.7422E+05  0.000E+00  0.000E+00  0.000E+00  3.87322E+01  4.935E-01  2.000E+01  2.000E+04 -9.661E-02
   1    9   30     2     1    5.0000E+04 -2.6914E+04   7.6914E+04  0.000E+00  0.000E+00  0.000E+00  4.02587E+01  1.337E-01  2.000E+01  2.000E+04 -1.346E+00
   1    9   29     2     2    7.6914E+04 -2.9378E+04   1.0629E+05  0.000E+00  0.000E+00  0.000E+00  4.00416E+01  1.666E-01  2.000E+01  2.000E+04 -1.469E+00
   1    9   28     2     3    1.0629E+05 -3.3669E+04   1.3996E+05  0.000E+00  0.000E+00  0.000E+00  3.98240E+01  1.990E-01  2.000E+01  2.000E+04 -1.683E+00
   1    9   27     2     4    1.3996E+05 -4.7850E+04   1.8781E+05  0.000E+00  0.000E+00  0.000E+00  3.96112E+01  2.362E-01  2.000E+01  2.000E+04 -2.393E+00
   1   10   26     2     5    1.8781E+05 -3.3834E+04   2.2165E+05  0.000E+00  0.000E+00  0.000E+00  3.93949E+01  2.699E-01  2.000E+01  2.000E+04 -1.692E+00
   1   11   25     2     6    2.2165E+05 -2.5466E+04   2.4711E+05  0.000E+00  0.000E+00  0.000E+00  3.91678E+01  2.928E-01  2.000E+01  2.000E+04 -1.273E+00
   1   12   24     2     7    2.4711E+05 -1.8853E+04   2.6596E+05  0.000E+00  0.000E+00  0.000E+00  3.89341E+01  3.091E-01  2.000E+01  2.000E+04 -9.427E-01
   1   13   23     2     8    2.6596E+05 -1.3445E+04   2.7941E+05  0.000E+00  0.000E+00  0.000E+00  3.86956E+01  3.206E-01  2.000E+01  2.000E+04 -6.722E-01
   1   14   22     2     9    2.7941E+05 -7.5168E+03   2.8693E+05  0.000E+00  0.000E+00  0.000E+00  3.84529E+01  3.279E-01  2.000E+01  2.000E+04 -3.758E-01
   1   14   22     3     1    1.0611E+06 -1.5518E+04   1.0767E+06  0.000E+00  0.000E+00  0.000E+00  3.80529E+01  4.974E-01  2.000E+01  2.000E+04 -7.759E-01
   1   15   23     3     2    1.0767E+06 -2.4117E+04   1.1008E+06  0.000E+00  0.000E+00  0.000E+00  3.71695E+01  5.029E-01  2.000E+01  2.000E+04 -1.206E+00
   1   15   24     3     3    1.1008E+06 -2.0074E+04   1.1209E+06  0.000E+00  0.000E+00  0.000E+00  3.62867E+01  5.090E-01  2.000E+01  2.000E+04 -1.004E+00
   1   15   25     3     4    1.1209E+06 -1.9665E+04   1.1405E+06  0.000E+00  0.000E+00  0.000E+00  3.54033E+01  5.144E-01  2.000E+01  2.000E+04 -9.833E-01
   1   15   26     3     5    1.1405E+06 -2.2471E+04   1.1630E+06  0.000E+00  0.000E+00  0.000E+00  3.45201E+01  5.201E-01  2.000E+01  2.000E+04 -1.124E+00
   1   16   27     3     6    1.1630E+06 -2.9729E+04   1.1927E+06  0.000E+00  0.000E+00  0.000E+00  3.36383E+01  5.272E-01  2.000E+01  2.000E+04 -1.486E+00
   1   17   28     3     7    1.1927E+06 -3.6802E+04   1.2295E+06  0.000E+00  0.000E+00  0.000E+00  3.27583E+01  5.361E-01  2.000E+01  2.000E+04 -1.840E+00
   1   18   29     3     8    1.2295E+06 -4.7768E+04   1.2773E+06  0.000E+00  0.000E+00  0.000E+00  3.18805E+01  5.472E-01  2.000E+01  2.000E+04 -2.388E+00
   1   18   30     3     9    1.2773E+06 -4.4114E+04   1.3214E+06  0.000E+00  0.000E+00  0.000E+00  3.10036E+01  5.592E-01  2.000E+01  2.000E+04 -2.206E+00



1
              HEAD IN LAYER   1 AT END OF TIME STEP   1 IN STRESS PERIOD    6
  ---------------------------------------------------------------------------

          1      2      3      4      5      6      7      8      9     10
         11     12     13     14     15     16     17     18     19     20
         21     22     23     24     25     26     27     28     29     30
 .........................................................................
   1  ****** ****** ****** ****** ****** ****** ****** ****** ****** ******
      ****** ****** ****** ****** ****** ****** ****** ****** ****** ******
      ****** ****** ****** ****** ****** ****** ****** ****** ****** ******
   2  ****** ****** ****** ****** ****** ****** ****** ****** ****** ******
      ****** ****** ****** ****** ****** ****** ****** ****** ****** ******
      ****** ****** ****** ****** ****** ****** ****** ****** ****** ******
   3  ****** ****** ****** ****** ****** ****** ****** ****** ****** ******
      ****** ****** ****** ****** ****** ****** ****** ****** ****** ******
      ****** ****** ****** ****** ****** ****** ****** ****** ****** ******
   4  ****** ****** ****** ****** ****** ****** ****** ****** ****** ******
      ****** ****** ****** ****** ****** ****** ****** ****** ****** ******
      ****** ****** ****** ****** ****** ****** ****** ****** ****** ******
   5  ****** ****** ****** ****** ****** ****** ****** ****** ****** ******
      ****** ****** ****** ****** ****** ****** ****** ****** ****** ******
      ****** ****** ****** ****** ****** ****** ****** ****** ****** ******
   6  ****** ****** ****** ****** ****** ****** ****** ****** ****** ******
      ****** ****** ****** ****** ****** ****** ****** ****** ****** ******
      ****** ****** ****** ****** ****** ****** ****** ****** ****** ******
   7  ****** ****** ****** ****** ****** ****** ****** ****** ****** ******
      ****** ****** ****** ****** ****** ****** ****** ****** ****** ******
      ****** ****** ****** ****** ****** ****** ****** ****** ****** ******
   8  ****** ****** ****** ****** ****** ****** ****** ****** ****** ******
      ****** ****** ****** ****** ****** ****** ****** ****** ****** ******
      ****** ****** ****** ****** ****** ****** ****** ****** ****** ******
   9  ****** ****** ****** ****** ****** ****** ****** ****** ****** ******
      ****** ****** ****** ****** ****** ****** ****** ****** ****** ******
      ****** ****** ****** ****** ****** ****** ****** ****** ****** ******
  10  ****** ****** ****** ****** ****** ****** ****** ****** ****** ******
      ****** ****** ****** ****** ****** ****** ****** ****** ****** ******
      ****** ****** ****** ****** ****** ****** ****** ****** ****** ******
  11  ****** ****** ****** ****** ****** ****** ****** ****** ****** ******
      ****** ****** ****** ****** ****** ****** ****** ****** ****** ******
      ****** ****** ****** ****** ****** ****** ****** ****** ****** ******
  12  ****** ****** ****** ****** ****** ****** ****** ****** ****** ******
      ****** ****** ****** ****** ****** ****** ****** ****** ****** ******
      ****** ****** ****** ****** ****** ****** ****** ****** ****** ******
  13  ****** ****** ****** ****** ****** ****** ****** ****** ****** ******
      ****** ****** ****** ****** ****** ****** ****** ****** ****** ******
      ****** ****** ****** ****** ****** ****** ****** ****** ****** ******
  14  ****** ****** ****** ****** ****** ****** ****** ****** ****** ******
      ****** ****** ****** ****** ****** ****** ****** ****** ****** ******
      ****** ****** ****** ****** ****** ****** ****** ****** ****** ******
  15  ****** ****** ****** ****** ****** ****** ****** ****** ****** ******
      ****** ****** ****** ****** ****** ****** ****** ****** ****** ******
      ****** ****** ****** ****** ****** ****** ****** ****** ****** ******
  16  ****** ****** ****** ****** ****** ****** ****** ****** ****** ******
      ****** ****** ****** ****** ****** ****** ****** ****** ****** ******
      ****** ****** ****** ****** ****** ****** ****** ****** ****** ******
  17  ****** ****** ****** ****** ****** ****** ****** ****** ****** ******
      ****** ****** ****** ****** ****** ****** ****** ****** ****** ******
      ****** ****** ****** ****** ****** ****** ****** ****** ****** ******
  18  ****** ****** ****** ****** ****** ****** ****** ****** ****** ******
      ****** ****** ****** ****** ****** ****** ****** ****** ****** ******
      ****** ****** ****** ****** ****** ****** ****** ****** ****** ******
  19  ****** ****** ****** ****** ****** ****** ****** ****** ****** ******
      ****** ****** ****** ****** ****** ****** ****** ****** ****** ******
      ****** ****** ****** ****** ****** ****** ****** ****** ****** ******
  20  ****** ****** ****** ****** ****** ****** ****** ****** ****** ******
      ****** ****** ****** ****** ****** ****** ****** ****** ****** ******
      ****** ****** ****** ****** ****** ****** ****** ****** ****** ******
  21  ****** ****** ****** ****** ****** ****** ****** ****** ****** ******
      ****** ****** ****** ****** ****** ****** ****** ****** ****** ******
      ****** ****** ****** ****** ****** ****** ****** ****** ****** ******
  22  ****** ****** ****** ****** ****** ****** ****** ****** ****** ******
      ****** ****** ****** ****** ****** ****** ****** ****** ****** ******
      ****** ****** ****** ****** ****** ****** ****** ****** ****** ******
  23  ****** ****** ****** ****** ****** ****** ****** ****** ****** ******
      ****** ****** ****** ****** ****** ****** ****** ****** ****** ******
      ****** ****** ****** ****** ****** ****** ****** ****** ****** ******
  24  ****** ****** ****** ****** ****** ****** ****** ****** ****** ******
      ****** ****** ****** ****** ****** ****** ****** ****** ****** ******
      ****** ****** ****** ****** ****** ****** ****** ****** ****** ******
  25  ****** ****** ****** ****** ****** ****** ****** ****** ****** ******
      ****** ****** ****** ****** ****** ****** ****** ****** ****** ******
      ****** ****** ****** ****** ****** ****** ****** ****** ****** ******

 HEAD WILL BE SAVED ON UNIT   51 AT END OF TIME STEP    1, STRESS PERIOD    6
1
  VOLUMETRIC BUDGET FOR ENTIRE MODEL AT END OF TIME STEP    1, STRESS PERIOD   6
  ------------------------------------------------------------------------------

     CUMULATIVE VOLUMES      L**3       RATES FOR THIS TIME STEP      L**3/T
     ------------------                 ------------------------

           IN:                                      IN:
           ---                                      ---
             STORAGE =    20363180.0183               STORAGE =           0.0000
       CONSTANT HEAD =   657085069.3787         CONSTANT HEAD =     1198159.9784
               WELLS =           0.0000                 WELLS =           0.0000
            RECHARGE =    15097200.0000              RECHARGE =       55200.0000
      STREAM LEAKAGE =           0.0000        STREAM LEAKAGE =           0.0000

            TOTAL IN =   692545449.3969              TOTAL IN =     1253359.9784

          OUT:                                     OUT:
          ----                                     ----
             STORAGE =      268261.5277               STORAGE =        1952.9509
       CONSTANT HEAD =           0.0000         CONSTANT HEAD =           0.0000
               WELLS =    44295045.5000                 WELLS =       80000.0000
            RECHARGE =           0.0000              RECHARGE =           0.0000
      STREAM LEAKAGE =   647982149.3445        STREAM LEAKAGE =     1171406.9935

           TOTAL OUT =   692545456.3722             TOTAL OUT =     1253359.9444

            IN - OUT =          -6.9752              IN - OUT =       3.3949E-02

 PERCENT DISCREPANCY =          -0.00     PERCENT DISCREPANCY =           0.00






         TIME SUMMARY AT END OF TIME STEP    1 IN STRESS PERIOD    6
                    SECONDS     MINUTES      HOURS       DAYS        YEARS
                    -----------------------------------------------------------
   TIME STEP LENGTH 7.86240E+06 1.31040E+05  2184.0      91.000     0.24914    
 STRESS PERIOD TIME 7.86240E+06 1.31040E+05  2184.0      91.000     0.24914    
         TOTAL TIME 4.73472E+07 7.89120E+05  13152.      548.00      1.5003    
1
1
                            STRESS PERIOD NO.    7, LENGTH =   91.00000    
                            -----------------------------------------------

                              NUMBER OF TIME STEPS =     1

                               MULTIPLIER FOR DELT =     1.500

                            INITIAL TIME STEP SIZE =   91.00000    

 WELL NO.  LAYER   ROW   COL   STRESS RATE         
 --------------------------------------------------
      1      1      5      8     -0.5000E+05
      2      1      3      6     -0.3000E+05

      2 WELLS

                 RECHARGE =   0.00000    

 REUSING STREAM SEGMENT DATA FROM LAST STRESS PERIOD
 
 SOLVING FOR HEAD 


     6 CALLS TO PCG ROUTINE FOR TIME STEP   1 IN STRESS PERIOD    7
    22 TOTAL ITERATIONS

 OUTPUT CONTROL FOR STRESS PERIOD    7   TIME STEP    1
    SAVE BUDGET
    SAVE HEAD FOR ALL LAYERS
    PRINT HEAD FOR ALL LAYERS
 UBDSV2 SAVING "STREAMFLOW OUT  " ON UNIT  50 AT TIME STEP  1, STRESS PERIOD   7



 STREAM LISTING     PERIOD      7   STEP        1

 LAYER ROW COL. STREAM  RCH.  FLOW INTO     FLOW TO   FLOW OUT OF   OVRLND.     DIRECT     STREAM       STREAM     STREAM     STREAM   STREAMBED  STREAMBED
                SEG.NO.  NO.  STRM. RCH.    AQUIFER    STRM. RCH.    RUNOFF     PRECIP       ET          HEAD       DEPTH      WIDTH   CONDCTNC.   GRADIENT

   1   13    1     1     1    1.0000E+05 -2.5780E+04   1.2578E+05  0.000E+00  0.000E+00  0.000E+00  4.84169E+01  1.556E-01  2.000E+01  2.000E+04 -1.289E+00
   1   13    2     1     2    1.2578E+05 -3.4923E+04   1.6070E+05  0.000E+00  0.000E+00  0.000E+00  4.79636E+01  1.795E-01  2.000E+01  2.000E+04 -1.746E+00
   1   14    3     1     3    1.6070E+05 -3.1047E+04   1.9175E+05  0.000E+00  0.000E+00  0.000E+00  4.75100E+01  2.032E-01  2.000E+01  2.000E+04 -1.552E+00
   1   15    4     1     4    1.9175E+05 -3.0756E+04   2.2251E+05  0.000E+00  0.000E+00  0.000E+00  4.70535E+01  2.239E-01  2.000E+01  2.000E+04 -1.538E+00
   1   16    5     1     5    2.2251E+05 -3.2835E+04   2.5534E+05  0.000E+00  0.000E+00  0.000E+00  4.65962E+01  2.439E-01  2.000E+01  2.000E+04 -1.642E+00
   1   16    6     1     6    2.5534E+05 -2.8544E+04   2.8389E+05  0.000E+00  0.000E+00  0.000E+00  4.61373E+01  2.623E-01  2.000E+01  2.000E+04 -1.427E+00
   1   16    7     1     7    2.8389E+05 -2.8323E+04   3.1221E+05  0.000E+00  0.000E+00  0.000E+00  4.56763E+01  2.785E-01  2.000E+01  2.000E+04 -1.416E+00
   1   16    8     1     8    3.1221E+05 -2.8506E+04   3.4071E+05  0.000E+00  0.000E+00  0.000E+00  4.52146E+01  2.942E-01  2.000E+01  2.000E+04 -1.425E+00
   1   16    9     1     9    3.4071E+05 -2.8631E+04   3.6934E+05  0.000E+00  0.000E+00  0.000E+00  4.47526E+01  3.094E-01  2.000E+01  2.000E+04 -1.432E+00
   1   16   10     1    10    3.6934E+05 -2.8745E+04   3.9809E+05  0.000E+00  0.000E+00  0.000E+00  4.42900E+01  3.241E-01  2.000E+01  2.000E+04 -1.437E+00
   1   16   11     1    11    3.9809E+05 -2.9472E+04   4.2756E+05  0.000E+00  0.000E+00  0.000E+00  4.38273E+01  3.387E-01  2.000E+01  2.000E+04 -1.474E+00
   1   16   12     1    12    4.2756E+05 -3.5103E+04   4.6266E+05  0.000E+00  0.000E+00  0.000E+00  4.33657E+01  3.543E-01  2.000E+01  2.000E+04 -1.755E+00
   1   15   13     1    13    4.6266E+05 -3.3480E+04   4.9614E+05  0.000E+00  0.000E+00  0.000E+00  4.29046E+01  3.705E-01  2.000E+01  2.000E+04 -1.674E+00
   1   14   14     1    14    4.9614E+05 -3.3884E+04   5.3003E+05  0.000E+00  0.000E+00  0.000E+00  4.24427E+01  3.859E-01  2.000E+01  2.000E+04 -1.694E+00
   1   13   15     1    15    5.3003E+05 -3.6019E+04   5.6605E+05  0.000E+00  0.000E+00  0.000E+00  4.19810E+01  4.014E-01  2.000E+01  2.000E+04 -1.801E+00
   1   12   16     1    16    5.6605E+05 -4.2009E+04   6.0806E+05  0.000E+00  0.000E+00  0.000E+00  4.15206E+01  4.183E-01  2.000E+01  2.000E+04 -2.100E+00
   1   12   17     1    17    6.0806E+05 -3.3138E+04   6.4119E+05  0.000E+00  0.000E+00  0.000E+00  4.10592E+01  4.342E-01  2.000E+01  2.000E+04 -1.657E+00
   1   12   18     1    18    6.4119E+05 -3.1730E+04   6.7293E+05  0.000E+00  0.000E+00  0.000E+00  4.05953E+01  4.476E-01  2.000E+01  2.000E+04 -1.587E+00
   1   12   19     1    19    6.7293E+05 -3.5862E+04   7.0879E+05  0.000E+00  0.000E+00  0.000E+00  4.01317E+01  4.613E-01  2.000E+01  2.000E+04 -1.793E+00
   1   13   20     1    20    7.0879E+05 -2.6403E+04   7.3519E+05  0.000E+00  0.000E+00  0.000E+00  3.96668E+01  4.736E-01  2.000E+01  2.000E+04 -1.320E+00
   1   14   21     1    21    7.3519E+05 -1.9475E+04   7.5467E+05  0.000E+00  0.000E+00  0.000E+00  3.91985E+01  4.826E-01  2.000E+01  2.000E+04 -9.738E-01
   1   14   22     1    22    7.5467E+05 -1.7035E+03   7.5637E+05  0.000E+00  0.000E+00  0.000E+00  3.87253E+01  4.867E-01  2.000E+01  2.000E+04 -8.518E-02
   1    9   30     2     1    5.0000E+04 -2.6329E+04   7.6329E+04  0.000E+00  0.000E+00  0.000E+00  4.02583E+01  1.333E-01  2.000E+01  2.000E+04 -1.316E+00
   1    9   29     2     2    7.6329E+04 -2.8793E+04   1.0512E+05  0.000E+00  0.000E+00  0.000E+00  4.00407E+01  1.657E-01  2.000E+01  2.000E+04 -1.440E+00
   1    9   28     2     3    1.0512E+05 -3.3064E+04   1.3819E+05  0.000E+00  0.000E+00  0.000E+00  3.98225E+01  1.975E-01  2.000E+01  2.000E+04 -1.653E+00
   1    9   27     2     4    1.3819E+05 -4.7110E+04   1.8530E+05  0.000E+00  0.000E+00  0.000E+00  3.96093E+01  2.343E-01  2.000E+01  2.000E+04 -2.356E+00
   1   10   26     2     5    1.8530E+05 -3.3066E+04   2.1836E+05  0.000E+00  0.000E+00  0.000E+00  3.93926E+01  2.676E-01  2.000E+01  2.000E+04 -1.653E+00
   1   11   25     2     6    2.1836E+05 -2.4725E+04   2.4309E+05  0.000E+00  0.000E+00  0.000E+00  3.91650E+01  2.900E-01  2.000E+01  2.000E+04 -1.236E+00
   1   12   24     2     7    2.4309E+05 -1.8191E+04   2.6128E+05  0.000E+00  0.000E+00  0.000E+00  3.89309E+01  3.059E-01  2.000E+01  2.000E+04 -9.095E-01
   1   13   23     2     8    2.6128E+05 -1.2906E+04   2.7418E+05  0.000E+00  0.000E+00  0.000E+00  3.86921E+01  3.171E-01  2.000E+01  2.000E+04 -6.453E-01
   1   14   22     2     9    2.7418E+05 -7.2265E+03   2.8141E+05  0.000E+00  0.000E+00  0.000E+00  3.84492E+01  3.242E-01  2.000E+01  2.000E+04 -3.613E-01
   1   14   22     3     1    1.0378E+06 -1.5284E+04   1.0531E+06  0.000E+00  0.000E+00  0.000E+00  3.80463E+01  4.908E-01  2.000E+01  2.000E+04 -7.642E-01
   1   15   23     3     2    1.0531E+06 -2.3512E+04   1.0766E+06  0.000E+00  0.000E+00  0.000E+00  3.71629E+01  4.962E-01  2.000E+01  2.000E+04 -1.176E+00
   1   15   24     3     3    1.0766E+06 -1.9573E+04   1.0961E+06  0.000E+00  0.000E+00  0.000E+00  3.62800E+01  5.022E-01  2.000E+01  2.000E+04 -9.787E-01
   1   15   25     3     4    1.0961E+06 -1.9167E+04   1.1153E+06  0.000E+00  0.000E+00  0.000E+00  3.53965E+01  5.076E-01  2.000E+01  2.000E+04 -9.584E-01
   1   15   26     3     5    1.1153E+06 -2.1891E+04   1.1372E+06  0.000E+00  0.000E+00  0.000E+00  3.45132E+01  5.132E-01  2.000E+01  2.000E+04 -1.095E+00
   1   16   27     3     6    1.1372E+06 -2.9029E+04   1.1662E+06  0.000E+00  0.000E+00  0.000E+00  3.36312E+01  5.201E-01  2.000E+01  2.000E+04 -1.451E+00
   1   17   28     3     7    1.1662E+06 -3.6085E+04   1.2023E+06  0.000E+00  0.000E+00  0.000E+00  3.27511E+01  5.289E-01  2.000E+01  2.000E+04 -1.804E+00
   1   18   29     3     8    1.2023E+06 -4.7095E+04   1.2494E+06  0.000E+00  0.000E+00  0.000E+00  3.18733E+01  5.400E-01  2.000E+01  2.000E+04 -2.355E+00
   1   18   30     3     9    1.2494E+06 -4.3552E+04   1.2930E+06  0.000E+00  0.000E+00  0.000E+00  3.09963E+01  5.519E-01  2.000E+01  2.000E+04 -2.178E+00



1
              HEAD IN LAYER   1 AT END OF TIME STEP   1 IN STRESS PERIOD    7
  ---------------------------------------------------------------------------

          1      2      3      4      5      6      7      8      9     10
         11     12     13     14     15     16     17     18     19     20
         21     22     23     24     25     26     27     28     29     30
 .........................................................................
   1  ****** ****** ****** ****** ****** ****** ****** ****** ****** ******
      ****** ****** ****** ****** ****** ****** ****** ****** ****** ******
      ****** ****** ****** ****** ****** ****** ****** ****** ****** ******
   2  ****** ****** ****** ****** ****** ****** ****** ****** ****** ******
      ****** ****** ****** ****** ****** ****** ****** ****** ****** ******
      ****** ****** ****** ****** ****** ****** ****** ****** ****** ******
   3  ****** ****** ****** ****** ****** ****** ****** ****** ****** ******
      ****** ****** ****** ****** ****** ****** ****** ****** ****** ******
      ****** ****** ****** ****** ****** ****** ****** ****** ****** ******
   4  ****** ****** ****** ****** ****** ****** ****** ****** ****** ******
      ****** ****** ****** ****** ****** ****** ****** ****** ****** ******
      ****** ****** ****** ****** ****** ****** ****** ****** ****** ******
   5  ****** ****** ****** ****** ****** ****** ****** ****** ****** ******
      ****** ****** ****** ****** ****** ****** ****** ****** ****** ******
      ****** ****** ****** ****** ****** ****** ****** ****** ****** ******
   6  ****** ****** ****** ****** ****** ****** ****** ****** ****** ******
      ****** ****** ****** ****** ****** ****** ****** ****** ****** ******
      ****** ****** ****** ****** ****** ****** ****** ****** ****** ******
   7  ****** ****** ****** ****** ****** ****** ****** ****** ****** ******
      ****** ****** ****** ****** ****** ****** ****** ****** ****** ******
      ****** ****** ****** ****** ****** ****** ****** ****** ****** ******
   8  ****** ****** ****** ****** ****** ****** ****** ****** ****** ******
      ****** ****** ****** ****** ****** ****** ****** ****** ****** ******
      ****** ****** ****** ****** ****** ****** ****** ****** ****** ******
   9  ****** ****** ****** ****** ****** ****** ****** ****** ****** ******
      ****** ****** ****** ****** ****** ****** ****** ****** ****** ******
      ****** ****** ****** ****** ****** ****** ****** ****** ****** ******
  10  ****** ****** ****** ****** ****** ****** ****** ****** ****** ******
      ****** ****** ****** ****** ****** ****** ****** ****** ****** ******
      ****** ****** ****** ****** ****** ****** ****** ****** ****** ******
  11  ****** ****** ****** ****** ****** ****** ****** ****** ****** ******
      ****** ****** ****** ****** ****** ****** ****** ****** ****** ******
      ****** ****** ****** ****** ****** ****** ****** ****** ****** ******
  12  ****** ****** ****** ****** ****** ****** ****** ****** ****** ******
      ****** ****** ****** ****** ****** ****** ****** ****** ****** ******
      ****** ****** ****** ****** ****** ****** ****** ****** ****** ******
  13  ****** ****** ****** ****** ****** ****** ****** ****** ****** ******
      ****** ****** ****** ****** ****** ****** ****** ****** ****** ******
      ****** ****** ****** ****** ****** ****** ****** ****** ****** ******
  14  ****** ****** ****** ****** ****** ****** ****** ****** ****** ******
      ****** ****** ****** ****** ****** ****** ****** ****** ****** ******
      ****** ****** ****** ****** ****** ****** ****** ****** ****** ******
  15  ****** ****** ****** ****** ****** ****** ****** ****** ****** ******
      ****** ****** ****** ****** ****** ****** ****** ****** ****** ******
      ****** ****** ****** ****** ****** ****** ****** ****** ****** ******
  16  ****** ****** ****** ****** ****** ****** ****** ****** ****** ******
      ****** ****** ****** ****** ****** ****** ****** ****** ****** ******
      ****** ****** ****** ****** ****** ****** ****** ****** ****** ******
  17  ****** ****** ****** ****** ****** ****** ****** ****** ****** ******
      ****** ****** ****** ****** ****** ****** ****** ****** ****** ******
      ****** ****** ****** ****** ****** ****** ****** ****** ****** ******
  18  ****** ****** ****** ****** ****** ****** ****** ****** ****** ******
      ****** ****** ****** ****** ****** ****** ****** ****** ****** ******
      ****** ****** ****** ****** ****** ****** ****** ****** ****** ******
  19  ****** ****** ****** ****** ****** ****** ****** ****** ****** ******
      ****** ****** ****** ****** ****** ****** ****** ****** ****** ******
      ****** ****** ****** ****** ****** ****** ****** ****** ****** ******
  20  ****** ****** ****** ****** ****** ****** ****** ****** ****** ******
      ****** ****** ****** ****** ****** ****** ****** ****** ****** ******
      ****** ****** ****** ****** ****** ****** ****** ****** ****** ******
  21  ****** ****** ****** ****** ****** ****** ****** ****** ****** ******
      ****** ****** ****** ****** ****** ****** ****** ****** ****** ******
      ****** ****** ****** ****** ****** ****** ****** ****** ****** ******
  22  ****** ****** ****** ****** ****** ****** ****** ****** ****** ******
      ****** ****** ****** ****** ****** ****** ****** ****** ****** ******
      ****** ****** ****** ****** ****** ****** ****** ****** ****** ******
  23  ****** ****** ****** ****** ****** ****** ****** ****** ****** ******
      ****** ****** ****** ****** ****** ****** ****** ****** ****** ******
      ****** ****** ****** ****** ****** ****** ****** ****** ****** ******
  24  ****** ****** ****** ****** ****** ****** ****** ****** ****** ******
      ****** ****** ****** ****** ****** ****** ****** ****** ****** ******
      ****** ****** ****** ****** ****** ****** ****** ****** ****** ******
  25  ****** ****** ****** ****** ****** ****** ****** ****** ****** ******
      ****** ****** ****** ****** ****** ****** ****** ****** ****** ******
      ****** ****** ****** ****** ****** ****** ****** ****** ****** ******

 HEAD WILL BE SAVED ON UNIT   51 AT END OF TIME STEP    1, STRESS PERIOD    7
1
  VOLUMETRIC BUDGET FOR ENTIRE MODEL AT END OF TIME STEP    1, STRESS PERIOD   7
  ------------------------------------------------------------------------------

     CUMULATIVE VOLUMES      L**3       RATES FOR THIS TIME STEP      L**3/T
     ------------------                 ------------------------

           IN:                                      IN:
           ---                                      ---
             STORAGE =    20592086.2839               STORAGE =        2515.4535
       CONSTANT HEAD =   768146214.1562         CONSTANT HEAD =     1220452.1404
               WELLS =           0.0000                 WELLS =           0.0000
            RECHARGE =    15097200.0000              RECHARGE =           0.0000
      STREAM LEAKAGE =           0.0000        STREAM LEAKAGE =           0.0000

            TOTAL IN =   803835500.4401              TOTAL IN =     1222967.5939

          OUT:                                     OUT:
          ----                                     ----
             STORAGE =      268261.5277               STORAGE =           0.0000
       CONSTANT HEAD =           0.0000         CONSTANT HEAD =           0.0000
               WELLS =    51575045.5000                 WELLS =       80000.0000
            RECHARGE =           0.0000              RECHARGE =           0.0000
      STREAM LEAKAGE =   751992204.4847        STREAM LEAKAGE =     1142967.6389

           TOTAL OUT =   803835511.5124             TOTAL OUT =     1222967.6389

            IN - OUT =         -11.0723              IN - OUT =      -4.5022E-02

 PERCENT DISCREPANCY =          -0.00     PERCENT DISCREPANCY =          -0.00






         TIME SUMMARY AT END OF TIME STEP    1 IN STRESS PERIOD    7
                    SECONDS     MINUTES      HOURS       DAYS        YEARS
                    -----------------------------------------------------------
   TIME STEP LENGTH 7.86240E+06 1.31040E+05  2184.0      91.000     0.24914    
 STRESS PERIOD TIME 7.86240E+06 1.31040E+05  2184.0      91.000     0.24914    
         TOTAL TIME 5.52096E+07 9.20160E+05  15336.      639.00      1.7495    
1
1
                            STRESS PERIOD NO.    8, LENGTH =   91.00000    
                            -----------------------------------------------

                              NUMBER OF TIME STEPS =     1

                               MULTIPLIER FOR DELT =     1.500

                            INITIAL TIME STEP SIZE =   91.00000    

 WELL NO.  LAYER   ROW   COL   STRESS RATE         
 --------------------------------------------------
      1      1      5      8     -0.5000E+05
      2      1      3      6     -0.3000E+05
      3      1      3      9      -5001.    

      3 WELLS

                 RECHARGE =  1.000000E-03

 REUSING STREAM SEGMENT DATA FROM LAST STRESS PERIOD
 
 SOLVING FOR HEAD 


     6 CALLS TO PCG ROUTINE FOR TIME STEP   1 IN STRESS PERIOD    8
    22 TOTAL ITERATIONS

 OUTPUT CONTROL FOR STRESS PERIOD    8   TIME STEP    1
    SAVE BUDGET
    SAVE HEAD FOR ALL LAYERS
    PRINT HEAD FOR ALL LAYERS
 UBDSV2 SAVING "STREAMFLOW OUT  " ON UNIT  50 AT TIME STEP  1, STRESS PERIOD   8



 STREAM LISTING     PERIOD      8   STEP        1

 LAYER ROW COL. STREAM  RCH.  FLOW INTO     FLOW TO   FLOW OUT OF   OVRLND.     DIRECT     STREAM       STREAM     STREAM     STREAM   STREAMBED  STREAMBED
                SEG.NO.  NO.  STRM. RCH.    AQUIFER    STRM. RCH.    RUNOFF     PRECIP       ET          HEAD       DEPTH      WIDTH   CONDCTNC.   GRADIENT

   1   13    1     1     1    1.0000E+05 -2.6126E+04   1.2613E+05  0.000E+00  0.000E+00  0.000E+00  4.84171E+01  1.557E-01  2.000E+01  2.000E+04 -1.306E+00
   1   13    2     1     2    1.2613E+05 -3.5328E+04   1.6145E+05  0.000E+00  0.000E+00  0.000E+00  4.79640E+01  1.799E-01  2.000E+01  2.000E+04 -1.766E+00
   1   14    3     1     3    1.6145E+05 -3.1463E+04   1.9292E+05  0.000E+00  0.000E+00  0.000E+00  4.75107E+01  2.039E-01  2.000E+01  2.000E+04 -1.573E+00
   1   15    4     1     4    1.9292E+05 -3.1169E+04   2.2409E+05  0.000E+00  0.000E+00  0.000E+00  4.70543E+01  2.248E-01  2.000E+01  2.000E+04 -1.558E+00
   1   16    5     1     5    2.2409E+05 -3.3221E+04   2.5731E+05  0.000E+00  0.000E+00  0.000E+00  4.65973E+01  2.450E-01  2.000E+01  2.000E+04 -1.661E+00
   1   16    6     1     6    2.5731E+05 -2.8874E+04   2.8618E+05  0.000E+00  0.000E+00  0.000E+00  4.61385E+01  2.635E-01  2.000E+01  2.000E+04 -1.444E+00
   1   16    7     1     7    2.8618E+05 -2.8646E+04   3.1483E+05  0.000E+00  0.000E+00  0.000E+00  4.56776E+01  2.799E-01  2.000E+01  2.000E+04 -1.432E+00
   1   16    8     1     8    3.1483E+05 -2.8829E+04   3.4365E+05  0.000E+00  0.000E+00  0.000E+00  4.52161E+01  2.957E-01  2.000E+01  2.000E+04 -1.441E+00
   1   16    9     1     9    3.4365E+05 -2.8954E+04   3.7261E+05  0.000E+00  0.000E+00  0.000E+00  4.47542E+01  3.110E-01  2.000E+01  2.000E+04 -1.448E+00
   1   16   10     1    10    3.7261E+05 -2.9069E+04   4.0168E+05  0.000E+00  0.000E+00  0.000E+00  4.42918E+01  3.259E-01  2.000E+01  2.000E+04 -1.453E+00
   1   16   11     1    11    4.0168E+05 -2.9804E+04   4.3148E+05  0.000E+00  0.000E+00  0.000E+00  4.38292E+01  3.405E-01  2.000E+01  2.000E+04 -1.490E+00
   1   16   12     1    12    4.3148E+05 -3.5497E+04   4.6698E+05  0.000E+00  0.000E+00  0.000E+00  4.33677E+01  3.563E-01  2.000E+01  2.000E+04 -1.775E+00
   1   15   13     1    13    4.6698E+05 -3.3901E+04   5.0088E+05  0.000E+00  0.000E+00  0.000E+00  4.29066E+01  3.726E-01  2.000E+01  2.000E+04 -1.695E+00
   1   14   14     1    14    5.0088E+05 -3.4311E+04   5.3519E+05  0.000E+00  0.000E+00  0.000E+00  4.24449E+01  3.881E-01  2.000E+01  2.000E+04 -1.716E+00
   1   13   15     1    15    5.3519E+05 -3.6435E+04   5.7163E+05  0.000E+00  0.000E+00  0.000E+00  4.19833E+01  4.038E-01  2.000E+01  2.000E+04 -1.822E+00
   1   12   16     1    16    5.7163E+05 -4.2402E+04   6.1403E+05  0.000E+00  0.000E+00  0.000E+00  4.15231E+01  4.208E-01  2.000E+01  2.000E+04 -2.120E+00
   1   12   17     1    17    6.1403E+05 -3.3469E+04   6.4750E+05  0.000E+00  0.000E+00  0.000E+00  4.10618E+01  4.368E-01  2.000E+01  2.000E+04 -1.673E+00
   1   12   18     1    18    6.4750E+05 -3.2055E+04   6.7955E+05  0.000E+00  0.000E+00  0.000E+00  4.05980E+01  4.502E-01  2.000E+01  2.000E+04 -1.603E+00
   1   12   19     1    19    6.7955E+05 -3.6223E+04   7.1577E+05  0.000E+00  0.000E+00  0.000E+00  4.01344E+01  4.640E-01  2.000E+01  2.000E+04 -1.811E+00
   1   13   20     1    20    7.1577E+05 -2.6752E+04   7.4253E+05  0.000E+00  0.000E+00  0.000E+00  3.96696E+01  4.764E-01  2.000E+01  2.000E+04 -1.338E+00
   1   14   21     1    21    7.4253E+05 -1.9781E+04   7.6231E+05  0.000E+00  0.000E+00  0.000E+00  3.92014E+01  4.855E-01  2.000E+01  2.000E+04 -9.890E-01
   1   14   22     1    22    7.6231E+05 -1.8137E+03   7.6412E+05  0.000E+00  0.000E+00  0.000E+00  3.87283E+01  4.897E-01  2.000E+01  2.000E+04 -9.069E-02
   1    9   30     2     1    5.0000E+04 -2.6609E+04   7.6609E+04  0.000E+00  0.000E+00  0.000E+00  4.02585E+01  1.335E-01  2.000E+01  2.000E+04 -1.330E+00
   1    9   29     2     2    7.6609E+04 -2.9072E+04   1.0568E+05  0.000E+00  0.000E+00  0.000E+00  4.00411E+01  1.661E-01  2.000E+01  2.000E+04 -1.454E+00
   1    9   28     2     3    1.0568E+05 -3.3352E+04   1.3903E+05  0.000E+00  0.000E+00  0.000E+00  3.98232E+01  1.982E-01  2.000E+01  2.000E+04 -1.668E+00
   1    9   27     2     4    1.3903E+05 -4.7459E+04   1.8649E+05  0.000E+00  0.000E+00  0.000E+00  3.96102E+01  2.352E-01  2.000E+01  2.000E+04 -2.373E+00
   1   10   26     2     5    1.8649E+05 -3.3428E+04   2.1992E+05  0.000E+00  0.000E+00  0.000E+00  3.93937E+01  2.687E-01  2.000E+01  2.000E+04 -1.671E+00
   1   11   25     2     6    2.1992E+05 -2.5073E+04   2.4499E+05  0.000E+00  0.000E+00  0.000E+00  3.91663E+01  2.913E-01  2.000E+01  2.000E+04 -1.254E+00
   1   12   24     2     7    2.4499E+05 -1.8502E+04   2.6350E+05  0.000E+00  0.000E+00  0.000E+00  3.89324E+01  3.074E-01  2.000E+01  2.000E+04 -9.251E-01
   1   13   23     2     8    2.6350E+05 -1.3159E+04   2.7665E+05  0.000E+00  0.000E+00  0.000E+00  3.86938E+01  3.188E-01  2.000E+01  2.000E+04 -6.579E-01
   1   14   22     2     9    2.7665E+05 -7.3606E+03   2.8402E+05  0.000E+00  0.000E+00  0.000E+00  3.84510E+01  3.260E-01  2.000E+01  2.000E+04 -3.680E-01
   1   14   22     3     1    1.0481E+06 -1.5395E+04   1.0635E+06  0.000E+00  0.000E+00  0.000E+00  3.80492E+01  4.937E-01  2.000E+01  2.000E+04 -7.698E-01
   1   15   23     3     2    1.0635E+06 -2.3799E+04   1.0873E+06  0.000E+00  0.000E+00  0.000E+00  3.71658E+01  4.992E-01  2.000E+01  2.000E+04 -1.190E+00
   1   15   24     3     3    1.0873E+06 -1.9813E+04   1.1071E+06  0.000E+00  0.000E+00  0.000E+00  3.62830E+01  5.052E-01  2.000E+01  2.000E+04 -9.906E-01
   1   15   25     3     4    1.1071E+06 -1.9406E+04   1.1265E+06  0.000E+00  0.000E+00  0.000E+00  3.53995E+01  5.106E-01  2.000E+01  2.000E+04 -9.703E-01
   1   15   26     3     5    1.1265E+06 -2.2170E+04   1.1487E+06  0.000E+00  0.000E+00  0.000E+00  3.45163E+01  5.163E-01  2.000E+01  2.000E+04 -1.109E+00
   1   16   27     3     6    1.1487E+06 -2.9365E+04   1.1781E+06  0.000E+00  0.000E+00  0.000E+00  3.36344E+01  5.233E-01  2.000E+01  2.000E+04 -1.468E+00
   1   17   28     3     7    1.1781E+06 -3.6430E+04   1.2145E+06  0.000E+00  0.000E+00  0.000E+00  3.27543E+01  5.321E-01  2.000E+01  2.000E+04 -1.821E+00
   1   18   29     3     8    1.2145E+06 -4.7418E+04   1.2619E+06  0.000E+00  0.000E+00  0.000E+00  3.18766E+01  5.432E-01  2.000E+01  2.000E+04 -2.371E+00
   1   18   30     3     9    1.2619E+06 -4.3822E+04   1.3058E+06  0.000E+00  0.000E+00  0.000E+00  3.09996E+01  5.551E-01  2.000E+01  2.000E+04 -2.191E+00



1
              HEAD IN LAYER   1 AT END OF TIME STEP   1 IN STRESS PERIOD    8
  ---------------------------------------------------------------------------

          1      2      3      4      5      6      7      8      9     10
         11     12     13     14     15     16     17     18     19     20
         21     22     23     24     25     26     27     28     29     30
 .........................................................................
   1  ****** ****** ****** ****** ****** ****** ****** ****** ****** ******
      ****** ****** ****** ****** ****** ****** ****** ****** ****** ******
      ****** ****** ****** ****** ****** ****** ****** ****** ****** ******
   2  ****** ****** ****** ****** ****** ****** ****** ****** ****** ******
      ****** ****** ****** ****** ****** ****** ****** ****** ****** ******
      ****** ****** ****** ****** ****** ****** ****** ****** ****** ******
   3  ****** ****** ****** ****** ****** ****** ****** ****** ****** ******
      ****** ****** ****** ****** ****** ****** ****** ****** ****** ******
      ****** ****** ****** ****** ****** ****** ****** ****** ****** ******
   4  ****** ****** ****** ****** ****** ****** ****** ****** ****** ******
      ****** ****** ****** ****** ****** ****** ****** ****** ****** ******
      ****** ****** ****** ****** ****** ****** ****** ****** ****** ******
   5  ****** ****** ****** ****** ****** ****** ****** ****** ****** ******
      ****** ****** ****** ****** ****** ****** ****** ****** ****** ******
      ****** ****** ****** ****** ****** ****** ****** ****** ****** ******
   6  ****** ****** ****** ****** ****** ****** ****** ****** ****** ******
      ****** ****** ****** ****** ****** ****** ****** ****** ****** ******
      ****** ****** ****** ****** ****** ****** ****** ****** ****** ******
   7  ****** ****** ****** ****** ****** ****** ****** ****** ****** ******
      ****** ****** ****** ****** ****** ****** ****** ****** ****** ******
      ****** ****** ****** ****** ****** ****** ****** ****** ****** ******
   8  ****** ****** ****** ****** ****** ****** ****** ****** ****** ******
      ****** ****** ****** ****** ****** ****** ****** ****** ****** ******
      ****** ****** ****** ****** ****** ****** ****** ****** ****** ******
   9  ****** ****** ****** ****** ****** ****** ****** ****** ****** ******
      ****** ****** ****** ****** ****** ****** ****** ****** ****** ******
      ****** ****** ****** ****** ****** ****** ****** ****** ****** ******
  10  ****** ****** ****** ****** ****** ****** ****** ****** ****** ******
      ****** ****** ****** ****** ****** ****** ****** ****** ****** ******
      ****** ****** ****** ****** ****** ****** ****** ****** ****** ******
  11  ****** ****** ****** ****** ****** ****** ****** ****** ****** ******
      ****** ****** ****** ****** ****** ****** ****** ****** ****** ******
      ****** ****** ****** ****** ****** ****** ****** ****** ****** ******
  12  ****** ****** ****** ****** ****** ****** ****** ****** ****** ******
      ****** ****** ****** ****** ****** ****** ****** ****** ****** ******
      ****** ****** ****** ****** ****** ****** ****** ****** ****** ******
  13  ****** ****** ****** ****** ****** ****** ****** ****** ****** ******
      ****** ****** ****** ****** ****** ****** ****** ****** ****** ******
      ****** ****** ****** ****** ****** ****** ****** ****** ****** ******
  14  ****** ****** ****** ****** ****** ****** ****** ****** ****** ******
      ****** ****** ****** ****** ****** ****** ****** ****** ****** ******
      ****** ****** ****** ****** ****** ****** ****** ****** ****** ******
  15  ****** ****** ****** ****** ****** ****** ****** ****** ****** ******
      ****** ****** ****** ****** ****** ****** ****** ****** ****** ******
      ****** ****** ****** ****** ****** ****** ****** ****** ****** ******
  16  ****** ****** ****** ****** ****** ****** ****** ****** ****** ******
      ****** ****** ****** ****** ****** ****** ****** ****** ****** ******
      ****** ****** ****** ****** ****** ****** ****** ****** ****** ******
  17  ****** ****** ****** ****** ****** ****** ****** ****** ****** ******
      ****** ****** ****** ****** ****** ****** ****** ****** ****** ******
      ****** ****** ****** ****** ****** ****** ****** ****** ****** ******
  18  ****** ****** ****** ****** ****** ****** ****** ****** ****** ******
      ****** ****** ****** ****** ****** ****** ****** ****** ****** ******
      ****** ****** ****** ****** ****** ****** ****** ****** ****** ******
  19  ****** ****** ****** ****** ****** ****** ****** ****** ****** ******
      ****** ****** ****** ****** ****** ****** ****** ****** ****** ******
      ****** ****** ****** ****** ****** ****** ****** ****** ****** ******
  20  ****** ****** ****** ****** ****** ****** ****** ****** ****** ******
      ****** ****** ****** ****** ****** ****** ****** ****** ****** ******
      ****** ****** ****** ****** ****** ****** ****** ****** ****** ******
  21  ****** ****** ****** ****** ****** ****** ****** ****** ****** ******
      ****** ****** ****** ****** ****** ****** ****** ****** ****** ******
      ****** ****** ****** ****** ****** ****** ****** ****** ****** ******
  22  ****** ****** ****** ****** ****** ****** ****** ****** ****** ******
      ****** ****** ****** ****** ****** ****** ****** ****** ****** ******
      ****** ****** ****** ****** ****** ****** ****** ****** ****** ******
  23  ****** ****** ****** ****** ****** ****** ****** ****** ****** ******
      ****** ****** ****** ****** ****** ****** ****** ****** ****** ******
      ****** ****** ****** ****** ****** ****** ****** ****** ****** ******
  24  ****** ****** ****** ****** ****** ****** ****** ****** ****** ******
      ****** ****** ****** ****** ****** ****** ****** ****** ****** ******
      ****** ****** ****** ****** ****** ****** ****** ****** ****** ******
  25  ****** ****** ****** ****** ****** ****** ****** ****** ****** ******
      ****** ****** ****** ****** ****** ****** ****** ****** ****** ******
      ****** ****** ****** ****** ****** ****** ****** ****** ****** ******

 HEAD WILL BE SAVED ON UNIT   51 AT END OF TIME STEP    1, STRESS PERIOD    8
1
  VOLUMETRIC BUDGET FOR ENTIRE MODEL AT END OF TIME STEP    1, STRESS PERIOD   8
  ------------------------------------------------------------------------------

     CUMULATIVE VOLUMES      L**3       RATES FOR THIS TIME STEP      L**3/T
     ------------------                 ------------------------

           IN:                                      IN:
           ---                                      ---
             STORAGE =    20595294.8386               STORAGE =          35.2588
       CONSTANT HEAD =   878628139.7669         CONSTANT HEAD =     1214087.0946
               WELLS =           0.0000                 WELLS =           0.0000
            RECHARGE =    17608800.0000              RECHARGE =       27600.0000
      STREAM LEAKAGE =           0.0000        STREAM LEAKAGE =           0.0000

            TOTAL IN =   916832234.6054              TOTAL IN =     1241722.3535

          OUT:                                     OUT:
          ----                                     ----
             STORAGE =      356289.2455               STORAGE =         967.3376
       CONSTANT HEAD =           0.0000         CONSTANT HEAD =           0.0000
               WELLS =    59310091.0000                 WELLS =       85000.5000
            RECHARGE =           0.0000              RECHARGE =           0.0000
      STREAM LEAKAGE =   857165863.7872        STREAM LEAKAGE =     1155754.4978

           TOTAL OUT =   916832244.0327             TOTAL OUT =     1241722.3354

            IN - OUT =          -9.4273              IN - OUT =       1.8077E-02

 PERCENT DISCREPANCY =          -0.00     PERCENT DISCREPANCY =           0.00






         TIME SUMMARY AT END OF TIME STEP    1 IN STRESS PERIOD    8
                    SECONDS     MINUTES      HOURS       DAYS        YEARS
                    -----------------------------------------------------------
   TIME STEP LENGTH 7.86240E+06 1.31040E+05  2184.0      91.000     0.24914    
 STRESS PERIOD TIME 7.86240E+06 1.31040E+05  2184.0      91.000     0.24914    
         TOTAL TIME 6.30720E+07 1.05120E+06  17520.      730.00      1.9986    
1
1
                            STRESS PERIOD NO.    9, LENGTH =   92.00000    
                            -----------------------------------------------

                              NUMBER OF TIME STEPS =     1

                               MULTIPLIER FOR DELT =     1.500

                            INITIAL TIME STEP SIZE =   92.00000    

 WELL NO.  LAYER   ROW   COL   STRESS RATE         
 --------------------------------------------------
      1      1      5      8     -0.5000E+05
      2      1      3      6     -0.3000E+05

      2 WELLS

                 RECHARGE =  5.000000E-04

 REUSING STREAM SEGMENT DATA FROM LAST STRESS PERIOD
 
 SOLVING FOR HEAD 


     5 CALLS TO PCG ROUTINE FOR TIME STEP   1 IN STRESS PERIOD    9
    19 TOTAL ITERATIONS

 OUTPUT CONTROL FOR STRESS PERIOD    9   TIME STEP    1
    SAVE BUDGET
    SAVE HEAD FOR ALL LAYERS
    PRINT HEAD FOR ALL LAYERS
 UBDSV2 SAVING "STREAMFLOW OUT  " ON UNIT  50 AT TIME STEP  1, STRESS PERIOD   9



 STREAM LISTING     PERIOD      9   STEP        1

 LAYER ROW COL. STREAM  RCH.  FLOW INTO     FLOW TO   FLOW OUT OF   OVRLND.     DIRECT     STREAM       STREAM     STREAM     STREAM   STREAMBED  STREAMBED
                SEG.NO.  NO.  STRM. RCH.    AQUIFER    STRM. RCH.    RUNOFF     PRECIP       ET          HEAD       DEPTH      WIDTH   CONDCTNC.   GRADIENT

   1   13    1     1     1    1.0000E+05 -2.5968E+04   1.2597E+05  0.000E+00  0.000E+00  0.000E+00  4.84170E+01  1.556E-01  2.000E+01  2.000E+04 -1.298E+00
   1   13    2     1     2    1.2597E+05 -3.5146E+04   1.6111E+05  0.000E+00  0.000E+00  0.000E+00  4.79638E+01  1.797E-01  2.000E+01  2.000E+04 -1.757E+00
   1   14    3     1     3    1.6111E+05 -3.1270E+04   1.9238E+05  0.000E+00  0.000E+00  0.000E+00  4.75104E+01  2.036E-01  2.000E+01  2.000E+04 -1.563E+00
   1   15    4     1     4    1.9238E+05 -3.0973E+04   2.2336E+05  0.000E+00  0.000E+00  0.000E+00  4.70539E+01  2.244E-01  2.000E+01  2.000E+04 -1.549E+00
   1   16    5     1     5    2.2336E+05 -3.3033E+04   2.5639E+05  0.000E+00  0.000E+00  0.000E+00  4.65968E+01  2.445E-01  2.000E+01  2.000E+04 -1.652E+00
   1   16    6     1     6    2.5639E+05 -2.8715E+04   2.8511E+05  0.000E+00  0.000E+00  0.000E+00  4.61379E+01  2.629E-01  2.000E+01  2.000E+04 -1.436E+00
   1   16    7     1     7    2.8511E+05 -2.8492E+04   3.1360E+05  0.000E+00  0.000E+00  0.000E+00  4.56770E+01  2.793E-01  2.000E+01  2.000E+04 -1.425E+00
   1   16    8     1     8    3.1360E+05 -2.8675E+04   3.4227E+05  0.000E+00  0.000E+00  0.000E+00  4.52154E+01  2.950E-01  2.000E+01  2.000E+04 -1.434E+00
   1   16    9     1     9    3.4227E+05 -2.8801E+04   3.7107E+05  0.000E+00  0.000E+00  0.000E+00  4.47534E+01  3.102E-01  2.000E+01  2.000E+04 -1.440E+00
   1   16   10     1    10    3.7107E+05 -2.8915E+04   3.9999E+05  0.000E+00  0.000E+00  0.000E+00  4.42910E+01  3.251E-01  2.000E+01  2.000E+04 -1.446E+00
   1   16   11     1    11    3.9999E+05 -2.9644E+04   4.2963E+05  0.000E+00  0.000E+00  0.000E+00  4.38283E+01  3.397E-01  2.000E+01  2.000E+04 -1.482E+00
   1   16   12     1    12    4.2963E+05 -3.5305E+04   4.6494E+05  0.000E+00  0.000E+00  0.000E+00  4.33667E+01  3.554E-01  2.000E+01  2.000E+04 -1.765E+00
   1   15   13     1    13    4.6494E+05 -3.3701E+04   4.9864E+05  0.000E+00  0.000E+00  0.000E+00  4.29057E+01  3.716E-01  2.000E+01  2.000E+04 -1.685E+00
   1   14   14     1    14    4.9864E+05 -3.4110E+04   5.3275E+05  0.000E+00  0.000E+00  0.000E+00  4.24439E+01  3.870E-01  2.000E+01  2.000E+04 -1.706E+00
   1   13   15     1    15    5.3275E+05 -3.6242E+04   5.6899E+05  0.000E+00  0.000E+00  0.000E+00  4.19822E+01  4.027E-01  2.000E+01  2.000E+04 -1.812E+00
   1   12   16     1    16    5.6899E+05 -4.2223E+04   6.1121E+05  0.000E+00  0.000E+00  0.000E+00  4.15219E+01  4.196E-01  2.000E+01  2.000E+04 -2.111E+00
   1   12   17     1    17    6.1121E+05 -3.3313E+04   6.4453E+05  0.000E+00  0.000E+00  0.000E+00  4.10606E+01  4.356E-01  2.000E+01  2.000E+04 -1.666E+00
   1   12   18     1    18    6.4453E+05 -3.1899E+04   6.7643E+05  0.000E+00  0.000E+00  0.000E+00  4.05967E+01  4.490E-01  2.000E+01  2.000E+04 -1.595E+00
   1   12   19     1    19    6.7643E+05 -3.6048E+04   7.1247E+05  0.000E+00  0.000E+00  0.000E+00  4.01332E+01  4.627E-01  2.000E+01  2.000E+04 -1.802E+00
   1   13   20     1    20    7.1247E+05 -2.6579E+04   7.3905E+05  0.000E+00  0.000E+00  0.000E+00  3.96683E+01  4.751E-01  2.000E+01  2.000E+04 -1.329E+00
   1   14   21     1    21    7.3905E+05 -1.9628E+04   7.5868E+05  0.000E+00  0.000E+00  0.000E+00  3.92000E+01  4.841E-01  2.000E+01  2.000E+04 -9.814E-01
   1   14   22     1    22    7.5868E+05 -1.7581E+03   7.6044E+05  0.000E+00  0.000E+00  0.000E+00  3.87269E+01  4.883E-01  2.000E+01  2.000E+04 -8.791E-02
   1    9   30     2     1    5.0000E+04 -2.6469E+04   7.6469E+04  0.000E+00  0.000E+00  0.000E+00  4.02584E+01  1.334E-01  2.000E+01  2.000E+04 -1.323E+00
   1    9   29     2     2    7.6469E+04 -2.8932E+04   1.0540E+05  0.000E+00  0.000E+00  0.000E+00  4.00409E+01  1.659E-01  2.000E+01  2.000E+04 -1.447E+00
   1    9   28     2     3    1.0540E+05 -3.3208E+04   1.3861E+05  0.000E+00  0.000E+00  0.000E+00  3.98229E+01  1.979E-01  2.000E+01  2.000E+04 -1.660E+00
   1    9   27     2     4    1.3861E+05 -4.7285E+04   1.8589E+05  0.000E+00  0.000E+00  0.000E+00  3.96098E+01  2.348E-01  2.000E+01  2.000E+04 -2.364E+00
   1   10   26     2     5    1.8589E+05 -3.3248E+04   2.1914E+05  0.000E+00  0.000E+00  0.000E+00  3.93932E+01  2.682E-01  2.000E+01  2.000E+04 -1.662E+00
   1   11   25     2     6    2.1914E+05 -2.4900E+04   2.4404E+05  0.000E+00  0.000E+00  0.000E+00  3.91657E+01  2.907E-01  2.000E+01  2.000E+04 -1.245E+00
   1   12   24     2     7    2.4404E+05 -1.8348E+04   2.6239E+05  0.000E+00  0.000E+00  0.000E+00  3.89317E+01  3.067E-01  2.000E+01  2.000E+04 -9.174E-01
   1   13   23     2     8    2.6239E+05 -1.3033E+04   2.7542E+05  0.000E+00  0.000E+00  0.000E+00  3.86929E+01  3.179E-01  2.000E+01  2.000E+04 -6.517E-01
   1   14   22     2     9    2.7542E+05 -7.2945E+03   2.8272E+05  0.000E+00  0.000E+00  0.000E+00  3.84501E+01  3.251E-01  2.000E+01  2.000E+04 -3.647E-01
   1   14   22     3     1    1.0432E+06 -1.5339E+04   1.0585E+06  0.000E+00  0.000E+00  0.000E+00  3.80478E+01  4.923E-01  2.000E+01  2.000E+04 -7.670E-01
   1   15   23     3     2    1.0585E+06 -2.3655E+04   1.0822E+06  0.000E+00  0.000E+00  0.000E+00  3.71644E+01  4.977E-01  2.000E+01  2.000E+04 -1.183E+00
   1   15   24     3     3    1.0822E+06 -1.9693E+04   1.1018E+06  0.000E+00  0.000E+00  0.000E+00  3.62815E+01  5.038E-01  2.000E+01  2.000E+04 -9.846E-01
   1   15   25     3     4    1.1018E+06 -1.9286E+04   1.1211E+06  0.000E+00  0.000E+00  0.000E+00  3.53980E+01  5.091E-01  2.000E+01  2.000E+04 -9.643E-01
   1   15   26     3     5    1.1211E+06 -2.2030E+04   1.1432E+06  0.000E+00  0.000E+00  0.000E+00  3.45148E+01  5.148E-01  2.000E+01  2.000E+04 -1.102E+00
   1   16   27     3     6    1.1432E+06 -2.9196E+04   1.1724E+06  0.000E+00  0.000E+00  0.000E+00  3.36329E+01  5.218E-01  2.000E+01  2.000E+04 -1.460E+00
   1   17   28     3     7    1.1724E+06 -3.6257E+04   1.2086E+06  0.000E+00  0.000E+00  0.000E+00  3.27528E+01  5.306E-01  2.000E+01  2.000E+04 -1.813E+00
   1   18   29     3     8    1.2086E+06 -4.7256E+04   1.2559E+06  0.000E+00  0.000E+00  0.000E+00  3.18750E+01  5.416E-01  2.000E+01  2.000E+04 -2.363E+00
   1   18   30     3     9    1.2559E+06 -4.3687E+04   1.2996E+06  0.000E+00  0.000E+00  0.000E+00  3.09980E+01  5.536E-01  2.000E+01  2.000E+04 -2.184E+00



1
              HEAD IN LAYER   1 AT END OF TIME STEP   1 IN STRESS PERIOD    9
  ---------------------------------------------------------------------------

          1      2      3      4      5      6      7      8      9     10
         11     12     13     14     15     16     17     18     19     20
         21     22     23     24     25     26     27     28     29     30
 .........................................................................
   1  ****** ****** ****** ****** ****** ****** ****** ****** ****** ******
      ****** ****** ****** ****** ****** ****** ****** ****** ****** ******
      ****** ****** ****** ****** ****** ****** ****** ****** ****** ******
   2  ****** ****** ****** ****** ****** ****** ****** ****** ****** ******
      ****** ****** ****** ****** ****** ****** ****** ****** ****** ******
      ****** ****** ****** ****** ****** ****** ****** ****** ****** ******
   3  ****** ****** ****** ****** ****** ****** ****** ****** ****** ******
      ****** ****** ****** ****** ****** ****** ****** ****** ****** ******
      ****** ****** ****** ****** ****** ****** ****** ****** ****** ******
   4  ****** ****** ****** ****** ****** ****** ****** ****** ****** ******
      ****** ****** ****** ****** ****** ****** ****** ****** ****** ******
      ****** ****** ****** ****** ****** ****** ****** ****** ****** ******
   5  ****** ****** ****** ****** ****** ****** ****** ****** ****** ******
      ****** ****** ****** ****** ****** ****** ****** ****** ****** ******
      ****** ****** ****** ****** ****** ****** ****** ****** ****** ******
   6  ****** ****** ****** ****** ****** ****** ****** ****** ****** ******
      ****** ****** ****** ****** ****** ****** ****** ****** ****** ******
      ****** ****** ****** ****** ****** ****** ****** ****** ****** ******
   7  ****** ****** ****** ****** ****** ****** ****** ****** ****** ******
      ****** ****** ****** ****** ****** ****** ****** ****** ****** ******
      ****** ****** ****** ****** ****** ****** ****** ****** ****** ******
   8  ****** ****** ****** ****** ****** ****** ****** ****** ****** ******
      ****** ****** ****** ****** ****** ****** ****** ****** ****** ******
      ****** ****** ****** ****** ****** ****** ****** ****** ****** ******
   9  ****** ****** ****** ****** ****** ****** ****** ****** ****** ******
      ****** ****** ****** ****** ****** ****** ****** ****** ****** ******
      ****** ****** ****** ****** ****** ****** ****** ****** ****** ******
  10  ****** ****** ****** ****** ****** ****** ****** ****** ****** ******
      ****** ****** ****** ****** ****** ****** ****** ****** ****** ******
      ****** ****** ****** ****** ****** ****** ****** ****** ****** ******
  11  ****** ****** ****** ****** ****** ****** ****** ****** ****** ******
      ****** ****** ****** ****** ****** ****** ****** ****** ****** ******
      ****** ****** ****** ****** ****** ****** ****** ****** ****** ******
  12  ****** ****** ****** ****** ****** ****** ****** ****** ****** ******
      ****** ****** ****** ****** ****** ****** ****** ****** ****** ******
      ****** ****** ****** ****** ****** ****** ****** ****** ****** ******
  13  ****** ****** ****** ****** ****** ****** ****** ****** ****** ******
      ****** ****** ****** ****** ****** ****** ****** ****** ****** ******
      ****** ****** ****** ****** ****** ****** ****** ****** ****** ******
  14  ****** ****** ****** ****** ****** ****** ****** ****** ****** ******
      ****** ****** ****** ****** ****** ****** ****** ****** ****** ******
      ****** ****** ****** ****** ****** ****** ****** ****** ****** ******
  15  ****** ****** ****** ****** ****** ****** ****** ****** ****** ******
      ****** ****** ****** ****** ****** ****** ****** ****** ****** ******
      ****** ****** ****** ****** ****** ****** ****** ****** ****** ******
  16  ****** ****** ****** ****** ****** ****** ****** ****** ****** ******
      ****** ****** ****** ****** ****** ****** ****** ****** ****** ******
      ****** ****** ****** ****** ****** ****** ****** ****** ****** ******
  17  ****** ****** ****** ****** ****** ****** ****** ****** ****** ******
      ****** ****** ****** ****** ****** ****** ****** ****** ****** ******
      ****** ****** ****** ****** ****** ****** ****** ****** ****** ******
  18  ****** ****** ****** ****** ****** ****** ****** ****** ****** ******
      ****** ****** ****** ****** ****** ****** ****** ****** ****** ******
      ****** ****** ****** ****** ****** ****** ****** ****** ****** ******
  19  ****** ****** ****** ****** ****** ****** ****** ****** ****** ******
      ****** ****** ****** ****** ****** ****** ****** ****** ****** ******
      ****** ****** ****** ****** ****** ****** ****** ****** ****** ******
  20  ****** ****** ****** ****** ****** ****** ****** ****** ****** ******
      ****** ****** ****** ****** ****** ****** ****** ****** ****** ******
      ****** ****** ****** ****** ****** ****** ****** ****** ****** ******
  21  ****** ****** ****** ****** ****** ****** ****** ****** ****** ******
      ****** ****** ****** ****** ****** ****** ****** ****** ****** ******
      ****** ****** ****** ****** ****** ****** ****** ****** ****** ******
  22  ****** ****** ****** ****** ****** ****** ****** ****** ****** ******
      ****** ****** ****** ****** ****** ****** ****** ****** ****** ******
      ****** ****** ****** ****** ****** ****** ****** ****** ****** ******
  23  ****** ****** ****** ****** ****** ****** ****** ****** ****** ******
      ****** ****** ****** ****** ****** ****** ****** ****** ****** ******
      ****** ****** ****** ****** ****** ****** ****** ****** ****** ******
  24  ****** ****** ****** ****** ****** ****** ****** ****** ****** ******
      ****** ****** ****** ****** ****** ****** ****** ****** ****** ******
      ****** ****** ****** ****** ****** ****** ****** ****** ****** ******
  25  ****** ****** ****** ****** ****** ****** ****** ****** ****** ******
      ****** ****** ****** ****** ****** ****** ****** ****** ****** ******
      ****** ****** ****** ****** ****** ****** ****** ****** ****** ******

 HEAD WILL BE SAVED ON UNIT   51 AT END OF TIME STEP    1, STRESS PERIOD    9
1
  VOLUMETRIC BUDGET FOR ENTIRE MODEL AT END OF TIME STEP    1, STRESS PERIOD   9
  ------------------------------------------------------------------------------

     CUMULATIVE VOLUMES      L**3       RATES FOR THIS TIME STEP      L**3/T
     ------------------                 ------------------------

           IN:                                      IN:
           ---                                      ---
             STORAGE =    20634497.3003               STORAGE =         426.1137
       CONSTANT HEAD =   990444116.1788         CONSTANT HEAD =     1215391.0480
               WELLS =           0.0000                 WELLS =           0.0000
            RECHARGE =    18878400.0000              RECHARGE =       13800.0000
      STREAM LEAKAGE =           0.0000        STREAM LEAKAGE =           0.0000

            TOTAL IN =  1029957013.4791              TOTAL IN =     1229617.1617

          OUT:                                     OUT:
          ----                                     ----
             STORAGE =      361845.5720               STORAGE =          60.3949
       CONSTANT HEAD =           0.0000         CONSTANT HEAD =           0.0000
               WELLS =    66670091.0000                 WELLS =       80000.0000
            RECHARGE =           0.0000              RECHARGE =           0.0000
      STREAM LEAKAGE =   962925090.3569        STREAM LEAKAGE =     1149556.8105

           TOTAL OUT =  1029957026.9289             TOTAL OUT =     1229617.2054

            IN - OUT =         -13.4498              IN - OUT =      -4.3723E-02

 PERCENT DISCREPANCY =          -0.00     PERCENT DISCREPANCY =          -0.00






         TIME SUMMARY AT END OF TIME STEP    1 IN STRESS PERIOD    9
                    SECONDS     MINUTES      HOURS       DAYS        YEARS
                    -----------------------------------------------------------
   TIME STEP LENGTH 7.94880E+06 1.32480E+05  2208.0      92.000     0.25188    
 STRESS PERIOD TIME 7.94880E+06 1.32480E+05  2208.0      92.000     0.25188    
         TOTAL TIME 7.10208E+07 1.18368E+06  19728.      822.00      2.2505    
1
1
                            STRESS PERIOD NO.   10, LENGTH =   91.00000    
                            -----------------------------------------------

                              NUMBER OF TIME STEPS =     1

                               MULTIPLIER FOR DELT =     1.500

                            INITIAL TIME STEP SIZE =   91.00000    

 WELL NO.  LAYER   ROW   COL   STRESS RATE         
 --------------------------------------------------
      1      1      5      8     -0.5000E+05
      2      1      3      6     -0.3000E+05
      3      1      3      9       0.000    

      3 WELLS

                 RECHARGE =  2.000000E-03

 REUSING STREAM SEGMENT DATA FROM LAST STRESS PERIOD
 
 SOLVING FOR HEAD 


     6 CALLS TO PCG ROUTINE FOR TIME STEP   1 IN STRESS PERIOD   10
    22 TOTAL ITERATIONS

 OUTPUT CONTROL FOR STRESS PERIOD   10   TIME STEP    1
    SAVE BUDGET
    SAVE HEAD FOR ALL LAYERS
    PRINT HEAD FOR ALL LAYERS
 UBDSV2 SAVING "STREAMFLOW OUT  " ON UNIT  50 AT TIME STEP  1, STRESS PERIOD  10



 STREAM LISTING     PERIOD     10   STEP        1

 LAYER ROW COL. STREAM  RCH.  FLOW INTO     FLOW TO   FLOW OUT OF   OVRLND.     DIRECT     STREAM       STREAM     STREAM     STREAM   STREAMBED  STREAMBED
                SEG.NO.  NO.  STRM. RCH.    AQUIFER    STRM. RCH.    RUNOFF     PRECIP       ET          HEAD       DEPTH      WIDTH   CONDCTNC.   GRADIENT

   1   13    1     1     1    1.0000E+05 -2.6626E+04   1.2663E+05  0.000E+00  0.000E+00  0.000E+00  4.84173E+01  1.559E-01  2.000E+01  2.000E+04 -1.331E+00
   1   13    2     1     2    1.2663E+05 -3.5932E+04   1.6256E+05  0.000E+00  0.000E+00  0.000E+00  4.79646E+01  1.805E-01  2.000E+01  2.000E+04 -1.797E+00
   1   14    3     1     3    1.6256E+05 -3.2037E+04   1.9460E+05  0.000E+00  0.000E+00  0.000E+00  4.75117E+01  2.048E-01  2.000E+01  2.000E+04 -1.602E+00
   1   15    4     1     4    1.9460E+05 -3.1710E+04   2.2631E+05  0.000E+00  0.000E+00  0.000E+00  4.70556E+01  2.261E-01  2.000E+01  2.000E+04 -1.585E+00
   1   16    5     1     5    2.2631E+05 -3.3697E+04   2.6000E+05  0.000E+00  0.000E+00  0.000E+00  4.65988E+01  2.465E-01  2.000E+01  2.000E+04 -1.685E+00
   1   16    6     1     6    2.6000E+05 -2.9293E+04   2.8930E+05  0.000E+00  0.000E+00  0.000E+00  4.61402E+01  2.652E-01  2.000E+01  2.000E+04 -1.465E+00
   1   16    7     1     7    2.8930E+05 -2.9064E+04   3.1836E+05  0.000E+00  0.000E+00  0.000E+00  4.56795E+01  2.818E-01  2.000E+01  2.000E+04 -1.453E+00
   1   16    8     1     8    3.1836E+05 -2.9249E+04   3.4761E+05  0.000E+00  0.000E+00  0.000E+00  4.52182E+01  2.977E-01  2.000E+01  2.000E+04 -1.462E+00
   1   16    9     1     9    3.4761E+05 -2.9374E+04   3.7698E+05  0.000E+00  0.000E+00  0.000E+00  4.47563E+01  3.132E-01  2.000E+01  2.000E+04 -1.469E+00
   1   16   10     1    10    3.7698E+05 -2.9486E+04   4.0647E+05  0.000E+00  0.000E+00  0.000E+00  4.42941E+01  3.282E-01  2.000E+01  2.000E+04 -1.474E+00
   1   16   11     1    11    4.0647E+05 -3.0223E+04   4.3669E+05  0.000E+00  0.000E+00  0.000E+00  4.38316E+01  3.430E-01  2.000E+01  2.000E+04 -1.511E+00
   1   16   12     1    12    4.3669E+05 -3.5979E+04   4.7267E+05  0.000E+00  0.000E+00  0.000E+00  4.33702E+01  3.589E-01  2.000E+01  2.000E+04 -1.799E+00
   1   15   13     1    13    4.7267E+05 -3.4446E+04   5.0712E+05  0.000E+00  0.000E+00  0.000E+00  4.29094E+01  3.753E-01  2.000E+01  2.000E+04 -1.722E+00
   1   14   14     1    14    5.0712E+05 -3.4881E+04   5.4200E+05  0.000E+00  0.000E+00  0.000E+00  4.24478E+01  3.910E-01  2.000E+01  2.000E+04 -1.744E+00
   1   13   15     1    15    5.4200E+05 -3.7007E+04   5.7901E+05  0.000E+00  0.000E+00  0.000E+00  4.19864E+01  4.069E-01  2.000E+01  2.000E+04 -1.850E+00
   1   12   16     1    16    5.7901E+05 -4.2963E+04   6.2197E+05  0.000E+00  0.000E+00  0.000E+00  4.15263E+01  4.241E-01  2.000E+01  2.000E+04 -2.148E+00
   1   12   17     1    17    6.2197E+05 -3.3908E+04   6.5588E+05  0.000E+00  0.000E+00  0.000E+00  4.10651E+01  4.401E-01  2.000E+01  2.000E+04 -1.695E+00
   1   12   18     1    18    6.5588E+05 -3.2466E+04   6.8834E+05  0.000E+00  0.000E+00  0.000E+00  4.06014E+01  4.537E-01  2.000E+01  2.000E+04 -1.623E+00
   1   12   19     1    19    6.8834E+05 -3.6666E+04   7.2501E+05  0.000E+00  0.000E+00  0.000E+00  4.01380E+01  4.676E-01  2.000E+01  2.000E+04 -1.833E+00
   1   13   20     1    20    7.2501E+05 -2.7156E+04   7.5217E+05  0.000E+00  0.000E+00  0.000E+00  3.96733E+01  4.801E-01  2.000E+01  2.000E+04 -1.358E+00
   1   14   21     1    21    7.5217E+05 -2.0125E+04   7.7229E+05  0.000E+00  0.000E+00  0.000E+00  3.92052E+01  4.893E-01  2.000E+01  2.000E+04 -1.006E+00
   1   14   22     1    22    7.7229E+05 -1.9323E+03   7.7422E+05  0.000E+00  0.000E+00  0.000E+00  3.87322E+01  4.935E-01  2.000E+01  2.000E+04 -9.661E-02
   1    9   30     2     1    5.0000E+04 -2.6914E+04   7.6914E+04  0.000E+00  0.000E+00  0.000E+00  4.02587E+01  1.337E-01  2.000E+01  2.000E+04 -1.346E+00
   1    9   29     2     2    7.6914E+04 -2.9378E+04   1.0629E+05  0.000E+00  0.000E+00  0.000E+00  4.00416E+01  1.666E-01  2.000E+01  2.000E+04 -1.469E+00
   1    9   28     2     3    1.0629E+05 -3.3669E+04   1.3996E+05  0.000E+00  0.000E+00  0.000E+00  3.98240E+01  1.990E-01  2.000E+01  2.000E+04 -1.683E+00
   1    9   27     2     4    1.3996E+05 -4.7850E+04   1.8781E+05  0.000E+00  0.000E+00  0.000E+00  3.96112E+01  2.362E-01  2.000E+01  2.000E+04 -2.393E+00
   1   10   26     2     5    1.8781E+05 -3.3834E+04   2.2165E+05  0.000E+00  0.000E+00  0.000E+00  3.93949E+01  2.699E-01  2.000E+01  2.000E+04 -1.692E+00
   1   11   25     2     6    2.2165E+05 -2.5466E+04   2.4711E+05  0.000E+00  0.000E+00  0.000E+00  3.91678E+01  2.928E-01  2.000E+01  2.000E+04 -1.273E+00
   1   12   24     2     7    2.4711E+05 -1.8853E+04   2.6596E+05  0.000E+00  0.000E+00  0.000E+00  3.89341E+01  3.091E-01  2.000E+01  2.000E+04 -9.427E-01
   1   13   23     2     8    2.6596E+05 -1.3445E+04   2.7941E+05  0.000E+00  0.000E+00  0.000E+00  3.86956E+01  3.206E-01  2.000E+01  2.000E+04 -6.722E-01
   1   14   22     2     9    2.7941E+05 -7.5168E+03   2.8693E+05  0.000E+00  0.000E+00  0.000E+00  3.84529E+01  3.279E-01  2.000E+01  2.000E+04 -3.758E-01
   1   14   22     3     1    1.0611E+06 -1.5518E+04   1.0767E+06  0.000E+00  0.000E+00  0.000E+00  3.80529E+01  4.974E-01  2.000E+01  2.000E+04 -7.759E-01
   1   15   23     3     2    1.0767E+06 -2.4117E+04   1.1008E+06  0.000E+00  0.000E+00  0.000E+00  3.71695E+01  5.029E-01  2.000E+01  2.000E+04 -1.206E+00
   1   15   24     3     3    1.1008E+06 -2.0074E+04   1.1209E+06  0.000E+00  0.000E+00  0.000E+00  3.62867E+01  5.090E-01  2.000E+01  2.000E+04 -1.004E+00
   1   15   25     3     4    1.1209E+06 -1.9665E+04   1.1405E+06  0.000E+00  0.000E+00  0.000E+00  3.54033E+01  5.144E-01  2.000E+01  2.000E+04 -9.833E-01
   1   15   26     3     5    1.1405E+06 -2.2471E+04   1.1630E+06  0.000E+00  0.000E+00  0.000E+00  3.45201E+01  5.201E-01  2.000E+01  2.000E+04 -1.124E+00
   1   16   27     3     6    1.1630E+06 -2.9729E+04   1.1927E+06  0.000E+00  0.000E+00  0.000E+00  3.36383E+01  5.272E-01  2.000E+01  2.000E+04 -1.486E+00
   1   17   28     3     7    1.1927E+06 -3.6802E+04   1.2295E+06  0.000E+00  0.000E+00  0.000E+00  3.27583E+01  5.361E-01  2.000E+01  2.000E+04 -1.840E+00
   1   18   29     3     8    1.2295E+06 -4.7768E+04   1.2773E+06  0.000E+00  0.000E+00  0.000E+00  3.18805E+01  5.472E-01  2.000E+01  2.000E+04 -2.388E+00
   1   18   30     3     9    1.2773E+06 -4.4114E+04   1.3214E+06  0.000E+00  0.000E+00  0.000E+00  3.10036E+01  5.592E-01  2.000E+01  2.000E+04 -2.206E+00



1
              HEAD IN LAYER   1 AT END OF TIME STEP   1 IN STRESS PERIOD   10
  ---------------------------------------------------------------------------

          1      2      3      4      5      6      7      8      9     10
         11     12     13     14     15     16     17     18     19     20
         21     22     23     24     25     26     27     28     29     30
 .........................................................................
   1  ****** ****** ****** ****** ****** ****** ****** ****** ****** ******
      ****** ****** ****** ****** ****** ****** ****** ****** ****** ******
      ****** ****** ****** ****** ****** ****** ****** ****** ****** ******
   2  ****** ****** ****** ****** ****** ****** ****** ****** ****** ******
      ****** ****** ****** ****** ****** ****** ****** ****** ****** ******
      ****** ****** ****** ****** ****** ****** ****** ****** ****** ******
   3  ****** ****** ****** ****** ****** ****** ****** ****** ****** ******
      ****** ****** ****** ****** ****** ****** ****** ****** ****** ******
      ****** ****** ****** ****** ****** ****** ****** ****** ****** ******
   4  ****** ****** ****** ****** ****** ****** ****** ****** ****** ******
      ****** ****** ****** ****** ****** ****** ****** ****** ****** ******
      ****** ****** ****** ****** ****** ****** ****** ****** ****** ******
   5  ****** ****** ****** ****** ****** ****** ****** ****** ****** ******
      ****** ****** ****** ****** ****** ****** ****** ****** ****** ******
      ****** ****** ****** ****** ****** ****** ****** ****** ****** ******
   6  ****** ****** ****** ****** ****** ****** ****** ****** ****** ******
      ****** ****** ****** ****** ****** ****** ****** ****** ****** ******
      ****** ****** ****** ****** ****** ****** ****** ****** ****** ******
   7  ****** ****** ****** ****** ****** ****** ****** ****** ****** ******
      ****** ****** ****** ****** ****** ****** ****** ****** ****** ******
      ****** ****** ****** ****** ****** ****** ****** ****** ****** ******
   8  ****** ****** ****** ****** ****** ****** ****** ****** ****** ******
      ****** ****** ****** ****** ****** ****** ****** ****** ****** ******
      ****** ****** ****** ****** ****** ****** ****** ****** ****** ******
   9  ****** ****** ****** ****** ****** ****** ****** ****** ****** ******
      ****** ****** ****** ****** ****** ****** ****** ****** ****** ******
      ****** ****** ****** ****** ****** ****** ****** ****** ****** ******
  10  ****** ****** ****** ****** ****** ****** ****** ****** ****** ******
      ****** ****** ****** ****** ****** ****** ****** ****** ****** ******
      ****** ****** ****** ****** ****** ****** ****** ****** ****** ******
  11  ****** ****** ****** ****** ****** ****** ****** ****** ****** ******
      ****** ****** ****** ****** ****** ****** ****** ****** ****** ******
      ****** ****** ****** ****** ****** ****** ****** ****** ****** ******
  12  ****** ****** ****** ****** ****** ****** ****** ****** ****** ******
      ****** ****** ****** ****** ****** ****** ****** ****** ****** ******
      ****** ****** ****** ****** ****** ****** ****** ****** ****** ******
  13  ****** ****** ****** ****** ****** ****** ****** ****** ****** ******
      ****** ****** ****** ****** ****** ****** ****** ****** ****** ******
      ****** ****** ****** ****** ****** ****** ****** ****** ****** ******
  14  ****** ****** ****** ****** ****** ****** ****** ****** ****** ******
      ****** ****** ****** ****** ****** ****** ****** ****** ****** ******
      ****** ****** ****** ****** ****** ****** ****** ****** ****** ******
  15  ****** ****** ****** ****** ****** ****** ****** ****** ****** ******
      ****** ****** ****** ****** ****** ****** ****** ****** ****** ******
      ****** ****** ****** ****** ****** ****** ****** ****** ****** ******
  16  ****** ****** ****** ****** ****** ****** ****** ****** ****** ******
      ****** ****** ****** ****** ****** ****** ****** ****** ****** ******
      ****** ****** ****** ****** ****** ****** ****** ****** ****** ******
  17  ****** ****** ****** ****** ****** ****** ****** ****** ****** ******
      ****** ****** ****** ****** ****** ****** ****** ****** ****** ******
      ****** ****** ****** ****** ****** ****** ****** ****** ****** ******
  18  ****** ****** ****** ****** ****** ****** ****** ****** ****** ******
      ****** ****** ****** ****** ****** ****** ****** ****** ****** ******
      ****** ****** ****** ****** ****** ****** ****** ****** ****** ******
  19  ****** ****** ****** ****** ****** ****** ****** ****** ****** ******
      ****** ****** ****** ****** ****** ****** ****** ****** ****** ******
      ****** ****** ****** ****** ****** ****** ****** ****** ****** ******
  20  ****** ****** ****** ****** ****** ****** ****** ****** ****** ******
      ****** ****** ****** ****** ****** ****** ****** ****** ****** ******
      ****** ****** ****** ****** ****** ****** ****** ****** ****** ******
  21  ****** ****** ****** ****** ****** ****** ****** ****** ****** ******
      ****** ****** ****** ****** ****** ****** ****** ****** ****** ******
      ****** ****** ****** ****** ****** ****** ****** ****** ****** ******
  22  ****** ****** ****** ****** ****** ****** ****** ****** ****** ******
      ****** ****** ****** ****** ****** ****** ****** ****** ****** ******
      ****** ****** ****** ****** ****** ****** ****** ****** ****** ******
  23  ****** ****** ****** ****** ****** ****** ****** ****** ****** ******
      ****** ****** ****** ****** ****** ****** ****** ****** ****** ******
      ****** ****** ****** ****** ****** ****** ****** ****** ****** ******
  24  ****** ****** ****** ****** ****** ****** ****** ****** ****** ******
      ****** ****** ****** ****** ****** ****** ****** ****** ****** ******
      ****** ****** ****** ****** ****** ****** ****** ****** ****** ******
  25  ****** ****** ****** ****** ****** ****** ****** ****** ****** ******
      ****** ****** ****** ****** ****** ****** ****** ****** ****** ******
      ****** ****** ****** ****** ****** ****** ****** ****** ****** ******

 HEAD WILL BE SAVED ON UNIT   51 AT END OF TIME STEP    1, STRESS PERIOD   10
1
  VOLUMETRIC BUDGET FOR ENTIRE MODEL AT END OF TIME STEP    1, STRESS PERIOD  10
  ------------------------------------------------------------------------------

     CUMULATIVE VOLUMES      L**3       RATES FOR THIS TIME STEP      L**3/T
     ------------------                 ------------------------

           IN:                                      IN:
           ---                                      ---
             STORAGE =    20634497.3003               STORAGE =           0.0000
       CONSTANT HEAD =  1099476680.7386         CONSTANT HEAD =     1198160.0501
               WELLS =           0.0000                 WELLS =           0.0000
            RECHARGE =    23901600.0000              RECHARGE =       55200.0000
      STREAM LEAKAGE =           0.0000        STREAM LEAKAGE =           0.0000

            TOTAL IN =  1144012778.0389              TOTAL IN =     1253360.0501

          OUT:                                     OUT:
          ----                                     ----
             STORAGE =      539577.8014               STORAGE =        1953.1014
       CONSTANT HEAD =           0.0000         CONSTANT HEAD =           0.0000
               WELLS =    73950091.0000                 WELLS =       80000.0000
            RECHARGE =           0.0000              RECHARGE =           0.0000
      STREAM LEAKAGE =  1069523119.5977        STREAM LEAKAGE =     1171406.9147

           TOTAL OUT =  1144012788.3990             TOTAL OUT =     1253360.0162

            IN - OUT =         -10.3602              IN - OUT =       3.3952E-02

 PERCENT DISCREPANCY =          -0.00     PERCENT DISCREPANCY =           0.00






         TIME SUMMARY AT END OF TIME STEP    1 IN STRESS PERIOD   10
                    SECONDS     MINUTES      HOURS       DAYS        YEARS
                    -----------------------------------------------------------
   TIME STEP LENGTH 7.86240E+06 1.31040E+05  2184.0      91.000     0.24914    
 STRESS PERIOD TIME 7.86240E+06 1.31040E+05  2184.0      91.000     0.24914    
         TOTAL TIME 7.88832E+07 1.31472E+06  21912.      913.00      2.4997    
1
1
                            STRESS PERIOD NO.   11, LENGTH =   91.00000    
                            -----------------------------------------------

                              NUMBER OF TIME STEPS =     1

                               MULTIPLIER FOR DELT =     1.500

                            INITIAL TIME STEP SIZE =   91.00000    

 WELL NO.  LAYER   ROW   COL   STRESS RATE         
 --------------------------------------------------
      1      1      5      8     -0.5000E+05
      2      1      3      6     -0.3000E+05

      2 WELLS

                 RECHARGE =   0.00000    

 REUSING STREAM SEGMENT DATA FROM LAST STRESS PERIOD
 
 SOLVING FOR HEAD 


     6 CALLS TO PCG ROUTINE FOR TIME STEP   1 IN STRESS PERIOD   11
    22 TOTAL ITERATIONS

 OUTPUT CONTROL FOR STRESS PERIOD   11   TIME STEP    1
    SAVE BUDGET
    SAVE HEAD FOR ALL LAYERS
    PRINT HEAD FOR ALL LAYERS
 UBDSV2 SAVING "STREAMFLOW OUT  " ON UNIT  50 AT TIME STEP  1, STRESS PERIOD  11



 STREAM LISTING     PERIOD     11   STEP        1

 LAYER ROW COL. STREAM  RCH.  FLOW INTO     FLOW TO   FLOW OUT OF   OVRLND.     DIRECT     STREAM       STREAM     STREAM     STREAM   STREAMBED  STREAMBED
                SEG.NO.  NO.  STRM. RCH.    AQUIFER    STRM. RCH.    RUNOFF     PRECIP       ET          HEAD       DEPTH      WIDTH   CONDCTNC.   GRADIENT

   1   13    1     1     1    1.0000E+05 -2.5780E+04   1.2578E+05  0.000E+00  0.000E+00  0.000E+00  4.84169E+01  1.556E-01  2.000E+01  2.000E+04 -1.289E+00
   1   13    2     1     2    1.2578E+05 -3.4923E+04   1.6070E+05  0.000E+00  0.000E+00  0.000E+00  4.79636E+01  1.795E-01  2.000E+01  2.000E+04 -1.746E+00
   1   14    3     1     3    1.6070E+05 -3.1047E+04   1.9175E+05  0.000E+00  0.000E+00  0.000E+00  4.75100E+01  2.032E-01  2.000E+01  2.000E+04 -1.552E+00
   1   15    4     1     4    1.9175E+05 -3.0756E+04   2.2251E+05  0.000E+00  0.000E+00  0.000E+00  4.70535E+01  2.239E-01  2.000E+01  2.000E+04 -1.538E+00
   1   16    5     1     5    2.2251E+05 -3.2835E+04   2.5534E+05  0.000E+00  0.000E+00  0.000E+00  4.65962E+01  2.439E-01  2.000E+01  2.000E+04 -1.642E+00
   1   16    6     1     6    2.5534E+05 -2.8544E+04   2.8389E+05  0.000E+00  0.000E+00  0.000E+00  4.61373E+01  2.623E-01  2.000E+01  2.000E+04 -1.427E+00
   1   16    7     1     7    2.8389E+05 -2.8323E+04   3.1221E+05  0.000E+00  0.000E+00  0.000E+00  4.56763E+01  2.785E-01  2.000E+01  2.000E+04 -1.416E+00
   1   16    8     1     8    3.1221E+05 -2.8506E+04   3.4071E+05  0.000E+00  0.000E+00  0.000E+00  4.52146E+01  2.942E-01  2.000E+01  2.000E+04 -1.425E+00
   1   16    9     1     9    3.4071E+05 -2.8631E+04   3.6934E+05  0.000E+00  0.000E+00  0.000E+00  4.47526E+01  3.094E-01  2.000E+01  2.000E+04 -1.432E+00
   1   16   10     1    10    3.6934E+05 -2.8745E+04   3.9809E+05  0.000E+00  0.000E+00  0.000E+00  4.42900E+01  3.241E-01  2.000E+01  2.000E+04 -1.437E+00
   1   16   11     1    11    3.9809E+05 -2.9472E+04   4.2756E+05  0.000E+00  0.000E+00  0.000E+00  4.38273E+01  3.387E-01  2.000E+01  2.000E+04 -1.474E+00
   1   16   12     1    12    4.2756E+05 -3.5103E+04   4.6266E+05  0.000E+00  0.000E+00  0.000E+00  4.33657E+01  3.543E-01  2.000E+01  2.000E+04 -1.755E+00
   1   15   13     1    13    4.6266E+05 -3.3480E+04   4.9614E+05  0.000E+00  0.000E+00  0.000E+00  4.29046E+01  3.705E-01  2.000E+01  2.000E+04 -1.674E+00
   1   14   14     1    14    4.9614E+05 -3.3884E+04   5.3003E+05  0.000E+00  0.000E+00  0.000E+00  4.24427E+01  3.859E-01  2.000E+01  2.000E+04 -1.694E+00
   1   13   15     1    15    5.3003E+05 -3.6019E+04   5.6605E+05  0.000E+00  0.000E+00  0.000E+00  4.19810E+01  4.014E-01  2.000E+01  2.000E+04 -1.801E+00
   1   12   16     1    16    5.6605E+05 -4.2009E+04   6.0806E+05  0.000E+00  0.000E+00  0.000E+00  4.15206E+01  4.183E-01  2.000E+01  2.000E+04 -2.100E+00
   1   12   17     1    17    6.0806E+05 -3.3138E+04   6.4119E+05  0.000E+00  0.000E+00  0.000E+00  4.10592E+01  4.342E-01  2.000E+01  2.000E+04 -1.657E+00
   1   12   18     1    18    6.4119E+05 -3.1730E+04   6.7293E+05  0.000E+00  0.000E+00  0.000E+00  4.05953E+01  4.476E-01  2.000E+01  2.000E+04 -1.587E+00
   1   12   19     1    19    6.7293E+05 -3.5862E+04   7.0879E+05  0.000E+00  0.000E+00  0.000E+00  4.01317E+01  4.613E-01  2.000E+01  2.000E+04 -1.793E+00
   1   13   20     1    20    7.0879E+05 -2.6403E+04   7.3519E+05  0.000E+00  0.000E+00  0.000E+00  3.96668E+01  4.736E-01  2.000E+01  2.000E+04 -1.320E+00
   1   14   21     1    21    7.3519E+05 -1.9475E+04   7.5467E+05  0.000E+00  0.000E+00  0.000E+00  3.91985E+01  4.826E-01  2.000E+01  2.000E+04 -9.738E-01
   1   14   22     1    22    7.5467E+05 -1.7035E+03   7.5637E+05  0.000E+00  0.000E+00  0.000E+00  3.87253E+01  4.867E-01  2.000E+01  2.000E+04 -8.518E-02
   1    9   30     2     1    5.0000E+04 -2.6329E+04   7.6329E+04  0.000E+00  0.000E+00  0.000E+00  4.02583E+01  1.333E-01  2.000E+01  2.000E+04 -1.316E+00
   1    9   29     2     2    7.6329E+04 -2.8793E+04   1.0512E+05  0.000E+00  0.000E+00  0.000E+00  4.00407E+01  1.657E-01  2.000E+01  2.000E+04 -1.440E+00
   1    9   28     2     3    1.0512E+05 -3.3064E+04   1.3819E+05  0.000E+00  0.000E+00  0.000E+00  3.98225E+01  1.975E-01  2.000E+01  2.000E+04 -1.653E+00
   1    9   27     2     4    1.3819E+05 -4.7110E+04   1.8530E+05  0.000E+00  0.000E+00  0.000E+00  3.96093E+01  2.343E-01  2.000E+01  2.000E+04 -2.356E+00
   1   10   26     2     5    1.8530E+05 -3.3066E+04   2.1836E+05  0.000E+00  0.000E+00  0.000E+00  3.93926E+01  2.676E-01  2.000E+01  2.000E+04 -1.653E+00
   1   11   25     2     6    2.1836E+05 -2.4725E+04   2.4309E+05  0.000E+00  0.000E+00  0.000E+00  3.91650E+01  2.900E-01  2.000E+01  2.000E+04 -1.236E+00
   1   12   24     2     7    2.4309E+05 -1.8191E+04   2.6128E+05  0.000E+00  0.000E+00  0.000E+00  3.89309E+01  3.059E-01  2.000E+01  2.000E+04 -9.095E-01
   1   13   23     2     8    2.6128E+05 -1.2906E+04   2.7418E+05  0.000E+00  0.000E+00  0.000E+00  3.86921E+01  3.171E-01  2.000E+01  2.000E+04 -6.453E-01
   1   14   22     2     9    2.7418E+05 -7.2265E+03   2.8141E+05  0.000E+00  0.000E+00  0.000E+00  3.84492E+01  3.242E-01  2.000E+01  2.000E+04 -3.613E-01
   1   14   22     3     1    1.0378E+06 -1.5284E+04   1.0531E+06  0.000E+00  0.000E+00  0.000E+00  3.80463E+01  4.908E-01  2.000E+01  2.000E+04 -7.642E-01
   1   15   23     3     2    1.0531E+06 -2.3512E+04   1.0766E+06  0.000E+00  0.000E+00  0.000E+00  3.71629E+01  4.962E-01  2.000E+01  2.000E+04 -1.176E+00
   1   15   24     3     3    1.0766E+06 -1.9573E+04   1.0961E+06  0.000E+00  0.000E+00  0.000E+00  3.62800E+01  5.022E-01  2.000E+01  2.000E+04 -9.787E-01
   1   15   25     3     4    1.0961E+06 -1.9167E+04   1.1153E+06  0.000E+00  0.000E+00  0.000E+00  3.53965E+01  5.076E-01  2.000E+01  2.000E+04 -9.584E-01
   1   15   26     3     5    1.1153E+06 -2.1891E+04   1.1372E+06  0.000E+00  0.000E+00  0.000E+00  3.45132E+01  5.132E-01  2.000E+01  2.000E+04 -1.095E+00
   1   16   27     3     6    1.1372E+06 -2.9029E+04   1.1662E+06  0.000E+00  0.000E+00  0.000E+00  3.36312E+01  5.201E-01  2.000E+01  2.000E+04 -1.451E+00
   1   17   28     3     7    1.1662E+06 -3.6085E+04   1.2023E+06  0.000E+00  0.000E+00  0.000E+00  3.27511E+01  5.289E-01  2.000E+01  2.000E+04 -1.804E+00
   1   18   29     3     8    1.2023E+06 -4.7095E+04   1.2494E+06  0.000E+00  0.000E+00  0.000E+00  3.18733E+01  5.400E-01  2.000E+01  2.000E+04 -2.355E+00
   1   18   30     3     9    1.2494E+06 -4.3552E+04   1.2930E+06  0.000E+00  0.000E+00  0.000E+00  3.09963E+01  5.519E-01  2.000E+01  2.000E+04 -2.178E+00



1
              HEAD IN LAYER   1 AT END OF TIME STEP   1 IN STRESS PERIOD   11
  ---------------------------------------------------------------------------

          1      2      3      4      5      6      7      8      9     10
         11     12     13     14     15     16     17     18     19     20
         21     22     23     24     25     26     27     28     29     30
 .........................................................................
   1  ****** ****** ****** ****** ****** ****** ****** ****** ****** ******
      ****** ****** ****** ****** ****** ****** ****** ****** ****** ******
      ****** ****** ****** ****** ****** ****** ****** ****** ****** ******
   2  ****** ****** ****** ****** ****** ****** ****** ****** ****** ******
      ****** ****** ****** ****** ****** ****** ****** ****** ****** ******
      ****** ****** ****** ****** ****** ****** ****** ****** ****** ******
   3  ****** ****** ****** ****** ****** ****** ****** ****** ****** ******
      ****** ****** ****** ****** ****** ****** ****** ****** ****** ******
      ****** ****** ****** ****** ****** ****** ****** ****** ****** ******
   4  ****** ****** ****** ****** ****** ****** ****** ****** ****** ******
      ****** ****** ****** ****** ****** ****** ****** ****** ****** ******
      ****** ****** ****** ****** ****** ****** ****** ****** ****** ******
   5  ****** ****** ****** ****** ****** ****** ****** ****** ****** ******
      ****** ****** ****** ****** ****** ****** ****** ****** ****** ******
      ****** ****** ****** ****** ****** ****** ****** ****** ****** ******
   6  ****** ****** ****** ****** ****** ****** ****** ****** ****** ******
      ****** ****** ****** ****** ****** ****** ****** ****** ****** ******
      ****** ****** ****** ****** ****** ****** ****** ****** ****** ******
   7  ****** ****** ****** ****** ****** ****** ****** ****** ****** ******
      ****** ****** ****** ****** ****** ****** ****** ****** ****** ******
      ****** ****** ****** ****** ****** ****** ****** ****** ****** ******
   8  ****** ****** ****** ****** ****** ****** ****** ****** ****** ******
      ****** ****** ****** ****** ****** ****** ****** ****** ****** ******
      ****** ****** ****** ****** ****** ****** ****** ****** ****** ******
   9  ****** ****** ****** ****** ****** ****** ****** ****** ****** ******
      ****** ****** ****** ****** ****** ****** ****** ****** ****** ******
      ****** ****** ****** ****** ****** ****** ****** ****** ****** ******
  10  ****** ****** ****** ****** ****** ****** ****** ****** ****** ******
      ****** ****** ****** ****** ****** ****** ****** ****** ****** ******
      ****** ****** ****** ****** ****** ****** ****** ****** ****** ******
  11  ****** ****** ****** ****** ****** ****** ****** ****** ****** ******
      ****** ****** ****** ****** ****** ****** ****** ****** ****** ******
      ****** ****** ****** ****** ****** ****** ****** ****** ****** ******
  12  ****** ****** ****** ****** ****** ****** ****** ****** ****** ******
      ****** ****** ****** ****** ****** ****** ****** ****** ****** ******
      ****** ****** ****** ****** ****** ****** ****** ****** ****** ******
  13  ****** ****** ****** ****** ****** ****** ****** ****** ****** ******
      ****** ****** ****** ****** ****** ****** ****** ****** ****** ******
      ****** ****** ****** ****** ****** ****** ****** ****** ****** ******
  14  ****** ****** ****** ****** ****** ****** ****** ****** ****** ******
      ****** ****** ****** ****** ****** ****** ****** ****** ****** ******
      ****** ****** ****** ****** ****** ****** ****** ****** ****** ******
  15  ****** ****** ****** ****** ****** ****** ****** ****** ****** ******
      ****** ****** ****** ****** ****** ****** ****** ****** ****** ******
      ****** ****** ****** ****** ****** ****** ****** ****** ****** ******
  16  ****** ****** ****** ****** ****** ****** ****** ****** ****** ******
      ****** ****** ****** ****** ****** ****** ****** ****** ****** ******
      ****** ****** ****** ****** ****** ****** ****** ****** ****** ******
  17  ****** ****** ****** ****** ****** ****** ****** ****** ****** ******
      ****** ****** ****** ****** ****** ****** ****** ****** ****** ******
      ****** ****** ****** ****** ****** ****** ****** ****** ****** ******
  18  ****** ****** ****** ****** ****** ****** ****** ****** ****** ******
      ****** ****** ****** ****** ****** ****** ****** ****** ****** ******
      ****** ****** ****** ****** ****** ****** ****** ****** ****** ******
  19  ****** ****** ****** ****** ****** ****** ****** ****** ****** ******
      ****** ****** ****** ****** ****** ****** ****** ****** ****** ******
      ****** ****** ****** ****** ****** ****** ****** ****** ****** ******
  20  ****** ****** ****** ****** ****** ****** ****** ****** ****** ******
      ****** ****** ****** ****** ****** ****** ****** ****** ****** ******
      ****** ****** ****** ****** ****** ****** ****** ****** ****** ******
  21  ****** ****** ****** ****** ****** ****** ****** ****** ****** ******
      ****** ****** ****** ****** ****** ****** ****** ****** ****** ******
      ****** ****** ****** ****** ****** ****** ****** ****** ****** ******
  22  ****** ****** ****** ****** ****** ****** ****** ****** ****** ******
      ****** ****** ****** ****** ****** ****** ****** ****** ****** ******
      ****** ****** ****** ****** ****** ****** ****** ****** ****** ******
  23  ****** ****** ****** ****** ****** ****** ****** ****** ****** ******
      ****** ****** ****** ****** ****** ****** ****** ****** ****** ******
      ****** ****** ****** ****** ****** ****** ****** ****** ****** ******
  24  ****** ****** ****** ****** ****** ****** ****** ****** ****** ******
      ****** ****** ****** ****** ****** ****** ****** ****** ****** ******
      ****** ****** ****** ****** ****** ****** ****** ****** ****** ******
  25  ****** ****** ****** ****** ****** ****** ****** ****** ****** ******
      ****** ****** ****** ****** ****** ****** ****** ****** ****** ******
      ****** ****** ****** ****** ****** ****** ****** ****** ****** ******

 HEAD WILL BE SAVED ON UNIT   51 AT END OF TIME STEP    1, STRESS PERIOD   11
1
  VOLUMETRIC BUDGET FOR ENTIRE MODEL AT END OF TIME STEP    1, STRESS PERIOD  11
  ------------------------------------------------------------------------------

     CUMULATIVE VOLUMES      L**3       RATES FOR THIS TIME STEP      L**3/T
     ------------------                 ------------------------

           IN:                                      IN:
           ---                                      ---
             STORAGE =    20863402.6276               STORAGE =        2515.4432
       CONSTANT HEAD =  1210537825.9645         CONSTANT HEAD =     1220452.1453
               WELLS =           0.0000                 WELLS =           0.0000
            RECHARGE =    23901600.0000              RECHARGE =           0.0000
      STREAM LEAKAGE =           0.0000        STREAM LEAKAGE =           0.0000

            TOTAL IN =  1255302828.5921              TOTAL IN =     1222967.5885

          OUT:                                     OUT:
          ----                                     ----
             STORAGE =      539577.8014               STORAGE =           0.0000
       CONSTANT HEAD =           0.0000         CONSTANT HEAD =           0.0000
               WELLS =    81230091.0000                 WELLS =       80000.0000
            RECHARGE =           0.0000              RECHARGE =           0.0000
      STREAM LEAKAGE =  1173533174.2479        STREAM LEAKAGE =     1142967.6335

           TOTAL OUT =  1255302843.0493             TOTAL OUT =     1222967.6335

            IN - OUT =         -14.4572              IN - OUT =      -4.5022E-02

 PERCENT DISCREPANCY =          -0.00     PERCENT DISCREPANCY =          -0.00






         TIME SUMMARY AT END OF TIME STEP    1 IN STRESS PERIOD   11
                    SECONDS     MINUTES      HOURS       DAYS        YEARS
                    -----------------------------------------------------------
   TIME STEP LENGTH 7.86240E+06 1.31040E+05  2184.0      91.000     0.24914    
 STRESS PERIOD TIME 7.86240E+06 1.31040E+05  2184.0      91.000     0.24914    
         TOTAL TIME 8.67456E+07 1.44576E+06  24096.      1004.0      2.7488    
1
1
                            STRESS PERIOD NO.   12, LENGTH =   91.00000    
                            -----------------------------------------------

                              NUMBER OF TIME STEPS =     1

                               MULTIPLIER FOR DELT =     1.500

                            INITIAL TIME STEP SIZE =   91.00000    

 WELL NO.  LAYER   ROW   COL   STRESS RATE         
 --------------------------------------------------
      1      1      5      8     -0.5000E+05
      2      1      3      6     -0.3000E+05
      3      1      3      9      -5001.    

      3 WELLS

                 RECHARGE =  1.000000E-03

 REUSING STREAM SEGMENT DATA FROM LAST STRESS PERIOD
 
 SOLVING FOR HEAD 


     6 CALLS TO PCG ROUTINE FOR TIME STEP   1 IN STRESS PERIOD   12
    22 TOTAL ITERATIONS

 OUTPUT CONTROL FOR STRESS PERIOD   12   TIME STEP    1
    SAVE BUDGET
    SAVE HEAD FOR ALL LAYERS
    PRINT HEAD FOR ALL LAYERS
 UBDSV2 SAVING "STREAMFLOW OUT  " ON UNIT  50 AT TIME STEP  1, STRESS PERIOD  12



 STREAM LISTING     PERIOD     12   STEP        1

 LAYER ROW COL. STREAM  RCH.  FLOW INTO     FLOW TO   FLOW OUT OF   OVRLND.     DIRECT     STREAM       STREAM     STREAM     STREAM   STREAMBED  STREAMBED
                SEG.NO.  NO.  STRM. RCH.    AQUIFER    STRM. RCH.    RUNOFF     PRECIP       ET          HEAD       DEPTH      WIDTH   CONDCTNC.   GRADIENT

   1   13    1     1     1    1.0000E+05 -2.6126E+04   1.2613E+05  0.000E+00  0.000E+00  0.000E+00  4.84171E+01  1.557E-01  2.000E+01  2.000E+04 -1.306E+00
   1   13    2     1     2    1.2613E+05 -3.5328E+04   1.6145E+05  0.000E+00  0.000E+00  0.000E+00  4.79640E+01  1.799E-01  2.000E+01  2.000E+04 -1.766E+00
   1   14    3     1     3    1.6145E+05 -3.1463E+04   1.9292E+05  0.000E+00  0.000E+00  0.000E+00  4.75107E+01  2.039E-01  2.000E+01  2.000E+04 -1.573E+00
   1   15    4     1     4    1.9292E+05 -3.1169E+04   2.2409E+05  0.000E+00  0.000E+00  0.000E+00  4.70543E+01  2.248E-01  2.000E+01  2.000E+04 -1.558E+00
   1   16    5     1     5    2.2409E+05 -3.3221E+04   2.5731E+05  0.000E+00  0.000E+00  0.000E+00  4.65973E+01  2.450E-01  2.000E+01  2.000E+04 -1.661E+00
   1   16    6     1     6    2.5731E+05 -2.8874E+04   2.8618E+05  0.000E+00  0.000E+00  0.000E+00  4.61385E+01  2.635E-01  2.000E+01  2.000E+04 -1.444E+00
   1   16    7     1     7    2.8618E+05 -2.8646E+04   3.1483E+05  0.000E+00  0.000E+00  0.000E+00  4.56776E+01  2.799E-01  2.000E+01  2.000E+04 -1.432E+00
   1   16    8     1     8    3.1483E+05 -2.8829E+04   3.4365E+05  0.000E+00  0.000E+00  0.000E+00  4.52161E+01  2.957E-01  2.000E+01  2.000E+04 -1.441E+00
   1   16    9     1     9    3.4365E+05 -2.8954E+04   3.7261E+05  0.000E+00  0.000E+00  0.000E+00  4.47542E+01  3.110E-01  2.000E+01  2.000E+04 -1.448E+00
   1   16   10     1    10    3.7261E+05 -2.9069E+04   4.0168E+05  0.000E+00  0.000E+00  0.000E+00  4.42918E+01  3.259E-01  2.000E+01  2.000E+04 -1.453E+00
   1   16   11     1    11    4.0168E+05 -2.9804E+04   4.3148E+05  0.000E+00  0.000E+00  0.000E+00  4.38292E+01  3.405E-01  2.000E+01  2.000E+04 -1.490E+00
   1   16   12     1    12    4.3148E+05 -3.5497E+04   4.6698E+05  0.000E+00  0.000E+00  0.000E+00  4.33677E+01  3.563E-01  2.000E+01  2.000E+04 -1.775E+00
   1   15   13     1    13    4.6698E+05 -3.3901E+04   5.0088E+05  0.000E+00  0.000E+00  0.000E+00  4.29066E+01  3.726E-01  2.000E+01  2.000E+04 -1.695E+00
   1   14   14     1    14    5.0088E+05 -3.4311E+04   5.3519E+05  0.000E+00  0.000E+00  0.000E+00  4.24449E+01  3.881E-01  2.000E+01  2.000E+04 -1.716E+00
   1   13   15     1    15    5.3519E+05 -3.6435E+04   5.7163E+05  0.000E+00  0.000E+00  0.000E+00  4.19833E+01  4.038E-01  2.000E+01  2.000E+04 -1.822E+00
   1   12   16     1    16    5.7163E+05 -4.2402E+04   6.1403E+05  0.000E+00  0.000E+00  0.000E+00  4.15231E+01  4.208E-01  2.000E+01  2.000E+04 -2.120E+00
   1   12   17     1    17    6.1403E+05 -3.3469E+04   6.4750E+05  0.000E+00  0.000E+00  0.000E+00  4.10618E+01  4.368E-01  2.000E+01  2.000E+04 -1.673E+00
   1   12   18     1    18    6.4750E+05 -3.2055E+04   6.7955E+05  0.000E+00  0.000E+00  0.000E+00  4.05980E+01  4.502E-01  2.000E+01  2.000E+04 -1.603E+00
   1   12   19     1    19    6.7955E+05 -3.6223E+04   7.1577E+05  0.000E+00  0.000E+00  0.000E+00  4.01344E+01  4.640E-01  2.000E+01  2.000E+04 -1.811E+00
   1   13   20     1    20    7.1577E+05 -2.6752E+04   7.4253E+05  0.000E+00  0.000E+00  0.000E+00  3.96696E+01  4.764E-01  2.000E+01  2.000E+04 -1.338E+00
   1   14   21     1    21    7.4253E+05 -1.9781E+04   7.6231E+05  0.000E+00  0.000E+00  0.000E+00  3.92014E+01  4.855E-01  2.000E+01  2.000E+04 -9.890E-01
   1   14   22     1    22    7.6231E+05 -1.8137E+03   7.6412E+05  0.000E+00  0.000E+00  0.000E+00  3.87283E+01  4.897E-01  2.000E+01  2.000E+04 -9.069E-02
   1    9   30     2     1    5.0000E+04 -2.6609E+04   7.6609E+04  0.000E+00  0.000E+00  0.000E+00  4.02585E+01  1.335E-01  2.000E+01  2.000E+04 -1.330E+00
   1    9   29     2     2    7.6609E+04 -2.9072E+04   1.0568E+05  0.000E+00  0.000E+00  0.000E+00  4.00411E+01  1.661E-01  2.000E+01  2.000E+04 -1.454E+00
   1    9   28     2     3    1.0568E+05 -3.3352E+04   1.3903E+05  0.000E+00  0.000E+00  0.000E+00  3.98232E+01  1.982E-01  2.000E+01  2.000E+04 -1.668E+00
   1    9   27     2     4    1.3903E+05 -4.7459E+04   1.8649E+05  0.000E+00  0.000E+00  0.000E+00  3.96102E+01  2.352E-01  2.000E+01  2.000E+04 -2.373E+00
   1   10   26     2     5    1.8649E+05 -3.3428E+04   2.1992E+05  0.000E+00  0.000E+00  0.000E+00  3.93937E+01  2.687E-01  2.000E+01  2.000E+04 -1.671E+00
   1   11   25     2     6    2.1992E+05 -2.5073E+04   2.4499E+05  0.000E+00  0.000E+00  0.000E+00  3.91663E+01  2.913E-01  2.000E+01  2.000E+04 -1.254E+00
   1   12   24     2     7    2.4499E+05 -1.8502E+04   2.6350E+05  0.000E+00  0.000E+00  0.000E+00  3.89324E+01  3.074E-01  2.000E+01  2.000E+04 -9.251E-01
   1   13   23     2     8    2.6350E+05 -1.3159E+04   2.7665E+05  0.000E+00  0.000E+00  0.000E+00  3.86938E+01  3.188E-01  2.000E+01  2.000E+04 -6.579E-01
   1   14   22     2     9    2.7665E+05 -7.3606E+03   2.8402E+05  0.000E+00  0.000E+00  0.000E+00  3.84510E+01  3.260E-01  2.000E+01  2.000E+04 -3.680E-01
   1   14   22     3     1    1.0481E+06 -1.5395E+04   1.0635E+06  0.000E+00  0.000E+00  0.000E+00  3.80492E+01  4.937E-01  2.000E+01  2.000E+04 -7.698E-01
   1   15   23     3     2    1.0635E+06 -2.3799E+04   1.0873E+06  0.000E+00  0.000E+00  0.000E+00  3.71658E+01  4.992E-01  2.000E+01  2.000E+04 -1.190E+00
   1   15   24     3     3    1.0873E+06 -1.9813E+04   1.1071E+06  0.000E+00  0.000E+00  0.000E+00  3.62830E+01  5.052E-01  2.000E+01  2.000E+04 -9.906E-01
   1   15   25     3     4    1.1071E+06 -1.9406E+04   1.1265E+06  0.000E+00  0.000E+00  0.000E+00  3.53995E+01  5.106E-01  2.000E+01  2.000E+04 -9.703E-01
   1   15   26     3     5    1.1265E+06 -2.2170E+04   1.1487E+06  0.000E+00  0.000E+00  0.000E+00  3.45163E+01  5.163E-01  2.000E+01  2.000E+04 -1.109E+00
   1   16   27     3     6    1.1487E+06 -2.9365E+04   1.1781E+06  0.000E+00  0.000E+00  0.000E+00  3.36344E+01  5.233E-01  2.000E+01  2.000E+04 -1.468E+00
   1   17   28     3     7    1.1781E+06 -3.6430E+04   1.2145E+06  0.000E+00  0.000E+00  0.000E+00  3.27543E+01  5.321E-01  2.000E+01  2.000E+04 -1.821E+00
   1   18   29     3     8    1.2145E+06 -4.7418E+04   1.2619E+06  0.000E+00  0.000E+00  0.000E+00  3.18766E+01  5.432E-01  2.000E+01  2.000E+04 -2.371E+00
   1   18   30     3     9    1.2619E+06 -4.3822E+04   1.3058E+06  0.000E+00  0.000E+00  0.000E+00  3.09996E+01  5.551E-01  2.000E+01  2.000E+04 -2.191E+00



1
              HEAD IN LAYER   1 AT END OF TIME STEP   1 IN STRESS PERIOD   12
  ---------------------------------------------------------------------------

          1      2      3      4      5      6      7      8      9     10
         11     12     13     14     15     16     17     18     19     20
         21     22     23     24     25     26     27     28     29     30
 .........................................................................
   1  ****** ****** ****** ****** ****** ****** ****** ****** ****** ******
      ****** ****** ****** ****** ****** ****** ****** ****** ****** ******
      ****** ****** ****** ****** ****** ****** ****** ****** ****** ******
   2  ****** ****** ****** ****** ****** ****** ****** ****** ****** ******
      ****** ****** ****** ****** ****** ****** ****** ****** ****** ******
      ****** ****** ****** ****** ****** ****** ****** ****** ****** ******
   3  ****** ****** ****** ****** ****** ****** ****** ****** ****** ******
      ****** ****** ****** ****** ****** ****** ****** ****** ****** ******
      ****** ****** ****** ****** ****** ****** ****** ****** ****** ******
   4  ****** ****** ****** ****** ****** ****** ****** ****** ****** ******
      ****** ****** ****** ****** ****** ****** ****** ****** ****** ******
      ****** ****** ****** ****** ****** ****** ****** ****** ****** ******
   5  ****** ****** ****** ****** ****** ****** ****** ****** ****** ******
      ****** ****** ****** ****** ****** ****** ****** ****** ****** ******
      ****** ****** ****** ****** ****** ****** ****** ****** ****** ******
   6  ****** ****** ****** ****** ****** ****** ****** ****** ****** ******
      ****** ****** ****** ****** ****** ****** ****** ****** ****** ******
      ****** ****** ****** ****** ****** ****** ****** ****** ****** ******
   7  ****** ****** ****** ****** ****** ****** ****** ****** ****** ******
      ****** ****** ****** ****** ****** ****** ****** ****** ****** ******
      ****** ****** ****** ****** ****** ****** ****** ****** ****** ******
   8  ****** ****** ****** ****** ****** ****** ****** ****** ****** ******
      ****** ****** ****** ****** ****** ****** ****** ****** ****** ******
      ****** ****** ****** ****** ****** ****** ****** ****** ****** ******
   9  ****** ****** ****** ****** ****** ****** ****** ****** ****** ******
      ****** ****** ****** ****** ****** ****** ****** ****** ****** ******
      ****** ****** ****** ****** ****** ****** ****** ****** ****** ******
  10  ****** ****** ****** ****** ****** ****** ****** ****** ****** ******
      ****** ****** ****** ****** ****** ****** ****** ****** ****** ******
      ****** ****** ****** ****** ****** ****** ****** ****** ****** ******
  11  ****** ****** ****** ****** ****** ****** ****** ****** ****** ******
      ****** ****** ****** ****** ****** ****** ****** ****** ****** ******
      ****** ****** ****** ****** ****** ****** ****** ****** ****** ******
  12  ****** ****** ****** ****** ****** ****** ****** ****** ****** ******
      ****** ****** ****** ****** ****** ****** ****** ****** ****** ******
      ****** ****** ****** ****** ****** ****** ****** ****** ****** ******
  13  ****** ****** ****** ****** ****** ****** ****** ****** ****** ******
      ****** ****** ****** ****** ****** ****** ****** ****** ****** ******
      ****** ****** ****** ****** ****** ****** ****** ****** ****** ******
  14  ****** ****** ****** ****** ****** ****** ****** ****** ****** ******
      ****** ****** ****** ****** ****** ****** ****** ****** ****** ******
      ****** ****** ****** ****** ****** ****** ****** ****** ****** ******
  15  ****** ****** ****** ****** ****** ****** ****** ****** ****** ******
      ****** ****** ****** ****** ****** ****** ****** ****** ****** ******
      ****** ****** ****** ****** ****** ****** ****** ****** ****** ******
  16  ****** ****** ****** ****** ****** ****** ****** ****** ****** ******
      ****** ****** ****** ****** ****** ****** ****** ****** ****** ******
      ****** ****** ****** ****** ****** ****** ****** ****** ****** ******
  17  ****** ****** ****** ****** ****** ****** ****** ****** ****** ******
      ****** ****** ****** ****** ****** ****** ****** ****** ****** ******
      ****** ****** ****** ****** ****** ****** ****** ****** ****** ******
  18  ****** ****** ****** ****** ****** ****** ****** ****** ****** ******
      ****** ****** ****** ****** ****** ****** ****** ****** ****** ******
      ****** ****** ****** ****** ****** ****** ****** ****** ****** ******
  19  ****** ****** ****** ****** ****** ****** ****** ****** ****** ******
      ****** ****** ****** ****** ****** ****** ****** ****** ****** ******
      ****** ****** ****** ****** ****** ****** ****** ****** ****** ******
  20  ****** ****** ****** ****** ****** ****** ****** ****** ****** ******
      ****** ****** ****** ****** ****** ****** ****** ****** ****** ******
      ****** ****** ****** ****** ****** ****** ****** ****** ****** ******
  21  ****** ****** ****** ****** ****** ****** ****** ****** ****** ******
      ****** ****** ****** ****** ****** ****** ****** ****** ****** ******
      ****** ****** ****** ****** ****** ****** ****** ****** ****** ******
  22  ****** ****** ****** ****** ****** ****** ****** ****** ****** ******
      ****** ****** ****** ****** ****** ****** ****** ****** ****** ******
      ****** ****** ****** ****** ****** ****** ****** ****** ****** ******
  23  ****** ****** ****** ****** ****** ****** ****** ****** ****** ******
      ****** ****** ****** ****** ****** ****** ****** ****** ****** ******
      ****** ****** ****** ****** ****** ****** ****** ****** ****** ******
  24  ****** ****** ****** ****** ****** ****** ****** ****** ****** ******
      ****** ****** ****** ****** ****** ****** ****** ****** ****** ******
      ****** ****** ****** ****** ****** ****** ****** ****** ****** ******
  25  ****** ****** ****** ****** ****** ****** ****** ****** ****** ******
      ****** ****** ****** ****** ****** ****** ****** ****** ****** ******
      ****** ****** ****** ****** ****** ****** ****** ****** ****** ******

 HEAD WILL BE SAVED ON UNIT   51 AT END OF TIME STEP    1, STRESS PERIOD   12
1
  VOLUMETRIC BUDGET FOR ENTIRE MODEL AT END OF TIME STEP    1, STRESS PERIOD  12
  ------------------------------------------------------------------------------

     CUMULATIVE VOLUMES      L**3       RATES FOR THIS TIME STEP      L**3/T
     ------------------                 ------------------------

           IN:                                      IN:
           ---                                      ---
             STORAGE =    20866611.1785               STORAGE =          35.2588
       CONSTANT HEAD =  1321019751.6063         CONSTANT HEAD =     1214087.0950
               WELLS =           0.0000                 WELLS =           0.0000
            RECHARGE =    26413200.0000              RECHARGE =       27600.0000
      STREAM LEAKAGE =           0.0000        STREAM LEAKAGE =           0.0000

            TOTAL IN =  1368299562.7848              TOTAL IN =     1241722.3538

          OUT:                                     OUT:
          ----                                     ----
             STORAGE =      627605.5806               STORAGE =         967.3382
       CONSTANT HEAD =           0.0000         CONSTANT HEAD =           0.0000
               WELLS =    88965136.5000                 WELLS =       85000.5000
            RECHARGE =           0.0000              RECHARGE =           0.0000
      STREAM LEAKAGE =  1278706833.5164        STREAM LEAKAGE =     1155754.4975

           TOTAL OUT =  1368299575.5970             TOTAL OUT =     1241722.3357

            IN - OUT =         -12.8122              IN - OUT =       1.8077E-02

 PERCENT DISCREPANCY =          -0.00     PERCENT DISCREPANCY =           0.00






         TIME SUMMARY AT END OF TIME STEP    1 IN STRESS PERIOD   12
                    SECONDS     MINUTES      HOURS       DAYS        YEARS
                    -----------------------------------------------------------
   TIME STEP LENGTH 7.86240E+06 1.31040E+05  2184.0      91.000     0.24914    
 STRESS PERIOD TIME 7.86240E+06 1.31040E+05  2184.0      91.000     0.24914    
         TOTAL TIME 9.46080E+07 1.57680E+06  26280.      1095.0      2.9979    
1

 Run end date and time (yyyy/mm/dd hh:mm:ss): 2018/09/30 20:52:11
 Elapsed run time:  0.066 Seconds

