                                  MODFLOW-2005     
      U.S. GEOLOGICAL SURVEY MODULAR FINITE-DIFFERENCE GROUND-WATER FLOW MODEL
                            VERSION 1.11.00 8/8/2013

 LIST FILE: supply2.lst
                         UNIT   10

 OPENING ..\data\supply.dis
 FILE TYPE:DIS   UNIT   11   STATUS:OLD    
 FORMAT:FORMATTED              ACCESS:SEQUENTIAL          

 OPENING ..\data\supply.ba6
 FILE TYPE:BAS6   UNIT   12   STATUS:OLD    
 FORMAT:FORMATTED              ACCESS:SEQUENTIAL          

 OPENING ..\data\supply_het.bc6
 FILE TYPE:BCF6   UNIT   13   STATUS:OLD    
 FORMAT:FORMATTED              ACCESS:SEQUENTIAL          

 OPENING ..\data\supply.rch
 FILE TYPE:RCH   UNIT   15   STATUS:OLD    
 FORMAT:FORMATTED              ACCESS:SEQUENTIAL          

 OPENING ..\data\supply2.sfr
 FILE TYPE:SFR   UNIT   16   STATUS:OLD    
 FORMAT:FORMATTED              ACCESS:SEQUENTIAL          

 OPENING ..\data\supply.oc
 FILE TYPE:OC   UNIT   17   STATUS:OLD    
 FORMAT:FORMATTED              ACCESS:SEQUENTIAL          

 OPENING ..\data\supply.pcg
 FILE TYPE:PCG   UNIT   18   STATUS:OLD    
 FORMAT:FORMATTED              ACCESS:SEQUENTIAL          

 OPENING supply2.wel
 FILE TYPE:WEL   UNIT   19   STATUS:OLD    
 FORMAT:FORMATTED              ACCESS:SEQUENTIAL          

 OPENING supply2sf.cbc
 FILE TYPE:DATA(BINARY)   UNIT   50   STATUS:UNKNOWN
 FORMAT:BINARY                 ACCESS:SEQUENTIAL          

 OPENING supply2hd.bhd
 FILE TYPE:DATA(BINARY)   UNIT   51   STATUS:UNKNOWN
 FORMAT:BINARY                 ACCESS:SEQUENTIAL          

 BAS -- BASIC PACKAGE, VERSION 7, 5/2/2005 INPUT READ FROM UNIT   12
 
 MODFLOW was compiled using uniform precision
 Precision of REAL and DOUBLE PRECISION variables:          15

 DISCRETIZATION INPUT DATA READ FROM UNIT   11
    1 LAYERS        25 ROWS        30 COLUMNS
   12 STRESS PERIOD(S) IN SIMULATION
 MODEL TIME UNIT IS DAYS
 MODEL LENGTH UNIT IS UNDEFINED
  Confining bed flag for each layer:
   0

                     DELR =   200.000    

                     DELC =   200.000    

 TOP ELEVATION OF LAYER 1 =  100.0000    

   MODEL LAYER BOTTOM EL. =   0.00000     FOR LAYER   1


 STRESS PERIOD     LENGTH       TIME STEPS     MULTIPLIER FOR DELT    SS FLAG
 ----------------------------------------------------------------------------
        1         92.00000          1                    1.500         TR
        2         91.00000          1                    1.500         TR
        3         91.00000          1                    1.500         TR
        4         91.00000          1                    1.500         TR
        5         92.00000          1                    1.500         TR
        6         91.00000          1                    1.500         TR
        7         91.00000          1                    1.500         TR
        8         91.00000          1                    1.500         TR
        9         92.00000          1                    1.500         TR
       10         91.00000          1                    1.500         TR
       11         91.00000          1                    1.500         TR
       12         91.00000          1                    1.500         TR

 TRANSIENT SIMULATION



 
 #MODOFC transient water supply sample problem                                   
 #                                                                               
 THE FREE FORMAT OPTION HAS BEEN SELECTED



                     BOUNDARY ARRAY FOR LAYER   1
 READING ON UNIT   12 WITH FORMAT: (20I4)              

 AQUIFER HEAD WILL BE SET TO   0.0000     AT ALL NO-FLOW NODES (IBOUND=0).



                       INITIAL HEAD FOR LAYER   1
 READING ON UNIT   12 WITH FORMAT: (10F13.0)           

 OUTPUT CONTROL IS SPECIFIED ONLY AT TIME STEPS FOR WHICH OUTPUT IS DESIRED
 COMPACT CELL-BY-CELL BUDGET FILES WILL BE WRITTEN
 HEAD PRINT FORMAT CODE IS  18    DRAWDOWN PRINT FORMAT CODE IS   0
 HEADS WILL BE SAVED ON UNIT   51    DRAWDOWNS WILL BE SAVED ON UNIT    0

 BCF -- BLOCK-CENTERED FLOW PACKAGE, VERSION 7, 5/2/2005
         INPUT READ FROM UNIT 13
 TRANSIENT SIMULATION
 HEAD AT CELLS THAT CONVERT TO DRY=   0.0000    
 WETTING CAPABILITY IS NOT ACTIVE
      LAYER  LAYER-TYPE CODE     INTERBLOCK T
      --------------------------------------------
         1            0          0 -- HARMONIC    

 COLUMN TO ROW ANISOTROPY =  1.000000    

     PRIMARY STORAGE COEF =  5.000000E-02 FOR LAYER   1



               TRANSMIS. ALONG ROWS FOR LAYER   1
 READING ON UNIT   13 WITH FORMAT: (FREE)              

 WEL -- WELL PACKAGE, VERSION 7, 5/2/2005 INPUT READ FROM UNIT   19
 # Well package input file written by MMProc
 No named parameters
 MAXIMUM OF      4 ACTIVE WELLS AT ONE TIME


     0 Well parameters

 RCH -- RECHARGE PACKAGE, VERSION 7, 5/2/2005 INPUT READ FROM UNIT   15
 No named parameters
 OPTION 1 -- RECHARGE TO TOP LAYER


     0 Recharge parameters

 SFR7 -- STREAMFLOW ROUTING PACKAGE, VERSION 1.0.7, 2013-01-15
         INPUT READ FROM UNIT  16
 #  Supply2 test problem for GWM-VI
 #  The eighth entry in the first data line is ISTCB2 -
 #    Setting this to a negative number indicates that
 #    streamflows out of the reach will be saved to a
 #    binary file.  The absolute value of ISTCB2 is the
 #    unit to which unformatted flows will be written.
 #
 No named parameters
 Segment information will not be 
 read by reach
 No named parameters
 No specifed inflow files


 NUMBER OF STREAM REACHES IS   40

 NUMBER OF STREAM SEGMENTS IS    3

 NUMBER OF STREAM PARAMETERS IS    0

 NUMBER OF STREAM SEGMENTS DEFINED USING PARAMETERS IS              0

 MAXIMUM ERROR FOR STREAM LEAKAGE RATES IS  1.00E-04

 CONSTANT FOR MANNINGS EQUATION IS  1.2839E+05





   STREAM NETWORK DESCRIPTION: 

   LAYER    ROW    COL   SEGMENT   REACH     LENGTH
                          NUMBER   NUMBER    IN CELL        
   --------------------------------------------------
      1     13      1       1        1    2.0000E+02
      1     13      2       1        2    2.0000E+02
      1     14      3       1        3    2.0000E+02
      1     15      4       1        4    2.0000E+02
      1     16      5       1        5    2.0000E+02
      1     16      6       1        6    2.0000E+02
      1     16      7       1        7    2.0000E+02
      1     16      8       1        8    2.0000E+02
      1     16      9       1        9    2.0000E+02
      1     16     10       1       10    2.0000E+02
      1     16     11       1       11    2.0000E+02
      1     16     12       1       12    2.0000E+02
      1     15     13       1       13    2.0000E+02
      1     14     14       1       14    2.0000E+02
      1     13     15       1       15    2.0000E+02
      1     12     16       1       16    2.0000E+02
      1     12     17       1       17    2.0000E+02
      1     12     18       1       18    2.0000E+02
      1     12     19       1       19    2.0000E+02
      1     13     20       1       20    2.0000E+02
      1     14     21       1       21    2.0000E+02
      1     14     22       1       22    2.0000E+02
      1      9     30       2        1    2.0000E+02
      1      9     29       2        2    2.0000E+02
      1      9     28       2        3    2.0000E+02
      1      9     27       2        4    2.0000E+02
      1     10     26       2        5    2.0000E+02
      1     11     25       2        6    2.0000E+02
      1     12     24       2        7    2.0000E+02
      1     13     23       2        8    2.0000E+02
      1     14     22       2        9    2.0000E+02
      1     14     22       3        1    2.0000E+02
      1     15     23       3        2    2.0000E+02
      1     15     24       3        3    2.0000E+02
      1     15     25       3        4    2.0000E+02
      1     15     26       3        5    2.0000E+02
      1     16     27       3        6    2.0000E+02
      1     17     28       3        7    2.0000E+02
      1     18     29       3        8    2.0000E+02
      1     18     30       3        9    2.0000E+02




 PCG -- CONJUGATE-GRADIENT SOLUTION PACKAGE, VERSION 7, 5/2/2005
 MAXIMUM OF    500 CALLS OF SOLUTION ROUTINE
 MAXIMUM OF      5 INTERNAL ITERATIONS PER CALL TO SOLUTION ROUTINE
 MATRIX PRECONDITIONING TYPE :    1



                                    SOLUTION BY THE CONJUGATE-GRADIENT METHOD
                                   -------------------------------------------
                    MAXIMUM NUMBER OF CALLS TO PCG ROUTINE =      500
                        MAXIMUM ITERATIONS PER CALL TO PCG =        5
                               MATRIX PRECONDITIONING TYPE =        1
        RELAXATION FACTOR (ONLY USED WITH PRECOND. TYPE 1) =    0.10000E+01
 PARAMETER OF POLYNOMIAL PRECOND. = 2 (2) OR IS CALCULATED :        0
                         HEAD CHANGE CRITERION FOR CLOSURE =    0.10000E-05
                     RESIDUAL CHANGE CRITERION FOR CLOSURE =    0.10000E+01
            PCG HEAD AND RESIDUAL CHANGE PRINTOUT INTERVAL =        1
     PRINTING FROM SOLVER IS LIMITED(1) OR SUPPRESSED (>1) =        1
                            STEADY-STATE DAMPING PARAMETER =    0.10000E+01
                               TRANSIENT DAMPING PARAMETER =    0.10000E+01
1
                            STRESS PERIOD NO.    1, LENGTH =   92.00000    
                            -----------------------------------------------

                              NUMBER OF TIME STEPS =     1

                               MULTIPLIER FOR DELT =     1.500

                            INITIAL TIME STEP SIZE =   92.00000    

 WELL NO.  LAYER   ROW   COL   STRESS RATE         
 --------------------------------------------------
      1      1     17     29     -0.1404E+05
      2      1     18     28     -0.1091E+05
      3      1     12     29     -0.1310E+05
      4      1     19     29      -9959.    

      4 WELLS

                 RECHARGE =  5.000000E-04



 CLASSIFICATION & COUNT OF STREAM SEGMENTS BASED ON SOURCE OF INFLOW:

                HEADWATER     DIVERSION     RECEIVES TRIBUTARY FLOW
                ---------     ---------     -----------------------
                     2              0               1



                    INPUT DATA FOR EACH STREAM SEGMENT
 ---------------------------------------------------------------------------------------------

 SEGMENT    SEG.     INFLOW   OVERLAND   STREAM    STREAM   ICALC  OUTFLOW  DIVERSION PRIORITY
    NO.    LENGTH     RATE     RUNOFF      ET       PPT.    METH.  TO SEG.  FROM SEG.    NO.

      1  4.400E+03 1.000E+05 0.000E+00 0.000E+00 0.000E+00    1        3        0        0
      2  1.800E+03 5.000E+04 0.000E+00 0.000E+00 0.000E+00    1        3        0        0
      3  1.800E+03 0.000E+00 0.000E+00 0.000E+00 0.000E+00    1        0        0        0


         STREAMBED PROPERTIES AND STREAM DIMENSIONS

 SEGMENT     BED HYD. COND.      BED THICKNESS     ELEV.-TOP OF BED     WIDTH OF STREAM     DEPTH OF STREAM    STREAM ROUGHNESS
    No.     UPPER     LOWER     UPPER     LOWER     UPPER     LOWER     UPPER     LOWER     UPPER     LOWER   CHANNEL      BANK

     1  5.000E+00 5.000E+00 1.000E+00 1.000E+00 4.850E+01 3.800E+01 2.000E+01 2.000E+01                     5.000E-02
     2  5.000E+00 5.000E+00 1.000E+00 1.000E+00 4.025E+01 3.800E+01 2.000E+01 2.000E+01                     5.000E-02
     3  5.000E+00 5.000E+00 1.000E+00 1.000E+00 3.800E+01 3.000E+01 2.000E+01 2.000E+01                     5.000E-02



 
 SOLVING FOR HEAD 


     9 CALLS TO PCG ROUTINE FOR TIME STEP   1 IN STRESS PERIOD    1
    36 TOTAL ITERATIONS

 OUTPUT CONTROL FOR STRESS PERIOD    1   TIME STEP    1
    SAVE BUDGET
    SAVE HEAD FOR ALL LAYERS
    PRINT HEAD FOR ALL LAYERS
 UBDSV2 SAVING "STREAMFLOW OUT  " ON UNIT  50 AT TIME STEP  1, STRESS PERIOD   1



 STREAM LISTING     PERIOD      1   STEP        1

 LAYER ROW COL. STREAM  RCH.  FLOW INTO     FLOW TO   FLOW OUT OF   OVRLND.     DIRECT     STREAM       STREAM     STREAM     STREAM   STREAMBED  STREAMBED
                SEG.NO.  NO.  STRM. RCH.    AQUIFER    STRM. RCH.    RUNOFF     PRECIP       ET          HEAD       DEPTH      WIDTH   CONDCTNC.   GRADIENT

   1   13    1     1     1    1.0000E+05 -6.1249E+03   1.0612E+05  0.000E+00  0.000E+00  0.000E+00  4.84087E+01  1.473E-01  2.000E+01  2.000E+04 -3.062E-01
   1   13    2     1     2    1.0612E+05 -7.5946E+03   1.1372E+05  0.000E+00  0.000E+00  0.000E+00  4.79372E+01  1.531E-01  2.000E+01  2.000E+04 -3.797E-01
   1   14    3     1     3    1.1372E+05 -2.1992E+03   1.1592E+05  0.000E+00  0.000E+00  0.000E+00  4.74640E+01  1.572E-01  2.000E+01  2.000E+04 -1.100E-01
   1   15    4     1     4    1.1592E+05 -2.2706E+03   1.1819E+05  0.000E+00  0.000E+00  0.000E+00  4.69885E+01  1.590E-01  2.000E+01  2.000E+04 -1.135E-01
   1   16    5     1     5    1.1819E+05 -7.1866E+03   1.2538E+05  0.000E+00  0.000E+00  0.000E+00  4.65151E+01  1.628E-01  2.000E+01  2.000E+04 -3.593E-01
   1   16    6     1     6    1.2538E+05 -4.3049E+03   1.2968E+05  0.000E+00  0.000E+00  0.000E+00  4.60424E+01  1.674E-01  2.000E+01  2.000E+04 -2.152E-01
   1   16    7     1     7    1.2968E+05 -4.1401E+03   1.3382E+05  0.000E+00  0.000E+00  0.000E+00  4.55684E+01  1.707E-01  2.000E+01  2.000E+04 -2.070E-01
   1   16    8     1     8    1.3382E+05 -4.0998E+03   1.3792E+05  0.000E+00  0.000E+00  0.000E+00  4.50943E+01  1.739E-01  2.000E+01  2.000E+04 -2.050E-01
   1   16    9     1     9    1.3792E+05 -4.0899E+03   1.4201E+05  0.000E+00  0.000E+00  0.000E+00  4.46202E+01  1.770E-01  2.000E+01  2.000E+04 -2.045E-01
   1   16   10     1    10    1.4201E+05 -4.0883E+03   1.4610E+05  0.000E+00  0.000E+00  0.000E+00  4.41460E+01  1.801E-01  2.000E+01  2.000E+04 -2.044E-01
   1   16   11     1    11    1.4610E+05 -4.1255E+03   1.5022E+05  0.000E+00  0.000E+00  0.000E+00  4.36718E+01  1.831E-01  2.000E+01  2.000E+04 -2.063E-01
   1   16   12     1    12    1.5022E+05 -7.0171E+03   1.5724E+05  0.000E+00  0.000E+00  0.000E+00  4.31986E+01  1.872E-01  2.000E+01  2.000E+04 -3.509E-01
   1   15   13     1    13    1.5724E+05 -7.3460E+03   1.6459E+05  0.000E+00  0.000E+00  0.000E+00  4.27265E+01  1.924E-01  2.000E+01  2.000E+04 -3.673E-01
   1   14   14     1    14    1.6459E+05 -7.8546E+03   1.7244E+05  0.000E+00  0.000E+00  0.000E+00  4.22547E+01  1.978E-01  2.000E+01  2.000E+04 -3.927E-01
   1   13   15     1    15    1.7244E+05 -8.2138E+03   1.8066E+05  0.000E+00  0.000E+00  0.000E+00  4.17830E+01  2.034E-01  2.000E+01  2.000E+04 -4.107E-01
   1   12   16     1    16    1.8066E+05 -8.8968E+03   1.8955E+05  0.000E+00  0.000E+00  0.000E+00  4.13116E+01  2.093E-01  2.000E+01  2.000E+04 -4.448E-01
   1   12   17     1    17    1.8955E+05 -6.3311E+03   1.9588E+05  0.000E+00  0.000E+00  0.000E+00  4.08394E+01  2.144E-01  2.000E+01  2.000E+04 -3.166E-01
   1   12   18     1    18    1.9588E+05 -6.1772E+03   2.0206E+05  0.000E+00  0.000E+00  0.000E+00  4.03663E+01  2.186E-01  2.000E+01  2.000E+04 -3.089E-01
   1   12   19     1    19    2.0206E+05 -7.7789E+03   2.0984E+05  0.000E+00  0.000E+00  0.000E+00  3.98936E+01  2.231E-01  2.000E+01  2.000E+04 -3.889E-01
   1   13   20     1    20    2.0984E+05 -6.8666E+03   2.1671E+05  0.000E+00  0.000E+00  0.000E+00  3.94211E+01  2.279E-01  2.000E+01  2.000E+04 -3.433E-01
   1   14   21     1    21    2.1671E+05 -6.4178E+03   2.2312E+05  0.000E+00  0.000E+00  0.000E+00  3.89480E+01  2.321E-01  2.000E+01  2.000E+04 -3.209E-01
   1   14   22     1    22    2.2312E+05  3.7263E+03   2.1940E+05  0.000E+00  0.000E+00  0.000E+00  3.84716E+01  2.330E-01  2.000E+01  2.000E+04  1.863E-01
   1    9   30     2     1    5.0000E+04 -3.1437E+03   5.3144E+04  0.000E+00  0.000E+00  0.000E+00  4.02430E+01  1.180E-01  2.000E+01  2.000E+04 -1.572E-01
   1    9   29     2     2    5.3144E+04 -3.4862E+03   5.6630E+04  0.000E+00  0.000E+00  0.000E+00  3.99975E+01  1.225E-01  2.000E+01  2.000E+04 -1.743E-01
   1    9   28     2     3    5.6630E+04 -4.2027E+03   6.0833E+04  0.000E+00  0.000E+00  0.000E+00  3.97526E+01  1.276E-01  2.000E+01  2.000E+04 -2.101E-01
   1    9   27     2     4    6.0833E+04 -7.5968E+03   6.8429E+04  0.000E+00  0.000E+00  0.000E+00  3.95102E+01  1.352E-01  2.000E+01  2.000E+04 -3.798E-01
   1   10   26     2     5    6.8429E+04 -6.0568E+03   7.4486E+04  0.000E+00  0.000E+00  0.000E+00  3.92685E+01  1.435E-01  2.000E+01  2.000E+04 -3.028E-01
   1   11   25     2     6    7.4486E+04 -5.8405E+03   8.0327E+04  0.000E+00  0.000E+00  0.000E+00  3.90256E+01  1.506E-01  2.000E+01  2.000E+04 -2.920E-01
   1   12   24     2     7    8.0327E+04 -5.9544E+03   8.6281E+04  0.000E+00  0.000E+00  0.000E+00  3.87824E+01  1.574E-01  2.000E+01  2.000E+04 -2.977E-01
   1   13   23     2     8    8.6281E+04 -1.6461E+03   8.7927E+04  0.000E+00  0.000E+00  0.000E+00  3.85367E+01  1.617E-01  2.000E+01  2.000E+04 -8.230E-02
   1   14   22     2     9    8.7927E+04  4.5475E+01   8.7882E+04  0.000E+00  0.000E+00  0.000E+00  3.82875E+01  1.625E-01  2.000E+01  2.000E+04  2.274E-03
   1   14   22     3     1    3.0728E+05 -9.8411E+03   3.1712E+05  0.000E+00  0.000E+00  0.000E+00  3.77932E+01  2.377E-01  2.000E+01  2.000E+04 -4.921E-01
   1   15   23     3     2    3.1712E+05 -1.9765E+03   3.1910E+05  0.000E+00  0.000E+00  0.000E+00  3.69070E+01  2.404E-01  2.000E+01  2.000E+04 -9.883E-02
   1   15   24     3     3    3.1910E+05 -1.5123E+03   3.2061E+05  0.000E+00  0.000E+00  0.000E+00  3.60189E+01  2.411E-01  2.000E+01  2.000E+04 -7.562E-02
   1   15   25     3     4    3.2061E+05 -1.5383E+03   3.2215E+05  0.000E+00  0.000E+00  0.000E+00  3.51307E+01  2.418E-01  2.000E+01  2.000E+04 -7.691E-02
   1   15   26     3     5    3.2215E+05 -1.6563E+03   3.2380E+05  0.000E+00  0.000E+00  0.000E+00  3.42426E+01  2.426E-01  2.000E+01  2.000E+04 -8.281E-02
   1   16   27     3     6    3.2380E+05 -1.5857E+03   3.2539E+05  0.000E+00  0.000E+00  0.000E+00  3.33544E+01  2.433E-01  2.000E+01  2.000E+04 -7.929E-02
   1   17   28     3     7    3.2539E+05  4.7925E+03   3.2060E+05  0.000E+00  0.000E+00  0.000E+00  3.24648E+01  2.426E-01  2.000E+01  2.000E+04  2.396E-01
   1   18   29     3     8    3.2060E+05  5.8844E+03   3.1471E+05  0.000E+00  0.000E+00  0.000E+00  3.15735E+01  2.401E-01  2.000E+01  2.000E+04  2.942E-01
   1   18   30     3     9    3.1471E+05 -1.8993E+03   3.1661E+05  0.000E+00  0.000E+00  0.000E+00  3.06837E+01  2.392E-01  2.000E+01  2.000E+04 -9.497E-02



1
              HEAD IN LAYER   1 AT END OF TIME STEP   1 IN STRESS PERIOD    1
  ---------------------------------------------------------------------------

          1      2      3      4      5      6      7      8      9     10
         11     12     13     14     15     16     17     18     19     20
         21     22     23     24     25     26     27     28     29     30
 .........................................................................
   1  ****** ****** ****** ****** ****** ****** ****** ****** ****** ******
      ****** ****** ****** ****** ****** ****** ****** ****** ****** ******
      ****** ****** ****** ****** ****** ****** ****** ****** ****** ******
   2  ****** ****** ****** ****** ****** ****** ****** ****** ****** ******
      ****** ****** ****** ****** ****** ****** ****** ****** ****** ******
      ****** ****** ****** ****** ****** ****** ****** ****** ****** ******
   3  ****** ****** ****** ****** ****** ****** ****** ****** ****** ******
      ****** ****** ****** ****** ****** ****** ****** ****** ****** ******
      ****** ****** ****** ****** ****** ****** ****** ****** ****** ******
   4  ****** ****** ****** ****** ****** ****** ****** ****** ****** ******
      ****** ****** ****** ****** ****** ****** ****** ****** ****** ******
      ****** ****** ****** ****** ****** ****** ****** ****** ****** ******
   5  ****** ****** ****** ****** ****** ****** ****** ****** ****** ******
      ****** ****** ****** ****** ****** ****** ****** ****** ****** ******
      ****** ****** ****** ****** ****** ****** ****** ****** ****** ******
   6  ****** ****** ****** ****** ****** ****** ****** ****** ****** ******
      ****** ****** ****** ****** ****** ****** ****** ****** ****** ******
      ****** ****** ****** ****** ****** ****** ****** ****** ****** ******
   7  ****** ****** ****** ****** ****** ****** ****** ****** ****** ******
      ****** ****** ****** ****** ****** ****** ****** ****** ****** ******
      ****** ****** ****** ****** ****** ****** ****** ****** ****** ******
   8  ****** ****** ****** ****** ****** ****** ****** ****** ****** ******
      ****** ****** ****** ****** ****** ****** ****** ****** ****** ******
      ****** ****** ****** ****** ****** ****** ****** ****** ****** ******
   9  ****** ****** ****** ****** ****** ****** ****** ****** ****** ******
      ****** ****** ****** ****** ****** ****** ****** ****** ****** ******
      ****** ****** ****** ****** ****** ****** ****** ****** ****** ******
  10  ****** ****** ****** ****** ****** ****** ****** ****** ****** ******
      ****** ****** ****** ****** ****** ****** ****** ****** ****** ******
      ****** ****** ****** ****** ****** ****** ****** ****** ****** ******
  11  ****** ****** ****** ****** ****** ****** ****** ****** ****** ******
      ****** ****** ****** ****** ****** ****** ****** ****** ****** ******
      ****** ****** ****** ****** ****** ****** ****** ****** ****** ******
  12  ****** ****** ****** ****** ****** ****** ****** ****** ****** ******
      ****** ****** ****** ****** ****** ****** ****** ****** ****** ******
      ****** ****** ****** ****** ****** ****** ****** ****** ****** ******
  13  ****** ****** ****** ****** ****** ****** ****** ****** ****** ******
      ****** ****** ****** ****** ****** ****** ****** ****** ****** ******
      ****** ****** ****** ****** ****** ****** ****** ****** ****** ******
  14  ****** ****** ****** ****** ****** ****** ****** ****** ****** ******
      ****** ****** ****** ****** ****** ****** ****** ****** ****** ******
      ****** ****** ****** ****** ****** ****** ****** ****** ****** ******
  15  ****** ****** ****** ****** ****** ****** ****** ****** ****** ******
      ****** ****** ****** ****** ****** ****** ****** ****** ****** ******
      ****** ****** ****** ****** ****** ****** ****** ****** ****** ******
  16  ****** ****** ****** ****** ****** ****** ****** ****** ****** ******
      ****** ****** ****** ****** ****** ****** ****** ****** ****** ******
      ****** ****** ****** ****** ****** ****** ****** ****** ****** ******
  17  ****** ****** ****** ****** ****** ****** ****** ****** ****** ******
      ****** ****** ****** ****** ****** ****** ****** ****** ****** ******
      ****** ****** ****** ****** ****** ****** ****** ****** ****** ******
  18  ****** ****** ****** ****** ****** ****** ****** ****** ****** ******
      ****** ****** ****** ****** ****** ****** ****** ****** ****** ******
      ****** ****** ****** ****** ****** ****** ****** ****** ****** ******
  19  ****** ****** ****** ****** ****** ****** ****** ****** ****** ******
      ****** ****** ****** ****** ****** ****** ****** ****** ****** ******
      ****** ****** ****** ****** ****** ****** ****** ****** ****** ******
  20  ****** ****** ****** ****** ****** ****** ****** ****** ****** ******
      ****** ****** ****** ****** ****** ****** ****** ****** ****** ******
      ****** ****** ****** ****** ****** ****** ****** ****** ****** ******
  21  ****** ****** ****** ****** ****** ****** ****** ****** ****** ******
      ****** ****** ****** ****** ****** ****** ****** ****** ****** ******
      ****** ****** ****** ****** ****** ****** ****** ****** ****** ******
  22  ****** ****** ****** ****** ****** ****** ****** ****** ****** ******
      ****** ****** ****** ****** ****** ****** ****** ****** ****** ******
      ****** ****** ****** ****** ****** ****** ****** ****** ****** ******
  23  ****** ****** ****** ****** ****** ****** ****** ****** ****** ******
      ****** ****** ****** ****** ****** ****** ****** ****** ****** ******
      ****** ****** ****** ****** ****** ****** ****** ****** ****** ******
  24  ****** ****** ****** ****** ****** ****** ****** ****** ****** ******
      ****** ****** ****** ****** ****** ****** ****** ****** ****** ******
      ****** ****** ****** ****** ****** ****** ****** ****** ****** ******
  25  ****** ****** ****** ****** ****** ****** ****** ****** ****** ******
      ****** ****** ****** ****** ****** ****** ****** ****** ****** ******
      ****** ****** ****** ****** ****** ****** ****** ****** ****** ******

 HEAD WILL BE SAVED ON UNIT   51 AT END OF TIME STEP    1, STRESS PERIOD    1
1
  VOLUMETRIC BUDGET FOR ENTIRE MODEL AT END OF TIME STEP    1, STRESS PERIOD   1
  ------------------------------------------------------------------------------

     CUMULATIVE VOLUMES      L**3       RATES FOR THIS TIME STEP      L**3/T
     ------------------                 ------------------------

           IN:                                      IN:
           ---                                      ---
             STORAGE =    17359083.8479               STORAGE =      188685.6940
       CONSTANT HEAD =     1116766.9392         CONSTANT HEAD =       12138.7711
               WELLS =           0.0000                 WELLS =           0.0000
            RECHARGE =     1269600.0000              RECHARGE =       13800.0000
      STREAM LEAKAGE =     1329280.9587        STREAM LEAKAGE =       14448.7061

            TOTAL IN =    21074731.7458              TOTAL IN =      229073.1711

          OUT:                                     OUT:
          ----                                     ----
             STORAGE =           0.0000               STORAGE =           0.0000
       CONSTANT HEAD =           0.0000         CONSTANT HEAD =           0.0000
               WELLS =     4417124.2663                 WELLS =       48012.2203
            RECHARGE =           0.0000              RECHARGE =           0.0000
      STREAM LEAKAGE =    16657607.7608        STREAM LEAKAGE =      181060.9539

           TOTAL OUT =    21074732.0271             TOTAL OUT =      229073.1742

            IN - OUT =          -0.2813              IN - OUT =      -3.0572E-03

 PERCENT DISCREPANCY =          -0.00     PERCENT DISCREPANCY =          -0.00






         TIME SUMMARY AT END OF TIME STEP    1 IN STRESS PERIOD    1
                    SECONDS     MINUTES      HOURS       DAYS        YEARS
                    -----------------------------------------------------------
   TIME STEP LENGTH 7.94880E+06 1.32480E+05  2208.0      92.000     0.25188    
 STRESS PERIOD TIME 7.94880E+06 1.32480E+05  2208.0      92.000     0.25188    
         TOTAL TIME 7.94880E+06 1.32480E+05  2208.0      92.000     0.25188    
1
1
                            STRESS PERIOD NO.    2, LENGTH =   91.00000    
                            -----------------------------------------------

                              NUMBER OF TIME STEPS =     1

                               MULTIPLIER FOR DELT =     1.500

                            INITIAL TIME STEP SIZE =   91.00000    

 WELL NO.  LAYER   ROW   COL   STRESS RATE         
 --------------------------------------------------
      1      1     17     29     -0.1404E+05
      2      1     18     28     -0.1091E+05
      3      1     12     29     -0.1310E+05
      4      1     19     29      -9959.    

      4 WELLS

                 RECHARGE =  2.000000E-03

 REUSING STREAM SEGMENT DATA FROM LAST STRESS PERIOD
 
 SOLVING FOR HEAD 


     7 CALLS TO PCG ROUTINE FOR TIME STEP   1 IN STRESS PERIOD    2
    27 TOTAL ITERATIONS

 OUTPUT CONTROL FOR STRESS PERIOD    2   TIME STEP    1
    SAVE BUDGET
    SAVE HEAD FOR ALL LAYERS
    PRINT HEAD FOR ALL LAYERS
 UBDSV2 SAVING "STREAMFLOW OUT  " ON UNIT  50 AT TIME STEP  1, STRESS PERIOD   2



 STREAM LISTING     PERIOD      2   STEP        1

 LAYER ROW COL. STREAM  RCH.  FLOW INTO     FLOW TO   FLOW OUT OF   OVRLND.     DIRECT     STREAM       STREAM     STREAM     STREAM   STREAMBED  STREAMBED
                SEG.NO.  NO.  STRM. RCH.    AQUIFER    STRM. RCH.    RUNOFF     PRECIP       ET          HEAD       DEPTH      WIDTH   CONDCTNC.   GRADIENT

   1   13    1     1     1    1.0000E+05 -4.0170E+03   1.0402E+05  0.000E+00  0.000E+00  0.000E+00  4.84078E+01  1.464E-01  2.000E+01  2.000E+04 -2.009E-01
   1   13    2     1     2    1.0402E+05 -5.2797E+03   1.0930E+05  0.000E+00  0.000E+00  0.000E+00  4.79344E+01  1.504E-01  2.000E+01  2.000E+04 -2.640E-01
   1   14    3     1     3    1.0930E+05 -1.1172E+03   1.1041E+05  0.000E+00  0.000E+00  0.000E+00  4.74599E+01  1.530E-01  2.000E+01  2.000E+04 -5.586E-02
   1   15    4     1     4    1.1041E+05 -1.1450E+03   1.1156E+05  0.000E+00  0.000E+00  0.000E+00  4.69835E+01  1.540E-01  2.000E+01  2.000E+04 -5.725E-02
   1   16    5     1     5    1.1156E+05 -4.2587E+03   1.1582E+05  0.000E+00  0.000E+00  0.000E+00  4.65085E+01  1.562E-01  2.000E+01  2.000E+04 -2.129E-01
   1   16    6     1     6    1.1582E+05 -2.5115E+03   1.1833E+05  0.000E+00  0.000E+00  0.000E+00  4.60340E+01  1.590E-01  2.000E+01  2.000E+04 -1.256E-01
   1   16    7     1     7    1.1833E+05 -2.4180E+03   1.2075E+05  0.000E+00  0.000E+00  0.000E+00  4.55587E+01  1.610E-01  2.000E+01  2.000E+04 -1.209E-01
   1   16    8     1     8    1.2075E+05 -2.3899E+03   1.2314E+05  0.000E+00  0.000E+00  0.000E+00  4.50834E+01  1.629E-01  2.000E+01  2.000E+04 -1.195E-01
   1   16    9     1     9    1.2314E+05 -2.3706E+03   1.2551E+05  0.000E+00  0.000E+00  0.000E+00  4.46080E+01  1.648E-01  2.000E+01  2.000E+04 -1.185E-01
   1   16   10     1    10    1.2551E+05 -2.3480E+03   1.2786E+05  0.000E+00  0.000E+00  0.000E+00  4.41326E+01  1.667E-01  2.000E+01  2.000E+04 -1.174E-01
   1   16   11     1    11    1.2786E+05 -2.3566E+03   1.3021E+05  0.000E+00  0.000E+00  0.000E+00  4.36572E+01  1.686E-01  2.000E+01  2.000E+04 -1.178E-01
   1   16   12     1    12    1.3021E+05 -4.1545E+03   1.3437E+05  0.000E+00  0.000E+00  0.000E+00  4.31825E+01  1.711E-01  2.000E+01  2.000E+04 -2.077E-01
   1   15   13     1    13    1.3437E+05 -4.1526E+03   1.3852E+05  0.000E+00  0.000E+00  0.000E+00  4.27084E+01  1.743E-01  2.000E+01  2.000E+04 -2.076E-01
   1   14   14     1    14    1.3852E+05 -4.5588E+03   1.4308E+05  0.000E+00  0.000E+00  0.000E+00  4.22344E+01  1.776E-01  2.000E+01  2.000E+04 -2.279E-01
   1   13   15     1    15    1.4308E+05 -4.9401E+03   1.4802E+05  0.000E+00  0.000E+00  0.000E+00  4.17607E+01  1.812E-01  2.000E+01  2.000E+04 -2.470E-01
   1   12   16     1    16    1.4802E+05 -5.8459E+03   1.5386E+05  0.000E+00  0.000E+00  0.000E+00  4.12875E+01  1.852E-01  2.000E+01  2.000E+04 -2.923E-01
   1   12   17     1    17    1.5386E+05 -3.9001E+03   1.5776E+05  0.000E+00  0.000E+00  0.000E+00  4.08138E+01  1.888E-01  2.000E+01  2.000E+04 -1.950E-01
   1   12   18     1    18    1.5776E+05 -3.7406E+03   1.6150E+05  0.000E+00  0.000E+00  0.000E+00  4.03392E+01  1.915E-01  2.000E+01  2.000E+04 -1.870E-01
   1   12   19     1    19    1.6150E+05 -4.7476E+03   1.6625E+05  0.000E+00  0.000E+00  0.000E+00  3.98650E+01  1.946E-01  2.000E+01  2.000E+04 -2.374E-01
   1   13   20     1    20    1.6625E+05 -3.8108E+03   1.7006E+05  0.000E+00  0.000E+00  0.000E+00  3.93908E+01  1.976E-01  2.000E+01  2.000E+04 -1.905E-01
   1   14   21     1    21    1.7006E+05 -3.7090E+03   1.7377E+05  0.000E+00  0.000E+00  0.000E+00  3.89161E+01  2.002E-01  2.000E+01  2.000E+04 -1.854E-01
   1   14   22     1    22    1.7377E+05  4.5096E+03   1.6926E+05  0.000E+00  0.000E+00  0.000E+00  3.84386E+01  1.999E-01  2.000E+01  2.000E+04  2.255E-01
   1    9   30     2     1    5.0000E+04 -7.9204E+01   5.0079E+04  0.000E+00  0.000E+00  0.000E+00  4.02409E+01  1.159E-01  2.000E+01  2.000E+04 -3.960E-03
   1    9   29     2     2    5.0079E+04 -4.6487E+02   5.0544E+04  0.000E+00  0.000E+00  0.000E+00  3.99913E+01  1.163E-01  2.000E+01  2.000E+04 -2.324E-02
   1    9   28     2     3    5.0544E+04 -1.2705E+03   5.1815E+04  0.000E+00  0.000E+00  0.000E+00  3.97425E+01  1.175E-01  2.000E+01  2.000E+04 -6.352E-02
   1    9   27     2     4    5.1815E+04 -4.0203E+03   5.5835E+04  0.000E+00  0.000E+00  0.000E+00  3.94961E+01  1.211E-01  2.000E+01  2.000E+04 -2.010E-01
   1   10   26     2     5    5.5835E+04 -2.1911E+03   5.8026E+04  0.000E+00  0.000E+00  0.000E+00  3.92503E+01  1.253E-01  2.000E+01  2.000E+04 -1.096E-01
   1   11   25     2     6    5.8026E+04 -2.1886E+03   6.0215E+04  0.000E+00  0.000E+00  0.000E+00  3.90031E+01  1.281E-01  2.000E+01  2.000E+04 -1.094E-01
   1   12   24     2     7    6.0215E+04 -2.8061E+03   6.3021E+04  0.000E+00  0.000E+00  0.000E+00  3.87563E+01  1.313E-01  2.000E+01  2.000E+04 -1.403E-01
   1   13   23     2     8    6.3021E+04 -6.0513E+02   6.3626E+04  0.000E+00  0.000E+00  0.000E+00  3.85085E+01  1.335E-01  2.000E+01  2.000E+04 -3.026E-02
   1   14   22     2     9    6.3626E+04  9.0437E+02   6.2721E+04  0.000E+00  0.000E+00  0.000E+00  3.82583E+01  1.333E-01  2.000E+01  2.000E+04  4.522E-02
   1   14   22     3     1    2.3198E+05 -9.1267E+03   2.4111E+05  0.000E+00  0.000E+00  0.000E+00  3.77568E+01  2.012E-01  2.000E+01  2.000E+04 -4.563E-01
   1   15   23     3     2    2.4111E+05 -1.0279E+03   2.4214E+05  0.000E+00  0.000E+00  0.000E+00  3.68705E+01  2.038E-01  2.000E+01  2.000E+04 -5.139E-02
   1   15   24     3     3    2.4214E+05 -6.3096E+02   2.4277E+05  0.000E+00  0.000E+00  0.000E+00  3.59820E+01  2.042E-01  2.000E+01  2.000E+04 -3.155E-02
   1   15   25     3     4    2.4277E+05 -5.9966E+02   2.4337E+05  0.000E+00  0.000E+00  0.000E+00  3.50934E+01  2.045E-01  2.000E+01  2.000E+04 -2.998E-02
   1   15   26     3     5    2.4337E+05 -4.4301E+02   2.4381E+05  0.000E+00  0.000E+00  0.000E+00  3.42048E+01  2.048E-01  2.000E+01  2.000E+04 -2.215E-02
   1   16   27     3     6    2.4381E+05 -1.5297E+02   2.4397E+05  0.000E+00  0.000E+00  0.000E+00  3.33160E+01  2.049E-01  2.000E+01  2.000E+04 -7.648E-03
   1   17   28     3     7    2.4397E+05  9.1099E+03   2.3486E+05  0.000E+00  0.000E+00  0.000E+00  3.24249E+01  2.027E-01  2.000E+01  2.000E+04  4.555E-01
   1   18   29     3     8    2.3486E+05  9.7953E+03   2.2506E+05  0.000E+00  0.000E+00  0.000E+00  3.15312E+01  1.978E-01  2.000E+01  2.000E+04  4.898E-01
   1   18   30     3     9    2.2506E+05  1.3120E+03   2.2375E+05  0.000E+00  0.000E+00  0.000E+00  3.06394E+01  1.949E-01  2.000E+01  2.000E+04  6.560E-02



1
              HEAD IN LAYER   1 AT END OF TIME STEP   1 IN STRESS PERIOD    2
  ---------------------------------------------------------------------------

          1      2      3      4      5      6      7      8      9     10
         11     12     13     14     15     16     17     18     19     20
         21     22     23     24     25     26     27     28     29     30
 .........................................................................
   1  ****** ****** ****** ****** ****** ****** ****** ****** ****** ******
      ****** ****** ****** ****** ****** ****** ****** ****** ****** ******
      ****** ****** ****** ****** ****** ****** ****** ****** ****** ******
   2  ****** ****** ****** ****** ****** ****** ****** ****** ****** ******
      ****** ****** ****** ****** ****** ****** ****** ****** ****** ******
      ****** ****** ****** ****** ****** ****** ****** ****** ****** ******
   3  ****** ****** ****** ****** ****** ****** ****** ****** ****** ******
      ****** ****** ****** ****** ****** ****** ****** ****** ****** ******
      ****** ****** ****** ****** ****** ****** ****** ****** ****** ******
   4  ****** ****** ****** ****** ****** ****** ****** ****** ****** ******
      ****** ****** ****** ****** ****** ****** ****** ****** ****** ******
      ****** ****** ****** ****** ****** ****** ****** ****** ****** ******
   5  ****** ****** ****** ****** ****** ****** ****** ****** ****** ******
      ****** ****** ****** ****** ****** ****** ****** ****** ****** ******
      ****** ****** ****** ****** ****** ****** ****** ****** ****** ******
   6  ****** ****** ****** ****** ****** ****** ****** ****** ****** ******
      ****** ****** ****** ****** ****** ****** ****** ****** ****** ******
      ****** ****** ****** ****** ****** ****** ****** ****** ****** ******
   7  ****** ****** ****** ****** ****** ****** ****** ****** ****** ******
      ****** ****** ****** ****** ****** ****** ****** ****** ****** ******
      ****** ****** ****** ****** ****** ****** ****** ****** ****** ******
   8  ****** ****** ****** ****** ****** ****** ****** ****** ****** ******
      ****** ****** ****** ****** ****** ****** ****** ****** ****** ******
      ****** ****** ****** ****** ****** ****** ****** ****** ****** ******
   9  ****** ****** ****** ****** ****** ****** ****** ****** ****** ******
      ****** ****** ****** ****** ****** ****** ****** ****** ****** ******
      ****** ****** ****** ****** ****** ****** ****** ****** ****** ******
  10  ****** ****** ****** ****** ****** ****** ****** ****** ****** ******
      ****** ****** ****** ****** ****** ****** ****** ****** ****** ******
      ****** ****** ****** ****** ****** ****** ****** ****** ****** ******
  11  ****** ****** ****** ****** ****** ****** ****** ****** ****** ******
      ****** ****** ****** ****** ****** ****** ****** ****** ****** ******
      ****** ****** ****** ****** ****** ****** ****** ****** ****** ******
  12  ****** ****** ****** ****** ****** ****** ****** ****** ****** ******
      ****** ****** ****** ****** ****** ****** ****** ****** ****** ******
      ****** ****** ****** ****** ****** ****** ****** ****** ****** ******
  13  ****** ****** ****** ****** ****** ****** ****** ****** ****** ******
      ****** ****** ****** ****** ****** ****** ****** ****** ****** ******
      ****** ****** ****** ****** ****** ****** ****** ****** ****** ******
  14  ****** ****** ****** ****** ****** ****** ****** ****** ****** ******
      ****** ****** ****** ****** ****** ****** ****** ****** ****** ******
      ****** ****** ****** ****** ****** ****** ****** ****** ****** ******
  15  ****** ****** ****** ****** ****** ****** ****** ****** ****** ******
      ****** ****** ****** ****** ****** ****** ****** ****** ****** ******
      ****** ****** ****** ****** ****** ****** ****** ****** ****** ******
  16  ****** ****** ****** ****** ****** ****** ****** ****** ****** ******
      ****** ****** ****** ****** ****** ****** ****** ****** ****** ******
      ****** ****** ****** ****** ****** ****** ****** ****** ****** ******
  17  ****** ****** ****** ****** ****** ****** ****** ****** ****** ******
      ****** ****** ****** ****** ****** ****** ****** ****** ****** ******
      ****** ****** ****** ****** ****** ****** ****** ****** ****** ******
  18  ****** ****** ****** ****** ****** ****** ****** ****** ****** ******
      ****** ****** ****** ****** ****** ****** ****** ****** ****** ******
      ****** ****** ****** ****** ****** ****** ****** ****** ****** ******
  19  ****** ****** ****** ****** ****** ****** ****** ****** ****** ******
      ****** ****** ****** ****** ****** ****** ****** ****** ****** ******
      ****** ****** ****** ****** ****** ****** ****** ****** ****** ******
  20  ****** ****** ****** ****** ****** ****** ****** ****** ****** ******
      ****** ****** ****** ****** ****** ****** ****** ****** ****** ******
      ****** ****** ****** ****** ****** ****** ****** ****** ****** ******
  21  ****** ****** ****** ****** ****** ****** ****** ****** ****** ******
      ****** ****** ****** ****** ****** ****** ****** ****** ****** ******
      ****** ****** ****** ****** ****** ****** ****** ****** ****** ******
  22  ****** ****** ****** ****** ****** ****** ****** ****** ****** ******
      ****** ****** ****** ****** ****** ****** ****** ****** ****** ******
      ****** ****** ****** ****** ****** ****** ****** ****** ****** ******
  23  ****** ****** ****** ****** ****** ****** ****** ****** ****** ******
      ****** ****** ****** ****** ****** ****** ****** ****** ****** ******
      ****** ****** ****** ****** ****** ****** ****** ****** ****** ******
  24  ****** ****** ****** ****** ****** ****** ****** ****** ****** ******
      ****** ****** ****** ****** ****** ****** ****** ****** ****** ******
      ****** ****** ****** ****** ****** ****** ****** ****** ****** ******
  25  ****** ****** ****** ****** ****** ****** ****** ****** ****** ******
      ****** ****** ****** ****** ****** ****** ****** ****** ****** ******
      ****** ****** ****** ****** ****** ****** ****** ****** ****** ******

 HEAD WILL BE SAVED ON UNIT   51 AT END OF TIME STEP    1, STRESS PERIOD    2
1
  VOLUMETRIC BUDGET FOR ENTIRE MODEL AT END OF TIME STEP    1, STRESS PERIOD   2
  ------------------------------------------------------------------------------

     CUMULATIVE VOLUMES      L**3       RATES FOR THIS TIME STEP      L**3/T
     ------------------                 ------------------------

           IN:                                      IN:
           ---                                      ---
             STORAGE =    21938850.8674               STORAGE =       50327.1101
       CONSTANT HEAD =     2593991.8012         CONSTANT HEAD =       16233.2402
               WELLS =           0.0000                 WELLS =           0.0000
            RECHARGE =     6292800.0000              RECHARGE =       55200.0000
      STREAM LEAKAGE =     3661712.2251        STREAM LEAKAGE =       25631.1128

            TOTAL IN =    34487354.8937              TOTAL IN =      147391.4632

          OUT:                                     OUT:
          ----                                     ----
             STORAGE =           0.0000               STORAGE =           0.0000
       CONSTANT HEAD =           0.0000         CONSTANT HEAD =           0.0000
               WELLS =     8786236.3123                 WELLS =       48012.2203
            RECHARGE =           0.0000              RECHARGE =           0.0000
      STREAM LEAKAGE =    25701119.7698        STREAM LEAKAGE =       99379.2528

           TOTAL OUT =    34487356.0821             TOTAL OUT =      147391.4731

            IN - OUT =          -1.1883              IN - OUT =      -9.9676E-03

 PERCENT DISCREPANCY =          -0.00     PERCENT DISCREPANCY =          -0.00






         TIME SUMMARY AT END OF TIME STEP    1 IN STRESS PERIOD    2
                    SECONDS     MINUTES      HOURS       DAYS        YEARS
                    -----------------------------------------------------------
   TIME STEP LENGTH 7.86240E+06 1.31040E+05  2184.0      91.000     0.24914    
 STRESS PERIOD TIME 7.86240E+06 1.31040E+05  2184.0      91.000     0.24914    
         TOTAL TIME 1.58112E+07 2.63520E+05  4392.0      183.00     0.50103    
1
1
                            STRESS PERIOD NO.    3, LENGTH =   91.00000    
                            -----------------------------------------------

                              NUMBER OF TIME STEPS =     1

                               MULTIPLIER FOR DELT =     1.500

                            INITIAL TIME STEP SIZE =   91.00000    

 WELL NO.  LAYER   ROW   COL   STRESS RATE         
 --------------------------------------------------
      1      1     17     29     -0.1404E+05
      2      1     18     28     -0.1091E+05
      3      1     12     29     -0.1310E+05
      4      1     19     29      -9959.    

      4 WELLS

                 RECHARGE =   0.00000    

 REUSING STREAM SEGMENT DATA FROM LAST STRESS PERIOD
 
 SOLVING FOR HEAD 


     7 CALLS TO PCG ROUTINE FOR TIME STEP   1 IN STRESS PERIOD    3
    27 TOTAL ITERATIONS

 OUTPUT CONTROL FOR STRESS PERIOD    3   TIME STEP    1
    SAVE BUDGET
    SAVE HEAD FOR ALL LAYERS
    PRINT HEAD FOR ALL LAYERS
 UBDSV2 SAVING "STREAMFLOW OUT  " ON UNIT  50 AT TIME STEP  1, STRESS PERIOD   3



 STREAM LISTING     PERIOD      3   STEP        1

 LAYER ROW COL. STREAM  RCH.  FLOW INTO     FLOW TO   FLOW OUT OF   OVRLND.     DIRECT     STREAM       STREAM     STREAM     STREAM   STREAMBED  STREAMBED
                SEG.NO.  NO.  STRM. RCH.    AQUIFER    STRM. RCH.    RUNOFF     PRECIP       ET          HEAD       DEPTH      WIDTH   CONDCTNC.   GRADIENT

   1   13    1     1     1    1.0000E+05 -2.7803E+03   1.0278E+05  0.000E+00  0.000E+00  0.000E+00  4.84072E+01  1.459E-01  2.000E+01  2.000E+04 -1.390E-01
   1   13    2     1     2    1.0278E+05 -3.8906E+03   1.0667E+05  0.000E+00  0.000E+00  0.000E+00  4.79328E+01  1.487E-01  2.000E+01  2.000E+04 -1.945E-01
   1   14    3     1     3    1.0667E+05 -6.5796E+02   1.0733E+05  0.000E+00  0.000E+00  0.000E+00  4.74575E+01  1.506E-01  2.000E+01  2.000E+04 -3.290E-02
   1   15    4     1     4    1.0733E+05 -6.4138E+02   1.0797E+05  0.000E+00  0.000E+00  0.000E+00  4.69807E+01  1.512E-01  2.000E+01  2.000E+04 -3.207E-02
   1   16    5     1     5    1.0797E+05 -2.4690E+03   1.1044E+05  0.000E+00  0.000E+00  0.000E+00  4.65048E+01  1.525E-01  2.000E+01  2.000E+04 -1.234E-01
   1   16    6     1     6    1.1044E+05 -1.5120E+03   1.1195E+05  0.000E+00  0.000E+00  0.000E+00  4.60292E+01  1.542E-01  2.000E+01  2.000E+04 -7.560E-02
   1   16    7     1     7    1.1195E+05 -1.4768E+03   1.1343E+05  0.000E+00  0.000E+00  0.000E+00  4.55531E+01  1.554E-01  2.000E+01  2.000E+04 -7.384E-02
   1   16    8     1     8    1.1343E+05 -1.4670E+03   1.1489E+05  0.000E+00  0.000E+00  0.000E+00  4.50771E+01  1.566E-01  2.000E+01  2.000E+04 -7.335E-02
   1   16    9     1     9    1.1489E+05 -1.4524E+03   1.1635E+05  0.000E+00  0.000E+00  0.000E+00  4.46010E+01  1.578E-01  2.000E+01  2.000E+04 -7.262E-02
   1   16   10     1    10    1.1635E+05 -1.4303E+03   1.1778E+05  0.000E+00  0.000E+00  0.000E+00  4.41249E+01  1.590E-01  2.000E+01  2.000E+04 -7.152E-02
   1   16   11     1    11    1.1778E+05 -1.4331E+03   1.1921E+05  0.000E+00  0.000E+00  0.000E+00  4.36488E+01  1.602E-01  2.000E+01  2.000E+04 -7.166E-02
   1   16   12     1    12    1.1921E+05 -2.5526E+03   1.2176E+05  0.000E+00  0.000E+00  0.000E+00  4.31731E+01  1.618E-01  2.000E+01  2.000E+04 -1.276E-01
   1   15   13     1    13    1.2176E+05 -2.5203E+03   1.2428E+05  0.000E+00  0.000E+00  0.000E+00  4.26979E+01  1.638E-01  2.000E+01  2.000E+04 -1.260E-01
   1   14   14     1    14    1.2428E+05 -2.8882E+03   1.2717E+05  0.000E+00  0.000E+00  0.000E+00  4.22228E+01  1.660E-01  2.000E+01  2.000E+04 -1.444E-01
   1   13   15     1    15    1.2717E+05 -3.2742E+03   1.3045E+05  0.000E+00  0.000E+00  0.000E+00  4.17479E+01  1.684E-01  2.000E+01  2.000E+04 -1.637E-01
   1   12   16     1    16    1.3045E+05 -4.1373E+03   1.3458E+05  0.000E+00  0.000E+00  0.000E+00  4.12735E+01  1.713E-01  2.000E+01  2.000E+04 -2.069E-01
   1   12   17     1    17    1.3458E+05 -2.6588E+03   1.3724E+05  0.000E+00  0.000E+00  0.000E+00  4.07989E+01  1.739E-01  2.000E+01  2.000E+04 -1.329E-01
   1   12   18     1    18    1.3724E+05 -2.5162E+03   1.3976E+05  0.000E+00  0.000E+00  0.000E+00  4.03236E+01  1.759E-01  2.000E+01  2.000E+04 -1.258E-01
   1   12   19     1    19    1.3976E+05 -3.2126E+03   1.4297E+05  0.000E+00  0.000E+00  0.000E+00  3.98485E+01  1.780E-01  2.000E+01  2.000E+04 -1.606E-01
   1   13   20     1    20    1.4297E+05 -2.3838E+03   1.4535E+05  0.000E+00  0.000E+00  0.000E+00  3.93733E+01  1.802E-01  2.000E+01  2.000E+04 -1.192E-01
   1   14   21     1    21    1.4535E+05 -2.2378E+03   1.4759E+05  0.000E+00  0.000E+00  0.000E+00  3.88978E+01  1.819E-01  2.000E+01  2.000E+04 -1.119E-01
   1   14   22     1    22    1.4759E+05  4.8764E+03   1.4272E+05  0.000E+00  0.000E+00  0.000E+00  3.84195E+01  1.809E-01  2.000E+01  2.000E+04  2.438E-01
   1    9   30     2     1    5.0000E+04  1.1798E+03   4.8820E+04  0.000E+00  0.000E+00  0.000E+00  4.02400E+01  1.150E-01  2.000E+01  2.000E+04  5.899E-02
   1    9   29     2     2    4.8820E+04  7.8571E+02   4.8034E+04  0.000E+00  0.000E+00  0.000E+00  3.99887E+01  1.137E-01  2.000E+01  2.000E+04  3.929E-02
   1    9   28     2     3    4.8034E+04 -2.1640E+01   4.8056E+04  0.000E+00  0.000E+00  0.000E+00  3.97381E+01  1.131E-01  2.000E+01  2.000E+04 -1.082E-03
   1    9   27     2     4    4.8056E+04 -2.2774E+03   5.0334E+04  0.000E+00  0.000E+00  0.000E+00  3.94897E+01  1.147E-01  2.000E+01  2.000E+04 -1.139E-01
   1   10   26     2     5    5.0334E+04 -5.2565E+02   5.0859E+04  0.000E+00  0.000E+00  0.000E+00  3.92417E+01  1.167E-01  2.000E+01  2.000E+04 -2.628E-02
   1   11   25     2     6    5.0859E+04 -6.4110E+02   5.1500E+04  0.000E+00  0.000E+00  0.000E+00  3.89925E+01  1.175E-01  2.000E+01  2.000E+04 -3.205E-02
   1   12   24     2     7    5.1500E+04 -1.4497E+03   5.2950E+04  0.000E+00  0.000E+00  0.000E+00  3.87439E+01  1.189E-01  2.000E+01  2.000E+04 -7.249E-02
   1   13   23     2     8    5.2950E+04 -2.7074E+02   5.3221E+04  0.000E+00  0.000E+00  0.000E+00  3.84951E+01  1.201E-01  2.000E+01  2.000E+04 -1.354E-02
   1   14   22     2     9    5.3221E+04  1.3729E+03   5.1848E+04  0.000E+00  0.000E+00  0.000E+00  3.82444E+01  1.194E-01  2.000E+01  2.000E+04  6.865E-02
   1   14   22     3     1    1.9456E+05 -8.7758E+03   2.0334E+05  0.000E+00  0.000E+00  0.000E+00  3.77369E+01  1.814E-01  2.000E+01  2.000E+04 -4.388E-01
   1   15   23     3     2    2.0334E+05 -6.3079E+02   2.0397E+05  0.000E+00  0.000E+00  0.000E+00  3.68506E+01  1.839E-01  2.000E+01  2.000E+04 -3.154E-02
   1   15   24     3     3    2.0397E+05 -3.0011E+02   2.0427E+05  0.000E+00  0.000E+00  0.000E+00  3.59620E+01  1.842E-01  2.000E+01  2.000E+04 -1.501E-02
   1   15   25     3     4    2.0427E+05 -2.4655E+02   2.0452E+05  0.000E+00  0.000E+00  0.000E+00  3.50732E+01  1.843E-01  2.000E+01  2.000E+04 -1.233E-02
   1   15   26     3     5    2.0452E+05 -4.8515E+00   2.0452E+05  0.000E+00  0.000E+00  0.000E+00  3.41844E+01  1.844E-01  2.000E+01  2.000E+04 -2.426E-04
   1   16   27     3     6    2.0452E+05  3.5868E+02   2.0416E+05  0.000E+00  0.000E+00  0.000E+00  3.32954E+01  1.843E-01  2.000E+01  2.000E+04  1.793E-02
   1   17   28     3     7    2.0416E+05  1.0731E+04   1.9343E+05  0.000E+00  0.000E+00  0.000E+00  3.24035E+01  1.813E-01  2.000E+01  2.000E+04  5.366E-01
   1   18   29     3     8    1.9343E+05  1.1529E+04   1.8190E+05  0.000E+00  0.000E+00  0.000E+00  3.15085E+01  1.751E-01  2.000E+01  2.000E+04  5.764E-01
   1   18   30     3     9    1.8190E+05  2.6160E+03   1.7929E+05  0.000E+00  0.000E+00  0.000E+00  3.06156E+01  1.711E-01  2.000E+01  2.000E+04  1.308E-01



1
              HEAD IN LAYER   1 AT END OF TIME STEP   1 IN STRESS PERIOD    3
  ---------------------------------------------------------------------------

          1      2      3      4      5      6      7      8      9     10
         11     12     13     14     15     16     17     18     19     20
         21     22     23     24     25     26     27     28     29     30
 .........................................................................
   1  ****** ****** ****** ****** ****** ****** ****** ****** ****** ******
      ****** ****** ****** ****** ****** ****** ****** ****** ****** ******
      ****** ****** ****** ****** ****** ****** ****** ****** ****** ******
   2  ****** ****** ****** ****** ****** ****** ****** ****** ****** ******
      ****** ****** ****** ****** ****** ****** ****** ****** ****** ******
      ****** ****** ****** ****** ****** ****** ****** ****** ****** ******
   3  ****** ****** ****** ****** ****** ****** ****** ****** ****** ******
      ****** ****** ****** ****** ****** ****** ****** ****** ****** ******
      ****** ****** ****** ****** ****** ****** ****** ****** ****** ******
   4  ****** ****** ****** ****** ****** ****** ****** ****** ****** ******
      ****** ****** ****** ****** ****** ****** ****** ****** ****** ******
      ****** ****** ****** ****** ****** ****** ****** ****** ****** ******
   5  ****** ****** ****** ****** ****** ****** ****** ****** ****** ******
      ****** ****** ****** ****** ****** ****** ****** ****** ****** ******
      ****** ****** ****** ****** ****** ****** ****** ****** ****** ******
   6  ****** ****** ****** ****** ****** ****** ****** ****** ****** ******
      ****** ****** ****** ****** ****** ****** ****** ****** ****** ******
      ****** ****** ****** ****** ****** ****** ****** ****** ****** ******
   7  ****** ****** ****** ****** ****** ****** ****** ****** ****** ******
      ****** ****** ****** ****** ****** ****** ****** ****** ****** ******
      ****** ****** ****** ****** ****** ****** ****** ****** ****** ******
   8  ****** ****** ****** ****** ****** ****** ****** ****** ****** ******
      ****** ****** ****** ****** ****** ****** ****** ****** ****** ******
      ****** ****** ****** ****** ****** ****** ****** ****** ****** ******
   9  ****** ****** ****** ****** ****** ****** ****** ****** ****** ******
      ****** ****** ****** ****** ****** ****** ****** ****** ****** ******
      ****** ****** ****** ****** ****** ****** ****** ****** ****** ******
  10  ****** ****** ****** ****** ****** ****** ****** ****** ****** ******
      ****** ****** ****** ****** ****** ****** ****** ****** ****** ******
      ****** ****** ****** ****** ****** ****** ****** ****** ****** ******
  11  ****** ****** ****** ****** ****** ****** ****** ****** ****** ******
      ****** ****** ****** ****** ****** ****** ****** ****** ****** ******
      ****** ****** ****** ****** ****** ****** ****** ****** ****** ******
  12  ****** ****** ****** ****** ****** ****** ****** ****** ****** ******
      ****** ****** ****** ****** ****** ****** ****** ****** ****** ******
      ****** ****** ****** ****** ****** ****** ****** ****** ****** ******
  13  ****** ****** ****** ****** ****** ****** ****** ****** ****** ******
      ****** ****** ****** ****** ****** ****** ****** ****** ****** ******
      ****** ****** ****** ****** ****** ****** ****** ****** ****** ******
  14  ****** ****** ****** ****** ****** ****** ****** ****** ****** ******
      ****** ****** ****** ****** ****** ****** ****** ****** ****** ******
      ****** ****** ****** ****** ****** ****** ****** ****** ****** ******
  15  ****** ****** ****** ****** ****** ****** ****** ****** ****** ******
      ****** ****** ****** ****** ****** ****** ****** ****** ****** ******
      ****** ****** ****** ****** ****** ****** ****** ****** ****** ******
  16  ****** ****** ****** ****** ****** ****** ****** ****** ****** ******
      ****** ****** ****** ****** ****** ****** ****** ****** ****** ******
      ****** ****** ****** ****** ****** ****** ****** ****** ****** ******
  17  ****** ****** ****** ****** ****** ****** ****** ****** ****** ******
      ****** ****** ****** ****** ****** ****** ****** ****** ****** ******
      ****** ****** ****** ****** ****** ****** ****** ****** ****** ******
  18  ****** ****** ****** ****** ****** ****** ****** ****** ****** ******
      ****** ****** ****** ****** ****** ****** ****** ****** ****** ******
      ****** ****** ****** ****** ****** ****** ****** ****** ****** ******
  19  ****** ****** ****** ****** ****** ****** ****** ****** ****** ******
      ****** ****** ****** ****** ****** ****** ****** ****** ****** ******
      ****** ****** ****** ****** ****** ****** ****** ****** ****** ******
  20  ****** ****** ****** ****** ****** ****** ****** ****** ****** ******
      ****** ****** ****** ****** ****** ****** ****** ****** ****** ******
      ****** ****** ****** ****** ****** ****** ****** ****** ****** ******
  21  ****** ****** ****** ****** ****** ****** ****** ****** ****** ******
      ****** ****** ****** ****** ****** ****** ****** ****** ****** ******
      ****** ****** ****** ****** ****** ****** ****** ****** ****** ******
  22  ****** ****** ****** ****** ****** ****** ****** ****** ****** ******
      ****** ****** ****** ****** ****** ****** ****** ****** ****** ******
      ****** ****** ****** ****** ****** ****** ****** ****** ****** ******
  23  ****** ****** ****** ****** ****** ****** ****** ****** ****** ******
      ****** ****** ****** ****** ****** ****** ****** ****** ****** ******
      ****** ****** ****** ****** ****** ****** ****** ****** ****** ******
  24  ****** ****** ****** ****** ****** ****** ****** ****** ****** ******
      ****** ****** ****** ****** ****** ****** ****** ****** ****** ******
      ****** ****** ****** ****** ****** ****** ****** ****** ****** ******
  25  ****** ****** ****** ****** ****** ****** ****** ****** ****** ******
      ****** ****** ****** ****** ****** ****** ****** ****** ****** ******
      ****** ****** ****** ****** ****** ****** ****** ****** ****** ******

 HEAD WILL BE SAVED ON UNIT   51 AT END OF TIME STEP    1, STRESS PERIOD    3
1
  VOLUMETRIC BUDGET FOR ENTIRE MODEL AT END OF TIME STEP    1, STRESS PERIOD   3
  ------------------------------------------------------------------------------

     CUMULATIVE VOLUMES      L**3       RATES FOR THIS TIME STEP      L**3/T
     ------------------                 ------------------------

           IN:                                      IN:
           ---                                      ---
             STORAGE =    26745505.0640               STORAGE =       52820.3758
       CONSTANT HEAD =     4821609.4301         CONSTANT HEAD =       24479.3146
               WELLS =           0.0000                 WELLS =           0.0000
            RECHARGE =     6292800.0000              RECHARGE =           0.0000
      STREAM LEAKAGE =     6705615.9158        STREAM LEAKAGE =       33449.4911

            TOTAL IN =    44565530.4099              TOTAL IN =      110749.1815

          OUT:                                     OUT:
          ----                                     ----
             STORAGE =           0.0000               STORAGE =           0.0000
       CONSTANT HEAD =           0.0000         CONSTANT HEAD =           0.0000
               WELLS =    13155348.3583                 WELLS =       48012.2203
            RECHARGE =           0.0000              RECHARGE =           0.0000
      STREAM LEAKAGE =    31410183.8789        STREAM LEAKAGE =       62736.9682

           TOTAL OUT =    44565532.2372             TOTAL OUT =      110749.1885

            IN - OUT =          -1.8273              IN - OUT =      -7.0215E-03

 PERCENT DISCREPANCY =          -0.00     PERCENT DISCREPANCY =          -0.00






         TIME SUMMARY AT END OF TIME STEP    1 IN STRESS PERIOD    3
                    SECONDS     MINUTES      HOURS       DAYS        YEARS
                    -----------------------------------------------------------
   TIME STEP LENGTH 7.86240E+06 1.31040E+05  2184.0      91.000     0.24914    
 STRESS PERIOD TIME 7.86240E+06 1.31040E+05  2184.0      91.000     0.24914    
         TOTAL TIME 2.36736E+07 3.94560E+05  6576.0      274.00     0.75017    
1
1
                            STRESS PERIOD NO.    4, LENGTH =   91.00000    
                            -----------------------------------------------

                              NUMBER OF TIME STEPS =     1

                               MULTIPLIER FOR DELT =     1.500

                            INITIAL TIME STEP SIZE =   91.00000    

 WELL NO.  LAYER   ROW   COL   STRESS RATE         
 --------------------------------------------------
      1      1     17     29     -0.1404E+05
      2      1     18     28     -0.1091E+05
      3      1     12     29     -0.1310E+05
      4      1     19     29      -9959.    

      4 WELLS

                 RECHARGE =  1.000000E-03

 REUSING STREAM SEGMENT DATA FROM LAST STRESS PERIOD
 
 SOLVING FOR HEAD 


     7 CALLS TO PCG ROUTINE FOR TIME STEP   1 IN STRESS PERIOD    4
    24 TOTAL ITERATIONS

 OUTPUT CONTROL FOR STRESS PERIOD    4   TIME STEP    1
    SAVE BUDGET
    SAVE HEAD FOR ALL LAYERS
    PRINT HEAD FOR ALL LAYERS
 UBDSV2 SAVING "STREAMFLOW OUT  " ON UNIT  50 AT TIME STEP  1, STRESS PERIOD   4



 STREAM LISTING     PERIOD      4   STEP        1

 LAYER ROW COL. STREAM  RCH.  FLOW INTO     FLOW TO   FLOW OUT OF   OVRLND.     DIRECT     STREAM       STREAM     STREAM     STREAM   STREAMBED  STREAMBED
                SEG.NO.  NO.  STRM. RCH.    AQUIFER    STRM. RCH.    RUNOFF     PRECIP       ET          HEAD       DEPTH      WIDTH   CONDCTNC.   GRADIENT

   1   13    1     1     1    1.0000E+05 -2.5598E+03   1.0256E+05  0.000E+00  0.000E+00  0.000E+00  4.84071E+01  1.458E-01  2.000E+01  2.000E+04 -1.280E-01
   1   13    2     1     2    1.0256E+05 -3.6333E+03   1.0619E+05  0.000E+00  0.000E+00  0.000E+00  4.79325E+01  1.484E-01  2.000E+01  2.000E+04 -1.817E-01
   1   14    3     1     3    1.0619E+05 -6.3144E+02   1.0682E+05  0.000E+00  0.000E+00  0.000E+00  4.74570E+01  1.502E-01  2.000E+01  2.000E+04 -3.157E-02
   1   15    4     1     4    1.0682E+05 -6.0483E+02   1.0743E+05  0.000E+00  0.000E+00  0.000E+00  4.69803E+01  1.508E-01  2.000E+01  2.000E+04 -3.024E-02
   1   16    5     1     5    1.0743E+05 -2.1729E+03   1.0960E+05  0.000E+00  0.000E+00  0.000E+00  4.65042E+01  1.519E-01  2.000E+01  2.000E+04 -1.086E-01
   1   16    6     1     6    1.0960E+05 -1.3675E+03   1.1097E+05  0.000E+00  0.000E+00  0.000E+00  4.60284E+01  1.534E-01  2.000E+01  2.000E+04 -6.837E-02
   1   16    7     1     7    1.1097E+05 -1.3439E+03   1.1231E+05  0.000E+00  0.000E+00  0.000E+00  4.55523E+01  1.545E-01  2.000E+01  2.000E+04 -6.719E-02
   1   16    8     1     8    1.1231E+05 -1.3387E+03   1.1365E+05  0.000E+00  0.000E+00  0.000E+00  4.50761E+01  1.556E-01  2.000E+01  2.000E+04 -6.693E-02
   1   16    9     1     9    1.1365E+05 -1.3272E+03   1.1498E+05  0.000E+00  0.000E+00  0.000E+00  4.45999E+01  1.567E-01  2.000E+01  2.000E+04 -6.636E-02
   1   16   10     1    10    1.1498E+05 -1.3089E+03   1.1629E+05  0.000E+00  0.000E+00  0.000E+00  4.41237E+01  1.578E-01  2.000E+01  2.000E+04 -6.544E-02
   1   16   11     1    11    1.1629E+05 -1.3120E+03   1.1760E+05  0.000E+00  0.000E+00  0.000E+00  4.36475E+01  1.589E-01  2.000E+01  2.000E+04 -6.560E-02
   1   16   12     1    12    1.1760E+05 -2.2982E+03   1.1990E+05  0.000E+00  0.000E+00  0.000E+00  4.31717E+01  1.604E-01  2.000E+01  2.000E+04 -1.149E-01
   1   15   13     1    13    1.1990E+05 -2.2908E+03   1.2219E+05  0.000E+00  0.000E+00  0.000E+00  4.26963E+01  1.622E-01  2.000E+01  2.000E+04 -1.145E-01
   1   14   14     1    14    1.2219E+05 -2.6426E+03   1.2483E+05  0.000E+00  0.000E+00  0.000E+00  4.22210E+01  1.642E-01  2.000E+01  2.000E+04 -1.321E-01
   1   13   15     1    15    1.2483E+05 -3.0097E+03   1.2784E+05  0.000E+00  0.000E+00  0.000E+00  4.17460E+01  1.664E-01  2.000E+01  2.000E+04 -1.505E-01
   1   12   16     1    16    1.2784E+05 -3.7891E+03   1.3163E+05  0.000E+00  0.000E+00  0.000E+00  4.12714E+01  1.691E-01  2.000E+01  2.000E+04 -1.895E-01
   1   12   17     1    17    1.3163E+05 -2.4512E+03   1.3408E+05  0.000E+00  0.000E+00  0.000E+00  4.07965E+01  1.715E-01  2.000E+01  2.000E+04 -1.226E-01
   1   12   18     1    18    1.3408E+05 -2.3235E+03   1.3641E+05  0.000E+00  0.000E+00  0.000E+00  4.03211E+01  1.734E-01  2.000E+01  2.000E+04 -1.162E-01
   1   12   19     1    19    1.3641E+05 -2.9747E+03   1.3938E+05  0.000E+00  0.000E+00  0.000E+00  3.98459E+01  1.754E-01  2.000E+01  2.000E+04 -1.487E-01
   1   13   20     1    20    1.3938E+05 -2.2280E+03   1.4161E+05  0.000E+00  0.000E+00  0.000E+00  3.93706E+01  1.774E-01  2.000E+01  2.000E+04 -1.114E-01
   1   14   21     1    21    1.4161E+05 -2.0114E+03   1.4362E+05  0.000E+00  0.000E+00  0.000E+00  3.88949E+01  1.790E-01  2.000E+01  2.000E+04 -1.006E-01
   1   14   22     1    22    1.4362E+05  4.9129E+03   1.3871E+05  0.000E+00  0.000E+00  0.000E+00  3.84165E+01  1.779E-01  2.000E+01  2.000E+04  2.456E-01
   1    9   30     2     1    5.0000E+04  1.2740E+03   4.8726E+04  0.000E+00  0.000E+00  0.000E+00  4.02400E+01  1.150E-01  2.000E+01  2.000E+04  6.370E-02
   1    9   29     2     2    4.8726E+04  8.8516E+02   4.7841E+04  0.000E+00  0.000E+00  0.000E+00  3.99885E+01  1.135E-01  2.000E+01  2.000E+04  4.426E-02
   1    9   28     2     3    4.7841E+04  9.4083E+01   4.7747E+04  0.000E+00  0.000E+00  0.000E+00  3.97378E+01  1.128E-01  2.000E+01  2.000E+04  4.704E-03
   1    9   27     2     4    4.7747E+04 -2.0263E+03   4.9773E+04  0.000E+00  0.000E+00  0.000E+00  3.94891E+01  1.141E-01  2.000E+01  2.000E+04 -1.013E-01
   1   10   26     2     5    4.9773E+04 -3.7354E+02   5.0147E+04  0.000E+00  0.000E+00  0.000E+00  3.92408E+01  1.158E-01  2.000E+01  2.000E+04 -1.868E-02
   1   11   25     2     6    5.0147E+04 -5.2846E+02   5.0675E+04  0.000E+00  0.000E+00  0.000E+00  3.89914E+01  1.164E-01  2.000E+01  2.000E+04 -2.642E-02
   1   12   24     2     7    5.0675E+04 -1.3599E+03   5.2035E+04  0.000E+00  0.000E+00  0.000E+00  3.87427E+01  1.177E-01  2.000E+01  2.000E+04 -6.800E-02
   1   13   23     2     8    5.2035E+04 -2.9772E+02   5.2333E+04  0.000E+00  0.000E+00  0.000E+00  3.84939E+01  1.189E-01  2.000E+01  2.000E+04 -1.489E-02
   1   14   22     2     9    5.2333E+04  1.4441E+03   5.0889E+04  0.000E+00  0.000E+00  0.000E+00  3.82431E+01  1.181E-01  2.000E+01  2.000E+04  7.221E-02
   1   14   22     3     1    1.8960E+05 -8.7342E+03   1.9833E+05  0.000E+00  0.000E+00  0.000E+00  3.77342E+01  1.786E-01  2.000E+01  2.000E+04 -4.367E-01
   1   15   23     3     2    1.9833E+05 -6.0499E+02   1.9893E+05  0.000E+00  0.000E+00  0.000E+00  3.68479E+01  1.812E-01  2.000E+01  2.000E+04 -3.025E-02
   1   15   24     3     3    1.9893E+05 -2.9564E+02   1.9923E+05  0.000E+00  0.000E+00  0.000E+00  3.59592E+01  1.814E-01  2.000E+01  2.000E+04 -1.478E-02
   1   15   25     3     4    1.9923E+05 -2.4002E+02   1.9947E+05  0.000E+00  0.000E+00  0.000E+00  3.50705E+01  1.816E-01  2.000E+01  2.000E+04 -1.200E-02
   1   15   26     3     5    1.9947E+05 -3.4256E+00   1.9947E+05  0.000E+00  0.000E+00  0.000E+00  3.41816E+01  1.816E-01  2.000E+01  2.000E+04 -1.713E-04
   1   16   27     3     6    1.9947E+05  3.7172E+02   1.9910E+05  0.000E+00  0.000E+00  0.000E+00  3.32927E+01  1.815E-01  2.000E+01  2.000E+04  1.859E-02
   1   17   28     3     7    1.9910E+05  1.0850E+04   1.8825E+05  0.000E+00  0.000E+00  0.000E+00  3.24007E+01  1.785E-01  2.000E+01  2.000E+04  5.425E-01
   1   18   29     3     8    1.8825E+05  1.1814E+04   1.7644E+05  0.000E+00  0.000E+00  0.000E+00  3.15055E+01  1.721E-01  2.000E+01  2.000E+04  5.907E-01
   1   18   30     3     9    1.7644E+05  2.7736E+03   1.7366E+05  0.000E+00  0.000E+00  0.000E+00  3.06124E+01  1.680E-01  2.000E+01  2.000E+04  1.387E-01



1
              HEAD IN LAYER   1 AT END OF TIME STEP   1 IN STRESS PERIOD    4
  ---------------------------------------------------------------------------

          1      2      3      4      5      6      7      8      9     10
         11     12     13     14     15     16     17     18     19     20
         21     22     23     24     25     26     27     28     29     30
 .........................................................................
   1  ****** ****** ****** ****** ****** ****** ****** ****** ****** ******
      ****** ****** ****** ****** ****** ****** ****** ****** ****** ******
      ****** ****** ****** ****** ****** ****** ****** ****** ****** ******
   2  ****** ****** ****** ****** ****** ****** ****** ****** ****** ******
      ****** ****** ****** ****** ****** ****** ****** ****** ****** ******
      ****** ****** ****** ****** ****** ****** ****** ****** ****** ******
   3  ****** ****** ****** ****** ****** ****** ****** ****** ****** ******
      ****** ****** ****** ****** ****** ****** ****** ****** ****** ******
      ****** ****** ****** ****** ****** ****** ****** ****** ****** ******
   4  ****** ****** ****** ****** ****** ****** ****** ****** ****** ******
      ****** ****** ****** ****** ****** ****** ****** ****** ****** ******
      ****** ****** ****** ****** ****** ****** ****** ****** ****** ******
   5  ****** ****** ****** ****** ****** ****** ****** ****** ****** ******
      ****** ****** ****** ****** ****** ****** ****** ****** ****** ******
      ****** ****** ****** ****** ****** ****** ****** ****** ****** ******
   6  ****** ****** ****** ****** ****** ****** ****** ****** ****** ******
      ****** ****** ****** ****** ****** ****** ****** ****** ****** ******
      ****** ****** ****** ****** ****** ****** ****** ****** ****** ******
   7  ****** ****** ****** ****** ****** ****** ****** ****** ****** ******
      ****** ****** ****** ****** ****** ****** ****** ****** ****** ******
      ****** ****** ****** ****** ****** ****** ****** ****** ****** ******
   8  ****** ****** ****** ****** ****** ****** ****** ****** ****** ******
      ****** ****** ****** ****** ****** ****** ****** ****** ****** ******
      ****** ****** ****** ****** ****** ****** ****** ****** ****** ******
   9  ****** ****** ****** ****** ****** ****** ****** ****** ****** ******
      ****** ****** ****** ****** ****** ****** ****** ****** ****** ******
      ****** ****** ****** ****** ****** ****** ****** ****** ****** ******
  10  ****** ****** ****** ****** ****** ****** ****** ****** ****** ******
      ****** ****** ****** ****** ****** ****** ****** ****** ****** ******
      ****** ****** ****** ****** ****** ****** ****** ****** ****** ******
  11  ****** ****** ****** ****** ****** ****** ****** ****** ****** ******
      ****** ****** ****** ****** ****** ****** ****** ****** ****** ******
      ****** ****** ****** ****** ****** ****** ****** ****** ****** ******
  12  ****** ****** ****** ****** ****** ****** ****** ****** ****** ******
      ****** ****** ****** ****** ****** ****** ****** ****** ****** ******
      ****** ****** ****** ****** ****** ****** ****** ****** ****** ******
  13  ****** ****** ****** ****** ****** ****** ****** ****** ****** ******
      ****** ****** ****** ****** ****** ****** ****** ****** ****** ******
      ****** ****** ****** ****** ****** ****** ****** ****** ****** ******
  14  ****** ****** ****** ****** ****** ****** ****** ****** ****** ******
      ****** ****** ****** ****** ****** ****** ****** ****** ****** ******
      ****** ****** ****** ****** ****** ****** ****** ****** ****** ******
  15  ****** ****** ****** ****** ****** ****** ****** ****** ****** ******
      ****** ****** ****** ****** ****** ****** ****** ****** ****** ******
      ****** ****** ****** ****** ****** ****** ****** ****** ****** ******
  16  ****** ****** ****** ****** ****** ****** ****** ****** ****** ******
      ****** ****** ****** ****** ****** ****** ****** ****** ****** ******
      ****** ****** ****** ****** ****** ****** ****** ****** ****** ******
  17  ****** ****** ****** ****** ****** ****** ****** ****** ****** ******
      ****** ****** ****** ****** ****** ****** ****** ****** ****** ******
      ****** ****** ****** ****** ****** ****** ****** ****** ****** ******
  18  ****** ****** ****** ****** ****** ****** ****** ****** ****** ******
      ****** ****** ****** ****** ****** ****** ****** ****** ****** ******
      ****** ****** ****** ****** ****** ****** ****** ****** ****** ******
  19  ****** ****** ****** ****** ****** ****** ****** ****** ****** ******
      ****** ****** ****** ****** ****** ****** ****** ****** ****** ******
      ****** ****** ****** ****** ****** ****** ****** ****** ****** ******
  20  ****** ****** ****** ****** ****** ****** ****** ****** ****** ******
      ****** ****** ****** ****** ****** ****** ****** ****** ****** ******
      ****** ****** ****** ****** ****** ****** ****** ****** ****** ******
  21  ****** ****** ****** ****** ****** ****** ****** ****** ****** ******
      ****** ****** ****** ****** ****** ****** ****** ****** ****** ******
      ****** ****** ****** ****** ****** ****** ****** ****** ****** ******
  22  ****** ****** ****** ****** ****** ****** ****** ****** ****** ******
      ****** ****** ****** ****** ****** ****** ****** ****** ****** ******
      ****** ****** ****** ****** ****** ****** ****** ****** ****** ******
  23  ****** ****** ****** ****** ****** ****** ****** ****** ****** ******
      ****** ****** ****** ****** ****** ****** ****** ****** ****** ******
      ****** ****** ****** ****** ****** ****** ****** ****** ****** ******
  24  ****** ****** ****** ****** ****** ****** ****** ****** ****** ******
      ****** ****** ****** ****** ****** ****** ****** ****** ****** ******
      ****** ****** ****** ****** ****** ****** ****** ****** ****** ******
  25  ****** ****** ****** ****** ****** ****** ****** ****** ****** ******
      ****** ****** ****** ****** ****** ****** ****** ****** ****** ******
      ****** ****** ****** ****** ****** ****** ****** ****** ****** ******

 HEAD WILL BE SAVED ON UNIT   51 AT END OF TIME STEP    1, STRESS PERIOD    4
1
  VOLUMETRIC BUDGET FOR ENTIRE MODEL AT END OF TIME STEP    1, STRESS PERIOD   4
  ------------------------------------------------------------------------------

     CUMULATIVE VOLUMES      L**3       RATES FOR THIS TIME STEP      L**3/T
     ------------------                 ------------------------

           IN:                                      IN:
           ---                                      ---
             STORAGE =    28309828.5087               STORAGE =       17190.3675
       CONSTANT HEAD =     7268514.9170         CONSTANT HEAD =       26889.0713
               WELLS =           0.0000                 WELLS =           0.0000
            RECHARGE =     8804400.0000              RECHARGE =       27600.0000
      STREAM LEAKAGE =     9837808.3798        STREAM LEAKAGE =       34419.6974

            TOTAL IN =    54220551.8055              TOTAL IN =      106099.1362

          OUT:                                     OUT:
          ----                                     ----
             STORAGE =         288.8496               STORAGE =           3.1742
       CONSTANT HEAD =           0.0000         CONSTANT HEAD =           0.0000
               WELLS =    17524460.4043                 WELLS =       48012.2203
            RECHARGE =           0.0000              RECHARGE =           0.0000
      STREAM LEAKAGE =    36695804.4779        STREAM LEAKAGE =       58083.7428

           TOTAL OUT =    54220553.7318             TOTAL OUT =      106099.1373

            IN - OUT =          -1.9262              IN - OUT =      -1.0875E-03

 PERCENT DISCREPANCY =          -0.00     PERCENT DISCREPANCY =          -0.00






         TIME SUMMARY AT END OF TIME STEP    1 IN STRESS PERIOD    4
                    SECONDS     MINUTES      HOURS       DAYS        YEARS
                    -----------------------------------------------------------
   TIME STEP LENGTH 7.86240E+06 1.31040E+05  2184.0      91.000     0.24914    
 STRESS PERIOD TIME 7.86240E+06 1.31040E+05  2184.0      91.000     0.24914    
         TOTAL TIME 3.15360E+07 5.25600E+05  8760.0      365.00     0.99932    
1
1
                            STRESS PERIOD NO.    5, LENGTH =   92.00000    
                            -----------------------------------------------

                              NUMBER OF TIME STEPS =     1

                               MULTIPLIER FOR DELT =     1.500

                            INITIAL TIME STEP SIZE =   92.00000    

 WELL NO.  LAYER   ROW   COL   STRESS RATE         
 --------------------------------------------------
      1      1     17     29     -0.1404E+05
      2      1     18     28     -0.1091E+05
      3      1     12     29     -0.1310E+05
      4      1     19     29      -9959.    

      4 WELLS

                 RECHARGE =  5.000000E-04

 REUSING STREAM SEGMENT DATA FROM LAST STRESS PERIOD
 
 SOLVING FOR HEAD 


     7 CALLS TO PCG ROUTINE FOR TIME STEP   1 IN STRESS PERIOD    5
    26 TOTAL ITERATIONS

 OUTPUT CONTROL FOR STRESS PERIOD    5   TIME STEP    1
    SAVE BUDGET
    SAVE HEAD FOR ALL LAYERS
    PRINT HEAD FOR ALL LAYERS
 UBDSV2 SAVING "STREAMFLOW OUT  " ON UNIT  50 AT TIME STEP  1, STRESS PERIOD   5



 STREAM LISTING     PERIOD      5   STEP        1

 LAYER ROW COL. STREAM  RCH.  FLOW INTO     FLOW TO   FLOW OUT OF   OVRLND.     DIRECT     STREAM       STREAM     STREAM     STREAM   STREAMBED  STREAMBED
                SEG.NO.  NO.  STRM. RCH.    AQUIFER    STRM. RCH.    RUNOFF     PRECIP       ET          HEAD       DEPTH      WIDTH   CONDCTNC.   GRADIENT

   1   13    1     1     1    1.0000E+05 -2.1579E+03   1.0216E+05  0.000E+00  0.000E+00  0.000E+00  4.84070E+01  1.456E-01  2.000E+01  2.000E+04 -1.079E-01
   1   13    2     1     2    1.0216E+05 -3.1790E+03   1.0534E+05  0.000E+00  0.000E+00  0.000E+00  4.79320E+01  1.479E-01  2.000E+01  2.000E+04 -1.590E-01
   1   14    3     1     3    1.0534E+05 -5.1112E+02   1.0585E+05  0.000E+00  0.000E+00  0.000E+00  4.74563E+01  1.495E-01  2.000E+01  2.000E+04 -2.556E-02
   1   15    4     1     4    1.0585E+05 -4.7774E+02   1.0633E+05  0.000E+00  0.000E+00  0.000E+00  4.69794E+01  1.499E-01  2.000E+01  2.000E+04 -2.389E-02
   1   16    5     1     5    1.0633E+05 -1.7465E+03   1.0807E+05  0.000E+00  0.000E+00  0.000E+00  4.65031E+01  1.508E-01  2.000E+01  2.000E+04 -8.733E-02
   1   16    6     1     6    1.0807E+05 -1.1184E+03   1.0919E+05  0.000E+00  0.000E+00  0.000E+00  4.60270E+01  1.520E-01  2.000E+01  2.000E+04 -5.592E-02
   1   16    7     1     7    1.0919E+05 -1.1054E+03   1.1030E+05  0.000E+00  0.000E+00  0.000E+00  4.55507E+01  1.530E-01  2.000E+01  2.000E+04 -5.527E-02
   1   16    8     1     8    1.1030E+05 -1.1040E+03   1.1140E+05  0.000E+00  0.000E+00  0.000E+00  4.50743E+01  1.539E-01  2.000E+01  2.000E+04 -5.520E-02
   1   16    9     1     9    1.1140E+05 -1.0956E+03   1.1250E+05  0.000E+00  0.000E+00  0.000E+00  4.45980E+01  1.548E-01  2.000E+01  2.000E+04 -5.478E-02
   1   16   10     1    10    1.1250E+05 -1.0806E+03   1.1358E+05  0.000E+00  0.000E+00  0.000E+00  4.41216E+01  1.557E-01  2.000E+01  2.000E+04 -5.403E-02
   1   16   11     1    11    1.1358E+05 -1.0832E+03   1.1466E+05  0.000E+00  0.000E+00  0.000E+00  4.36452E+01  1.566E-01  2.000E+01  2.000E+04 -5.416E-02
   1   16   12     1    12    1.1466E+05 -1.8898E+03   1.1655E+05  0.000E+00  0.000E+00  0.000E+00  4.31692E+01  1.578E-01  2.000E+01  2.000E+04 -9.449E-02
   1   15   13     1    13    1.1655E+05 -1.8644E+03   1.1841E+05  0.000E+00  0.000E+00  0.000E+00  4.26934E+01  1.593E-01  2.000E+01  2.000E+04 -9.322E-02
   1   14   14     1    14    1.1841E+05 -2.1922E+03   1.2061E+05  0.000E+00  0.000E+00  0.000E+00  4.22178E+01  1.610E-01  2.000E+01  2.000E+04 -1.096E-01
   1   13   15     1    15    1.2061E+05 -2.5458E+03   1.2315E+05  0.000E+00  0.000E+00  0.000E+00  4.17424E+01  1.629E-01  2.000E+01  2.000E+04 -1.273E-01
   1   12   16     1    16    1.2315E+05 -3.2868E+03   1.2644E+05  0.000E+00  0.000E+00  0.000E+00  4.12675E+01  1.652E-01  2.000E+01  2.000E+04 -1.643E-01
   1   12   17     1    17    1.2644E+05 -2.1118E+03   1.2855E+05  0.000E+00  0.000E+00  0.000E+00  4.07923E+01  1.673E-01  2.000E+01  2.000E+04 -1.056E-01
   1   12   18     1    18    1.2855E+05 -1.9998E+03   1.3055E+05  0.000E+00  0.000E+00  0.000E+00  4.03167E+01  1.690E-01  2.000E+01  2.000E+04 -9.999E-02
   1   12   19     1    19    1.3055E+05 -2.5835E+03   1.3313E+05  0.000E+00  0.000E+00  0.000E+00  3.98412E+01  1.707E-01  2.000E+01  2.000E+04 -1.292E-01
   1   13   20     1    20    1.3313E+05 -1.8804E+03   1.3501E+05  0.000E+00  0.000E+00  0.000E+00  3.93657E+01  1.725E-01  2.000E+01  2.000E+04 -9.402E-02
   1   14   21     1    21    1.3501E+05 -1.6334E+03   1.3665E+05  0.000E+00  0.000E+00  0.000E+00  3.88897E+01  1.738E-01  2.000E+01  2.000E+04 -8.167E-02
   1   14   22     1    22    1.3665E+05  4.9947E+03   1.3165E+05  0.000E+00  0.000E+00  0.000E+00  3.84112E+01  1.725E-01  2.000E+01  2.000E+04  2.497E-01
   1    9   30     2     1    5.0000E+04  1.5026E+03   4.8497E+04  0.000E+00  0.000E+00  0.000E+00  4.02398E+01  1.148E-01  2.000E+01  2.000E+04  7.513E-02
   1    9   29     2     2    4.8497E+04  1.1167E+03   4.7381E+04  0.000E+00  0.000E+00  0.000E+00  3.99880E+01  1.130E-01  2.000E+01  2.000E+04  5.584E-02
   1    9   28     2     3    4.7381E+04  3.3598E+02   4.7045E+04  0.000E+00  0.000E+00  0.000E+00  3.97369E+01  1.119E-01  2.000E+01  2.000E+04  1.680E-02
   1    9   27     2     4    4.7045E+04 -1.6503E+03   4.8695E+04  0.000E+00  0.000E+00  0.000E+00  3.94879E+01  1.129E-01  2.000E+01  2.000E+04 -8.251E-02
   1   10   26     2     5    4.8695E+04 -4.2265E+01   4.8737E+04  0.000E+00  0.000E+00  0.000E+00  3.92391E+01  1.141E-01  2.000E+01  2.000E+04 -2.113E-03
   1   11   25     2     6    4.8737E+04 -2.2402E+02   4.8961E+04  0.000E+00  0.000E+00  0.000E+00  3.89893E+01  1.143E-01  2.000E+01  2.000E+04 -1.120E-02
   1   12   24     2     7    4.8961E+04 -1.0832E+03   5.0044E+04  0.000E+00  0.000E+00  0.000E+00  3.87402E+01  1.152E-01  2.000E+01  2.000E+04 -5.416E-02
   1   13   23     2     8    5.0044E+04 -2.3041E+02   5.0275E+04  0.000E+00  0.000E+00  0.000E+00  3.84911E+01  1.161E-01  2.000E+01  2.000E+04 -1.152E-02
   1   14   22     2     9    5.0275E+04  1.5743E+03   4.8701E+04  0.000E+00  0.000E+00  0.000E+00  3.82402E+01  1.152E-01  2.000E+01  2.000E+04  7.871E-02
   1   14   22     3     1    1.8035E+05 -8.6488E+03   1.8900E+05  0.000E+00  0.000E+00  0.000E+00  3.77290E+01  1.734E-01  2.000E+01  2.000E+04 -4.324E-01
   1   15   23     3     2    1.8900E+05 -5.0469E+02   1.8951E+05  0.000E+00  0.000E+00  0.000E+00  3.68427E+01  1.760E-01  2.000E+01  2.000E+04 -2.523E-02
   1   15   24     3     3    1.8951E+05 -2.2142E+02   1.8973E+05  0.000E+00  0.000E+00  0.000E+00  3.59540E+01  1.762E-01  2.000E+01  2.000E+04 -1.107E-02
   1   15   25     3     4    1.8973E+05 -1.6586E+02   1.8989E+05  0.000E+00  0.000E+00  0.000E+00  3.50652E+01  1.763E-01  2.000E+01  2.000E+04 -8.293E-03
   1   15   26     3     5    1.8989E+05  7.2299E+01   1.8982E+05  0.000E+00  0.000E+00  0.000E+00  3.41763E+01  1.763E-01  2.000E+01  2.000E+04  3.615E-03
   1   16   27     3     6    1.8982E+05  4.6718E+02   1.8935E+05  0.000E+00  0.000E+00  0.000E+00  3.32873E+01  1.762E-01  2.000E+01  2.000E+04  2.336E-02
   1   17   28     3     7    1.8935E+05  1.1137E+04   1.7822E+05  0.000E+00  0.000E+00  0.000E+00  3.23952E+01  1.729E-01  2.000E+01  2.000E+04  5.568E-01
   1   18   29     3     8    1.7822E+05  1.2218E+04   1.6600E+05  0.000E+00  0.000E+00  0.000E+00  3.14996E+01  1.663E-01  2.000E+01  2.000E+04  6.109E-01
   1   18   30     3     9    1.6600E+05  3.0508E+03   1.6295E+05  0.000E+00  0.000E+00  0.000E+00  3.06062E+01  1.618E-01  2.000E+01  2.000E+04  1.525E-01



1
              HEAD IN LAYER   1 AT END OF TIME STEP   1 IN STRESS PERIOD    5
  ---------------------------------------------------------------------------

          1      2      3      4      5      6      7      8      9     10
         11     12     13     14     15     16     17     18     19     20
         21     22     23     24     25     26     27     28     29     30
 .........................................................................
   1  ****** ****** ****** ****** ****** ****** ****** ****** ****** ******
      ****** ****** ****** ****** ****** ****** ****** ****** ****** ******
      ****** ****** ****** ****** ****** ****** ****** ****** ****** ******
   2  ****** ****** ****** ****** ****** ****** ****** ****** ****** ******
      ****** ****** ****** ****** ****** ****** ****** ****** ****** ******
      ****** ****** ****** ****** ****** ****** ****** ****** ****** ******
   3  ****** ****** ****** ****** ****** ****** ****** ****** ****** ******
      ****** ****** ****** ****** ****** ****** ****** ****** ****** ******
      ****** ****** ****** ****** ****** ****** ****** ****** ****** ******
   4  ****** ****** ****** ****** ****** ****** ****** ****** ****** ******
      ****** ****** ****** ****** ****** ****** ****** ****** ****** ******
      ****** ****** ****** ****** ****** ****** ****** ****** ****** ******
   5  ****** ****** ****** ****** ****** ****** ****** ****** ****** ******
      ****** ****** ****** ****** ****** ****** ****** ****** ****** ******
      ****** ****** ****** ****** ****** ****** ****** ****** ****** ******
   6  ****** ****** ****** ****** ****** ****** ****** ****** ****** ******
      ****** ****** ****** ****** ****** ****** ****** ****** ****** ******
      ****** ****** ****** ****** ****** ****** ****** ****** ****** ******
   7  ****** ****** ****** ****** ****** ****** ****** ****** ****** ******
      ****** ****** ****** ****** ****** ****** ****** ****** ****** ******
      ****** ****** ****** ****** ****** ****** ****** ****** ****** ******
   8  ****** ****** ****** ****** ****** ****** ****** ****** ****** ******
      ****** ****** ****** ****** ****** ****** ****** ****** ****** ******
      ****** ****** ****** ****** ****** ****** ****** ****** ****** ******
   9  ****** ****** ****** ****** ****** ****** ****** ****** ****** ******
      ****** ****** ****** ****** ****** ****** ****** ****** ****** ******
      ****** ****** ****** ****** ****** ****** ****** ****** ****** ******
  10  ****** ****** ****** ****** ****** ****** ****** ****** ****** ******
      ****** ****** ****** ****** ****** ****** ****** ****** ****** ******
      ****** ****** ****** ****** ****** ****** ****** ****** ****** ******
  11  ****** ****** ****** ****** ****** ****** ****** ****** ****** ******
      ****** ****** ****** ****** ****** ****** ****** ****** ****** ******
      ****** ****** ****** ****** ****** ****** ****** ****** ****** ******
  12  ****** ****** ****** ****** ****** ****** ****** ****** ****** ******
      ****** ****** ****** ****** ****** ****** ****** ****** ****** ******
      ****** ****** ****** ****** ****** ****** ****** ****** ****** ******
  13  ****** ****** ****** ****** ****** ****** ****** ****** ****** ******
      ****** ****** ****** ****** ****** ****** ****** ****** ****** ******
      ****** ****** ****** ****** ****** ****** ****** ****** ****** ******
  14  ****** ****** ****** ****** ****** ****** ****** ****** ****** ******
      ****** ****** ****** ****** ****** ****** ****** ****** ****** ******
      ****** ****** ****** ****** ****** ****** ****** ****** ****** ******
  15  ****** ****** ****** ****** ****** ****** ****** ****** ****** ******
      ****** ****** ****** ****** ****** ****** ****** ****** ****** ******
      ****** ****** ****** ****** ****** ****** ****** ****** ****** ******
  16  ****** ****** ****** ****** ****** ****** ****** ****** ****** ******
      ****** ****** ****** ****** ****** ****** ****** ****** ****** ******
      ****** ****** ****** ****** ****** ****** ****** ****** ****** ******
  17  ****** ****** ****** ****** ****** ****** ****** ****** ****** ******
      ****** ****** ****** ****** ****** ****** ****** ****** ****** ******
      ****** ****** ****** ****** ****** ****** ****** ****** ****** ******
  18  ****** ****** ****** ****** ****** ****** ****** ****** ****** ******
      ****** ****** ****** ****** ****** ****** ****** ****** ****** ******
      ****** ****** ****** ****** ****** ****** ****** ****** ****** ******
  19  ****** ****** ****** ****** ****** ****** ****** ****** ****** ******
      ****** ****** ****** ****** ****** ****** ****** ****** ****** ******
      ****** ****** ****** ****** ****** ****** ****** ****** ****** ******
  20  ****** ****** ****** ****** ****** ****** ****** ****** ****** ******
      ****** ****** ****** ****** ****** ****** ****** ****** ****** ******
      ****** ****** ****** ****** ****** ****** ****** ****** ****** ******
  21  ****** ****** ****** ****** ****** ****** ****** ****** ****** ******
      ****** ****** ****** ****** ****** ****** ****** ****** ****** ******
      ****** ****** ****** ****** ****** ****** ****** ****** ****** ******
  22  ****** ****** ****** ****** ****** ****** ****** ****** ****** ******
      ****** ****** ****** ****** ****** ****** ****** ****** ****** ******
      ****** ****** ****** ****** ****** ****** ****** ****** ****** ******
  23  ****** ****** ****** ****** ****** ****** ****** ****** ****** ******
      ****** ****** ****** ****** ****** ****** ****** ****** ****** ******
      ****** ****** ****** ****** ****** ****** ****** ****** ****** ******
  24  ****** ****** ****** ****** ****** ****** ****** ****** ****** ******
      ****** ****** ****** ****** ****** ****** ****** ****** ****** ******
      ****** ****** ****** ****** ****** ****** ****** ****** ****** ******
  25  ****** ****** ****** ****** ****** ****** ****** ****** ****** ******
      ****** ****** ****** ****** ****** ****** ****** ****** ****** ******
      ****** ****** ****** ****** ****** ****** ****** ****** ****** ******

 HEAD WILL BE SAVED ON UNIT   51 AT END OF TIME STEP    1, STRESS PERIOD    5
1
  VOLUMETRIC BUDGET FOR ENTIRE MODEL AT END OF TIME STEP    1, STRESS PERIOD   5
  ------------------------------------------------------------------------------

     CUMULATIVE VOLUMES      L**3       RATES FOR THIS TIME STEP      L**3/T
     ------------------                 ------------------------

           IN:                                      IN:
           ---                                      ---
             STORAGE =    29917057.0492               STORAGE =       17469.8754
       CONSTANT HEAD =    10000148.3702         CONSTANT HEAD =       29691.6680
               WELLS =           0.0000                 WELLS =           0.0000
            RECHARGE =    10074000.0000              RECHARGE =       13800.0000
      STREAM LEAKAGE =    13192975.0443        STREAM LEAKAGE =       36469.2029

            TOTAL IN =    63184180.4638              TOTAL IN =       97430.7463

          OUT:                                     OUT:
          ----                                     ----
             STORAGE =         288.8496               STORAGE =           0.0000
       CONSTANT HEAD =           0.0000         CONSTANT HEAD =           0.0000
               WELLS =    21941584.6706                 WELLS =       48012.2203
            RECHARGE =           0.0000              RECHARGE =           0.0000
      STREAM LEAKAGE =    41242309.1274        STREAM LEAKAGE =       49418.5288

           TOTAL OUT =    63184182.6476             TOTAL OUT =       97430.7491

            IN - OUT =          -2.1838              IN - OUT =      -2.7994E-03

 PERCENT DISCREPANCY =          -0.00     PERCENT DISCREPANCY =          -0.00






         TIME SUMMARY AT END OF TIME STEP    1 IN STRESS PERIOD    5
                    SECONDS     MINUTES      HOURS       DAYS        YEARS
                    -----------------------------------------------------------
   TIME STEP LENGTH 7.94880E+06 1.32480E+05  2208.0      92.000     0.25188    
 STRESS PERIOD TIME 7.94880E+06 1.32480E+05  2208.0      92.000     0.25188    
         TOTAL TIME 3.94848E+07 6.58080E+05  10968.      457.00      1.2512    
1
1
                            STRESS PERIOD NO.    6, LENGTH =   91.00000    
                            -----------------------------------------------

                              NUMBER OF TIME STEPS =     1

                               MULTIPLIER FOR DELT =     1.500

                            INITIAL TIME STEP SIZE =   91.00000    

 WELL NO.  LAYER   ROW   COL   STRESS RATE         
 --------------------------------------------------
      1      1     17     29     -0.1404E+05
      2      1     18     28     -0.1091E+05
      3      1     12     29     -0.1310E+05
      4      1     19     29      -9959.    

      4 WELLS

                 RECHARGE =  2.000000E-03

 REUSING STREAM SEGMENT DATA FROM LAST STRESS PERIOD
 
 SOLVING FOR HEAD 


     7 CALLS TO PCG ROUTINE FOR TIME STEP   1 IN STRESS PERIOD    6
    26 TOTAL ITERATIONS

 OUTPUT CONTROL FOR STRESS PERIOD    6   TIME STEP    1
    SAVE BUDGET
    SAVE HEAD FOR ALL LAYERS
    PRINT HEAD FOR ALL LAYERS
 UBDSV2 SAVING "STREAMFLOW OUT  " ON UNIT  50 AT TIME STEP  1, STRESS PERIOD   6



 STREAM LISTING     PERIOD      6   STEP        1

 LAYER ROW COL. STREAM  RCH.  FLOW INTO     FLOW TO   FLOW OUT OF   OVRLND.     DIRECT     STREAM       STREAM     STREAM     STREAM   STREAMBED  STREAMBED
                SEG.NO.  NO.  STRM. RCH.    AQUIFER    STRM. RCH.    RUNOFF     PRECIP       ET          HEAD       DEPTH      WIDTH   CONDCTNC.   GRADIENT

   1   13    1     1     1    1.0000E+05 -2.4838E+03   1.0248E+05  0.000E+00  0.000E+00  0.000E+00  4.84071E+01  1.457E-01  2.000E+01  2.000E+04 -1.242E-01
   1   13    2     1     2    1.0248E+05 -3.5362E+03   1.0602E+05  0.000E+00  0.000E+00  0.000E+00  4.79324E+01  1.483E-01  2.000E+01  2.000E+04 -1.768E-01
   1   14    3     1     3    1.0602E+05 -6.6771E+02   1.0669E+05  0.000E+00  0.000E+00  0.000E+00  4.74569E+01  1.501E-01  2.000E+01  2.000E+04 -3.339E-02
   1   15    4     1     4    1.0669E+05 -6.4553E+02   1.0733E+05  0.000E+00  0.000E+00  0.000E+00  4.69802E+01  1.507E-01  2.000E+01  2.000E+04 -3.228E-02
   1   16    5     1     5    1.0733E+05 -2.2460E+03   1.0958E+05  0.000E+00  0.000E+00  0.000E+00  4.65041E+01  1.519E-01  2.000E+01  2.000E+04 -1.123E-01
   1   16    6     1     6    1.0958E+05 -1.4119E+03   1.1099E+05  0.000E+00  0.000E+00  0.000E+00  4.60284E+01  1.534E-01  2.000E+01  2.000E+04 -7.059E-02
   1   16    7     1     7    1.1099E+05 -1.3837E+03   1.1237E+05  0.000E+00  0.000E+00  0.000E+00  4.55523E+01  1.546E-01  2.000E+01  2.000E+04 -6.918E-02
   1   16    8     1     8    1.1237E+05 -1.3778E+03   1.1375E+05  0.000E+00  0.000E+00  0.000E+00  4.50762E+01  1.557E-01  2.000E+01  2.000E+04 -6.889E-02
   1   16    9     1     9    1.1375E+05 -1.3689E+03   1.1512E+05  0.000E+00  0.000E+00  0.000E+00  4.46000E+01  1.568E-01  2.000E+01  2.000E+04 -6.844E-02
   1   16   10     1    10    1.1512E+05 -1.3554E+03   1.1648E+05  0.000E+00  0.000E+00  0.000E+00  4.41239E+01  1.580E-01  2.000E+01  2.000E+04 -6.777E-02
   1   16   11     1    11    1.1648E+05 -1.3611E+03   1.1784E+05  0.000E+00  0.000E+00  0.000E+00  4.36477E+01  1.591E-01  2.000E+01  2.000E+04 -6.805E-02
   1   16   12     1    12    1.1784E+05 -2.3393E+03   1.2018E+05  0.000E+00  0.000E+00  0.000E+00  4.31719E+01  1.606E-01  2.000E+01  2.000E+04 -1.170E-01
   1   15   13     1    13    1.2018E+05 -2.3267E+03   1.2250E+05  0.000E+00  0.000E+00  0.000E+00  4.26965E+01  1.625E-01  2.000E+01  2.000E+04 -1.163E-01
   1   14   14     1    14    1.2250E+05 -2.6521E+03   1.2516E+05  0.000E+00  0.000E+00  0.000E+00  4.22213E+01  1.644E-01  2.000E+01  2.000E+04 -1.326E-01
   1   13   15     1    15    1.2516E+05 -2.9888E+03   1.2814E+05  0.000E+00  0.000E+00  0.000E+00  4.17462E+01  1.667E-01  2.000E+01  2.000E+04 -1.494E-01
   1   12   16     1    16    1.2814E+05 -3.6883E+03   1.3183E+05  0.000E+00  0.000E+00  0.000E+00  4.12716E+01  1.693E-01  2.000E+01  2.000E+04 -1.844E-01
   1   12   17     1    17    1.3183E+05 -2.4350E+03   1.3427E+05  0.000E+00  0.000E+00  0.000E+00  4.07967E+01  1.717E-01  2.000E+01  2.000E+04 -1.217E-01
   1   12   18     1    18    1.3427E+05 -2.3257E+03   1.3659E+05  0.000E+00  0.000E+00  0.000E+00  4.03212E+01  1.735E-01  2.000E+01  2.000E+04 -1.163E-01
   1   12   19     1    19    1.3659E+05 -2.9888E+03   1.3958E+05  0.000E+00  0.000E+00  0.000E+00  3.98460E+01  1.756E-01  2.000E+01  2.000E+04 -1.494E-01
   1   13   20     1    20    1.3958E+05 -2.3075E+03   1.4189E+05  0.000E+00  0.000E+00  0.000E+00  3.93708E+01  1.776E-01  2.000E+01  2.000E+04 -1.154E-01
   1   14   21     1    21    1.4189E+05 -2.0463E+03   1.4394E+05  0.000E+00  0.000E+00  0.000E+00  3.88951E+01  1.792E-01  2.000E+01  2.000E+04 -1.023E-01
   1   14   22     1    22    1.4394E+05  4.8844E+03   1.3905E+05  0.000E+00  0.000E+00  0.000E+00  3.84168E+01  1.781E-01  2.000E+01  2.000E+04  2.442E-01
   1    9   30     2     1    5.0000E+04  1.1358E+03   4.8864E+04  0.000E+00  0.000E+00  0.000E+00  4.02401E+01  1.151E-01  2.000E+01  2.000E+04  5.679E-02
   1    9   29     2     2    4.8864E+04  7.5403E+02   4.8110E+04  0.000E+00  0.000E+00  0.000E+00  3.99887E+01  1.137E-01  2.000E+01  2.000E+04  3.770E-02
   1    9   28     2     3    4.8110E+04 -2.0687E+01   4.8131E+04  0.000E+00  0.000E+00  0.000E+00  3.97382E+01  1.132E-01  2.000E+01  2.000E+04 -1.034E-03
   1    9   27     2     4    4.8131E+04 -2.1048E+03   5.0236E+04  0.000E+00  0.000E+00  0.000E+00  3.94897E+01  1.147E-01  2.000E+01  2.000E+04 -1.052E-01
   1   10   26     2     5    5.0236E+04 -5.1870E+02   5.0754E+04  0.000E+00  0.000E+00  0.000E+00  3.92416E+01  1.166E-01  2.000E+01  2.000E+04 -2.594E-02
   1   11   25     2     6    5.0754E+04 -6.8506E+02   5.1439E+04  0.000E+00  0.000E+00  0.000E+00  3.89924E+01  1.174E-01  2.000E+01  2.000E+04 -3.425E-02
   1   12   24     2     7    5.1439E+04 -1.4994E+03   5.2939E+04  0.000E+00  0.000E+00  0.000E+00  3.87439E+01  1.189E-01  2.000E+01  2.000E+04 -7.497E-02
   1   13   23     2     8    5.2939E+04 -3.6917E+02   5.3308E+04  0.000E+00  0.000E+00  0.000E+00  3.84952E+01  1.202E-01  2.000E+01  2.000E+04 -1.846E-02
   1   14   22     2     9    5.3308E+04  1.4374E+03   5.1871E+04  0.000E+00  0.000E+00  0.000E+00  3.82444E+01  1.194E-01  2.000E+01  2.000E+04  7.187E-02
   1   14   22     3     1    1.9092E+05 -8.7529E+03   1.9968E+05  0.000E+00  0.000E+00  0.000E+00  3.77349E+01  1.794E-01  2.000E+01  2.000E+04 -4.376E-01
   1   15   23     3     2    1.9968E+05 -6.4146E+02   2.0032E+05  0.000E+00  0.000E+00  0.000E+00  3.68486E+01  1.819E-01  2.000E+01  2.000E+04 -3.207E-02
   1   15   24     3     3    2.0032E+05 -3.4267E+02   2.0066E+05  0.000E+00  0.000E+00  0.000E+00  3.59600E+01  1.822E-01  2.000E+01  2.000E+04 -1.713E-02
   1   15   25     3     4    2.0066E+05 -2.9141E+02   2.0095E+05  0.000E+00  0.000E+00  0.000E+00  3.50713E+01  1.824E-01  2.000E+01  2.000E+04 -1.457E-02
   1   15   26     3     5    2.0095E+05 -7.8109E+01   2.0103E+05  0.000E+00  0.000E+00  0.000E+00  3.41825E+01  1.825E-01  2.000E+01  2.000E+04 -3.905E-03
   1   16   27     3     6    2.0103E+05  2.9984E+02   2.0073E+05  0.000E+00  0.000E+00  0.000E+00  3.32935E+01  1.824E-01  2.000E+01  2.000E+04  1.499E-02
   1   17   28     3     7    2.0073E+05  1.0679E+04   1.9005E+05  0.000E+00  0.000E+00  0.000E+00  3.24016E+01  1.794E-01  2.000E+01  2.000E+04  5.340E-01
   1   18   29     3     8    1.9005E+05  1.1786E+04   1.7826E+05  0.000E+00  0.000E+00  0.000E+00  3.15065E+01  1.731E-01  2.000E+01  2.000E+04  5.893E-01
   1   18   30     3     9    1.7826E+05  2.7004E+03   1.7556E+05  0.000E+00  0.000E+00  0.000E+00  3.06135E+01  1.690E-01  2.000E+01  2.000E+04  1.350E-01



1
              HEAD IN LAYER   1 AT END OF TIME STEP   1 IN STRESS PERIOD    6
  ---------------------------------------------------------------------------

          1      2      3      4      5      6      7      8      9     10
         11     12     13     14     15     16     17     18     19     20
         21     22     23     24     25     26     27     28     29     30
 .........................................................................
   1  ****** ****** ****** ****** ****** ****** ****** ****** ****** ******
      ****** ****** ****** ****** ****** ****** ****** ****** ****** ******
      ****** ****** ****** ****** ****** ****** ****** ****** ****** ******
   2  ****** ****** ****** ****** ****** ****** ****** ****** ****** ******
      ****** ****** ****** ****** ****** ****** ****** ****** ****** ******
      ****** ****** ****** ****** ****** ****** ****** ****** ****** ******
   3  ****** ****** ****** ****** ****** ****** ****** ****** ****** ******
      ****** ****** ****** ****** ****** ****** ****** ****** ****** ******
      ****** ****** ****** ****** ****** ****** ****** ****** ****** ******
   4  ****** ****** ****** ****** ****** ****** ****** ****** ****** ******
      ****** ****** ****** ****** ****** ****** ****** ****** ****** ******
      ****** ****** ****** ****** ****** ****** ****** ****** ****** ******
   5  ****** ****** ****** ****** ****** ****** ****** ****** ****** ******
      ****** ****** ****** ****** ****** ****** ****** ****** ****** ******
      ****** ****** ****** ****** ****** ****** ****** ****** ****** ******
   6  ****** ****** ****** ****** ****** ****** ****** ****** ****** ******
      ****** ****** ****** ****** ****** ****** ****** ****** ****** ******
      ****** ****** ****** ****** ****** ****** ****** ****** ****** ******
   7  ****** ****** ****** ****** ****** ****** ****** ****** ****** ******
      ****** ****** ****** ****** ****** ****** ****** ****** ****** ******
      ****** ****** ****** ****** ****** ****** ****** ****** ****** ******
   8  ****** ****** ****** ****** ****** ****** ****** ****** ****** ******
      ****** ****** ****** ****** ****** ****** ****** ****** ****** ******
      ****** ****** ****** ****** ****** ****** ****** ****** ****** ******
   9  ****** ****** ****** ****** ****** ****** ****** ****** ****** ******
      ****** ****** ****** ****** ****** ****** ****** ****** ****** ******
      ****** ****** ****** ****** ****** ****** ****** ****** ****** ******
  10  ****** ****** ****** ****** ****** ****** ****** ****** ****** ******
      ****** ****** ****** ****** ****** ****** ****** ****** ****** ******
      ****** ****** ****** ****** ****** ****** ****** ****** ****** ******
  11  ****** ****** ****** ****** ****** ****** ****** ****** ****** ******
      ****** ****** ****** ****** ****** ****** ****** ****** ****** ******
      ****** ****** ****** ****** ****** ****** ****** ****** ****** ******
  12  ****** ****** ****** ****** ****** ****** ****** ****** ****** ******
      ****** ****** ****** ****** ****** ****** ****** ****** ****** ******
      ****** ****** ****** ****** ****** ****** ****** ****** ****** ******
  13  ****** ****** ****** ****** ****** ****** ****** ****** ****** ******
      ****** ****** ****** ****** ****** ****** ****** ****** ****** ******
      ****** ****** ****** ****** ****** ****** ****** ****** ****** ******
  14  ****** ****** ****** ****** ****** ****** ****** ****** ****** ******
      ****** ****** ****** ****** ****** ****** ****** ****** ****** ******
      ****** ****** ****** ****** ****** ****** ****** ****** ****** ******
  15  ****** ****** ****** ****** ****** ****** ****** ****** ****** ******
      ****** ****** ****** ****** ****** ****** ****** ****** ****** ******
      ****** ****** ****** ****** ****** ****** ****** ****** ****** ******
  16  ****** ****** ****** ****** ****** ****** ****** ****** ****** ******
      ****** ****** ****** ****** ****** ****** ****** ****** ****** ******
      ****** ****** ****** ****** ****** ****** ****** ****** ****** ******
  17  ****** ****** ****** ****** ****** ****** ****** ****** ****** ******
      ****** ****** ****** ****** ****** ****** ****** ****** ****** ******
      ****** ****** ****** ****** ****** ****** ****** ****** ****** ******
  18  ****** ****** ****** ****** ****** ****** ****** ****** ****** ******
      ****** ****** ****** ****** ****** ****** ****** ****** ****** ******
      ****** ****** ****** ****** ****** ****** ****** ****** ****** ******
  19  ****** ****** ****** ****** ****** ****** ****** ****** ****** ******
      ****** ****** ****** ****** ****** ****** ****** ****** ****** ******
      ****** ****** ****** ****** ****** ****** ****** ****** ****** ******
  20  ****** ****** ****** ****** ****** ****** ****** ****** ****** ******
      ****** ****** ****** ****** ****** ****** ****** ****** ****** ******
      ****** ****** ****** ****** ****** ****** ****** ****** ****** ******
  21  ****** ****** ****** ****** ****** ****** ****** ****** ****** ******
      ****** ****** ****** ****** ****** ****** ****** ****** ****** ******
      ****** ****** ****** ****** ****** ****** ****** ****** ****** ******
  22  ****** ****** ****** ****** ****** ****** ****** ****** ****** ******
      ****** ****** ****** ****** ****** ****** ****** ****** ****** ******
      ****** ****** ****** ****** ****** ****** ****** ****** ****** ******
  23  ****** ****** ****** ****** ****** ****** ****** ****** ****** ******
      ****** ****** ****** ****** ****** ****** ****** ****** ****** ******
      ****** ****** ****** ****** ****** ****** ****** ****** ****** ******
  24  ****** ****** ****** ****** ****** ****** ****** ****** ****** ******
      ****** ****** ****** ****** ****** ****** ****** ****** ****** ******
      ****** ****** ****** ****** ****** ****** ****** ****** ****** ******
  25  ****** ****** ****** ****** ****** ****** ****** ****** ****** ******
      ****** ****** ****** ****** ****** ****** ****** ****** ****** ******
      ****** ****** ****** ****** ****** ****** ****** ****** ****** ******

 HEAD WILL BE SAVED ON UNIT   51 AT END OF TIME STEP    1, STRESS PERIOD    6
1
  VOLUMETRIC BUDGET FOR ENTIRE MODEL AT END OF TIME STEP    1, STRESS PERIOD   6
  ------------------------------------------------------------------------------

     CUMULATIVE VOLUMES      L**3       RATES FOR THIS TIME STEP      L**3/T
     ------------------                 ------------------------

           IN:                                      IN:
           ---                                      ---
             STORAGE =    29917057.0492               STORAGE =           0.0000
       CONSTANT HEAD =    12521718.4016         CONSTANT HEAD =       27709.5608
               WELLS =           0.0000                 WELLS =           0.0000
            RECHARGE =    15097200.0000              RECHARGE =       55200.0000
      STREAM LEAKAGE =    16257620.3457        STREAM LEAKAGE =       33677.4209

            TOTAL IN =    73793595.7966              TOTAL IN =      116586.9817

          OUT:                                     OUT:
          ----                                     ----
             STORAGE =      849679.0658               STORAGE =        9333.9584
       CONSTANT HEAD =           0.0000         CONSTANT HEAD =           0.0000
               WELLS =    26310696.7166                 WELLS =       48012.2203
            RECHARGE =           0.0000              RECHARGE =           0.0000
      STREAM LEAKAGE =    46633221.9477        STREAM LEAKAGE =       59240.8002

           TOTAL OUT =    73793597.7301             TOTAL OUT =      116586.9789

            IN - OUT =          -1.9335              IN - OUT =       2.7506E-03

 PERCENT DISCREPANCY =          -0.00     PERCENT DISCREPANCY =           0.00






         TIME SUMMARY AT END OF TIME STEP    1 IN STRESS PERIOD    6
                    SECONDS     MINUTES      HOURS       DAYS        YEARS
                    -----------------------------------------------------------
   TIME STEP LENGTH 7.86240E+06 1.31040E+05  2184.0      91.000     0.24914    
 STRESS PERIOD TIME 7.86240E+06 1.31040E+05  2184.0      91.000     0.24914    
         TOTAL TIME 4.73472E+07 7.89120E+05  13152.      548.00      1.5003    
1
1
                            STRESS PERIOD NO.    7, LENGTH =   91.00000    
                            -----------------------------------------------

                              NUMBER OF TIME STEPS =     1

                               MULTIPLIER FOR DELT =     1.500

                            INITIAL TIME STEP SIZE =   91.00000    

 WELL NO.  LAYER   ROW   COL   STRESS RATE         
 --------------------------------------------------
      1      1     17     29     -0.1404E+05
      2      1     18     28     -0.1091E+05
      3      1     12     29     -0.1310E+05
      4      1     19     29      -9959.    

      4 WELLS

                 RECHARGE =   0.00000    

 REUSING STREAM SEGMENT DATA FROM LAST STRESS PERIOD
 
 SOLVING FOR HEAD 


     7 CALLS TO PCG ROUTINE FOR TIME STEP   1 IN STRESS PERIOD    7
    26 TOTAL ITERATIONS

 OUTPUT CONTROL FOR STRESS PERIOD    7   TIME STEP    1
    SAVE BUDGET
    SAVE HEAD FOR ALL LAYERS
    PRINT HEAD FOR ALL LAYERS
 UBDSV2 SAVING "STREAMFLOW OUT  " ON UNIT  50 AT TIME STEP  1, STRESS PERIOD   7



 STREAM LISTING     PERIOD      7   STEP        1

 LAYER ROW COL. STREAM  RCH.  FLOW INTO     FLOW TO   FLOW OUT OF   OVRLND.     DIRECT     STREAM       STREAM     STREAM     STREAM   STREAMBED  STREAMBED
                SEG.NO.  NO.  STRM. RCH.    AQUIFER    STRM. RCH.    RUNOFF     PRECIP       ET          HEAD       DEPTH      WIDTH   CONDCTNC.   GRADIENT

   1   13    1     1     1    1.0000E+05 -1.8268E+03   1.0183E+05  0.000E+00  0.000E+00  0.000E+00  4.84068E+01  1.454E-01  2.000E+01  2.000E+04 -9.134E-02
   1   13    2     1     2    1.0183E+05 -2.8014E+03   1.0463E+05  0.000E+00  0.000E+00  0.000E+00  4.79315E+01  1.474E-01  2.000E+01  2.000E+04 -1.401E-01
   1   14    3     1     3    1.0463E+05 -4.1721E+02   1.0505E+05  0.000E+00  0.000E+00  0.000E+00  4.74556E+01  1.488E-01  2.000E+01  2.000E+04 -2.086E-02
   1   15    4     1     4    1.0505E+05 -3.8402E+02   1.0543E+05  0.000E+00  0.000E+00  0.000E+00  4.69787E+01  1.492E-01  2.000E+01  2.000E+04 -1.920E-02
   1   16    5     1     5    1.0543E+05 -1.4946E+03   1.0692E+05  0.000E+00  0.000E+00  0.000E+00  4.65022E+01  1.499E-01  2.000E+01  2.000E+04 -7.473E-02
   1   16    6     1     6    1.0692E+05 -9.5902E+02   1.0788E+05  0.000E+00  0.000E+00  0.000E+00  4.60260E+01  1.510E-01  2.000E+01  2.000E+04 -4.795E-02
   1   16    7     1     7    1.0788E+05 -9.4925E+02   1.0883E+05  0.000E+00  0.000E+00  0.000E+00  4.55495E+01  1.518E-01  2.000E+01  2.000E+04 -4.746E-02
   1   16    8     1     8    1.0883E+05 -9.4929E+02   1.0978E+05  0.000E+00  0.000E+00  0.000E+00  4.50730E+01  1.526E-01  2.000E+01  2.000E+04 -4.746E-02
   1   16    9     1     9    1.0978E+05 -9.4344E+02   1.1073E+05  0.000E+00  0.000E+00  0.000E+00  4.45966E+01  1.534E-01  2.000E+01  2.000E+04 -4.717E-02
   1   16   10     1    10    1.1073E+05 -9.3221E+02   1.1166E+05  0.000E+00  0.000E+00  0.000E+00  4.41201E+01  1.542E-01  2.000E+01  2.000E+04 -4.661E-02
   1   16   11     1    11    1.1166E+05 -9.3639E+02   1.1259E+05  0.000E+00  0.000E+00  0.000E+00  4.36436E+01  1.549E-01  2.000E+01  2.000E+04 -4.682E-02
   1   16   12     1    12    1.1259E+05 -1.6261E+03   1.1422E+05  0.000E+00  0.000E+00  0.000E+00  4.31674E+01  1.560E-01  2.000E+01  2.000E+04 -8.130E-02
   1   15   13     1    13    1.1422E+05 -1.5638E+03   1.1578E+05  0.000E+00  0.000E+00  0.000E+00  4.26914E+01  1.573E-01  2.000E+01  2.000E+04 -7.819E-02
   1   14   14     1    14    1.1578E+05 -1.8632E+03   1.1765E+05  0.000E+00  0.000E+00  0.000E+00  4.22155E+01  1.587E-01  2.000E+01  2.000E+04 -9.316E-02
   1   13   15     1    15    1.1765E+05 -2.1996E+03   1.1985E+05  0.000E+00  0.000E+00  0.000E+00  4.17399E+01  1.604E-01  2.000E+01  2.000E+04 -1.100E-01
   1   12   16     1    16    1.1985E+05 -2.9088E+03   1.2276E+05  0.000E+00  0.000E+00  0.000E+00  4.12647E+01  1.624E-01  2.000E+01  2.000E+04 -1.454E-01
   1   12   17     1    17    1.2276E+05 -1.8656E+03   1.2462E+05  0.000E+00  0.000E+00  0.000E+00  4.07893E+01  1.643E-01  2.000E+01  2.000E+04 -9.328E-02
   1   12   18     1    18    1.2462E+05 -1.7695E+03   1.2639E+05  0.000E+00  0.000E+00  0.000E+00  4.03135E+01  1.658E-01  2.000E+01  2.000E+04 -8.847E-02
   1   12   19     1    19    1.2639E+05 -2.3093E+03   1.2870E+05  0.000E+00  0.000E+00  0.000E+00  3.98378E+01  1.674E-01  2.000E+01  2.000E+04 -1.155E-01
   1   13   20     1    20    1.2870E+05 -1.6415E+03   1.3034E+05  0.000E+00  0.000E+00  0.000E+00  3.93621E+01  1.689E-01  2.000E+01  2.000E+04 -8.208E-02
   1   14   21     1    21    1.3034E+05 -1.3865E+03   1.3173E+05  0.000E+00  0.000E+00  0.000E+00  3.88860E+01  1.701E-01  2.000E+01  2.000E+04 -6.933E-02
   1   14   22     1    22    1.3173E+05  5.0471E+03   1.2668E+05  0.000E+00  0.000E+00  0.000E+00  3.84073E+01  1.687E-01  2.000E+01  2.000E+04  2.524E-01
   1    9   30     2     1    5.0000E+04  1.6473E+03   4.8353E+04  0.000E+00  0.000E+00  0.000E+00  4.02397E+01  1.147E-01  2.000E+01  2.000E+04  8.237E-02
   1    9   29     2     2    4.8353E+04  1.2636E+03   4.7089E+04  0.000E+00  0.000E+00  0.000E+00  3.99877E+01  1.127E-01  2.000E+01  2.000E+04  6.318E-02
   1    9   28     2     3    4.7089E+04  4.8975E+02   4.6599E+04  0.000E+00  0.000E+00  0.000E+00  3.97364E+01  1.114E-01  2.000E+01  2.000E+04  2.449E-02
   1    9   27     2     4    4.6599E+04 -1.4132E+03   4.8013E+04  0.000E+00  0.000E+00  0.000E+00  3.94871E+01  1.121E-01  2.000E+01  2.000E+04 -7.066E-02
   1   10   26     2     5    4.8013E+04  1.7595E+02   4.7837E+04  0.000E+00  0.000E+00  0.000E+00  3.92380E+01  1.130E-01  2.000E+01  2.000E+04  8.798E-03
   1   11   25     2     6    4.7837E+04 -1.8719E+01   4.7855E+04  0.000E+00  0.000E+00  0.000E+00  3.89878E+01  1.128E-01  2.000E+01  2.000E+04 -9.359E-04
   1   12   24     2     7    4.7855E+04 -8.9220E+02   4.8748E+04  0.000E+00  0.000E+00  0.000E+00  3.87385E+01  1.135E-01  2.000E+01  2.000E+04 -4.461E-02
   1   13   23     2     8    4.8748E+04 -1.7800E+02   4.8926E+04  0.000E+00  0.000E+00  0.000E+00  3.84892E+01  1.142E-01  2.000E+01  2.000E+04 -8.900E-03
   1   14   22     2     9    4.8926E+04  1.6645E+03   4.7261E+04  0.000E+00  0.000E+00  0.000E+00  3.82382E+01  1.132E-01  2.000E+01  2.000E+04  8.322E-02
   1   14   22     3     1    1.7394E+05 -8.5926E+03   1.8253E+05  0.000E+00  0.000E+00  0.000E+00  3.77253E+01  1.698E-01  2.000E+01  2.000E+04 -4.296E-01
   1   15   23     3     2    1.8253E+05 -4.3515E+02   1.8297E+05  0.000E+00  0.000E+00  0.000E+00  3.68390E+01  1.724E-01  2.000E+01  2.000E+04 -2.176E-02
   1   15   24     3     3    1.8297E+05 -1.6895E+02   1.8314E+05  0.000E+00  0.000E+00  0.000E+00  3.59503E+01  1.725E-01  2.000E+01  2.000E+04 -8.448E-03
   1   15   25     3     4    1.8314E+05 -1.1454E+02   1.8325E+05  0.000E+00  0.000E+00  0.000E+00  3.50615E+01  1.726E-01  2.000E+01  2.000E+04 -5.727E-03
   1   15   26     3     5    1.8325E+05  1.2331E+02   1.8313E+05  0.000E+00  0.000E+00  0.000E+00  3.41726E+01  1.726E-01  2.000E+01  2.000E+04  6.165E-03
   1   16   27     3     6    1.8313E+05  5.3247E+02   1.8260E+05  0.000E+00  0.000E+00  0.000E+00  3.32835E+01  1.724E-01  2.000E+01  2.000E+04  2.662E-02
   1   17   28     3     7    1.8260E+05  1.1322E+04   1.7128E+05  0.000E+00  0.000E+00  0.000E+00  3.23913E+01  1.690E-01  2.000E+01  2.000E+04  5.661E-01
   1   18   29     3     8    1.7128E+05  1.2474E+04   1.5880E+05  0.000E+00  0.000E+00  0.000E+00  3.14955E+01  1.621E-01  2.000E+01  2.000E+04  6.237E-01
   1   18   30     3     9    1.5880E+05  3.2296E+03   1.5557E+05  0.000E+00  0.000E+00  0.000E+00  3.06019E+01  1.575E-01  2.000E+01  2.000E+04  1.615E-01



1
              HEAD IN LAYER   1 AT END OF TIME STEP   1 IN STRESS PERIOD    7
  ---------------------------------------------------------------------------

          1      2      3      4      5      6      7      8      9     10
         11     12     13     14     15     16     17     18     19     20
         21     22     23     24     25     26     27     28     29     30
 .........................................................................
   1  ****** ****** ****** ****** ****** ****** ****** ****** ****** ******
      ****** ****** ****** ****** ****** ****** ****** ****** ****** ******
      ****** ****** ****** ****** ****** ****** ****** ****** ****** ******
   2  ****** ****** ****** ****** ****** ****** ****** ****** ****** ******
      ****** ****** ****** ****** ****** ****** ****** ****** ****** ******
      ****** ****** ****** ****** ****** ****** ****** ****** ****** ******
   3  ****** ****** ****** ****** ****** ****** ****** ****** ****** ******
      ****** ****** ****** ****** ****** ****** ****** ****** ****** ******
      ****** ****** ****** ****** ****** ****** ****** ****** ****** ******
   4  ****** ****** ****** ****** ****** ****** ****** ****** ****** ******
      ****** ****** ****** ****** ****** ****** ****** ****** ****** ******
      ****** ****** ****** ****** ****** ****** ****** ****** ****** ******
   5  ****** ****** ****** ****** ****** ****** ****** ****** ****** ******
      ****** ****** ****** ****** ****** ****** ****** ****** ****** ******
      ****** ****** ****** ****** ****** ****** ****** ****** ****** ******
   6  ****** ****** ****** ****** ****** ****** ****** ****** ****** ******
      ****** ****** ****** ****** ****** ****** ****** ****** ****** ******
      ****** ****** ****** ****** ****** ****** ****** ****** ****** ******
   7  ****** ****** ****** ****** ****** ****** ****** ****** ****** ******
      ****** ****** ****** ****** ****** ****** ****** ****** ****** ******
      ****** ****** ****** ****** ****** ****** ****** ****** ****** ******
   8  ****** ****** ****** ****** ****** ****** ****** ****** ****** ******
      ****** ****** ****** ****** ****** ****** ****** ****** ****** ******
      ****** ****** ****** ****** ****** ****** ****** ****** ****** ******
   9  ****** ****** ****** ****** ****** ****** ****** ****** ****** ******
      ****** ****** ****** ****** ****** ****** ****** ****** ****** ******
      ****** ****** ****** ****** ****** ****** ****** ****** ****** ******
  10  ****** ****** ****** ****** ****** ****** ****** ****** ****** ******
      ****** ****** ****** ****** ****** ****** ****** ****** ****** ******
      ****** ****** ****** ****** ****** ****** ****** ****** ****** ******
  11  ****** ****** ****** ****** ****** ****** ****** ****** ****** ******
      ****** ****** ****** ****** ****** ****** ****** ****** ****** ******
      ****** ****** ****** ****** ****** ****** ****** ****** ****** ******
  12  ****** ****** ****** ****** ****** ****** ****** ****** ****** ******
      ****** ****** ****** ****** ****** ****** ****** ****** ****** ******
      ****** ****** ****** ****** ****** ****** ****** ****** ****** ******
  13  ****** ****** ****** ****** ****** ****** ****** ****** ****** ******
      ****** ****** ****** ****** ****** ****** ****** ****** ****** ******
      ****** ****** ****** ****** ****** ****** ****** ****** ****** ******
  14  ****** ****** ****** ****** ****** ****** ****** ****** ****** ******
      ****** ****** ****** ****** ****** ****** ****** ****** ****** ******
      ****** ****** ****** ****** ****** ****** ****** ****** ****** ******
  15  ****** ****** ****** ****** ****** ****** ****** ****** ****** ******
      ****** ****** ****** ****** ****** ****** ****** ****** ****** ******
      ****** ****** ****** ****** ****** ****** ****** ****** ****** ******
  16  ****** ****** ****** ****** ****** ****** ****** ****** ****** ******
      ****** ****** ****** ****** ****** ****** ****** ****** ****** ******
      ****** ****** ****** ****** ****** ****** ****** ****** ****** ******
  17  ****** ****** ****** ****** ****** ****** ****** ****** ****** ******
      ****** ****** ****** ****** ****** ****** ****** ****** ****** ******
      ****** ****** ****** ****** ****** ****** ****** ****** ****** ******
  18  ****** ****** ****** ****** ****** ****** ****** ****** ****** ******
      ****** ****** ****** ****** ****** ****** ****** ****** ****** ******
      ****** ****** ****** ****** ****** ****** ****** ****** ****** ******
  19  ****** ****** ****** ****** ****** ****** ****** ****** ****** ******
      ****** ****** ****** ****** ****** ****** ****** ****** ****** ******
      ****** ****** ****** ****** ****** ****** ****** ****** ****** ******
  20  ****** ****** ****** ****** ****** ****** ****** ****** ****** ******
      ****** ****** ****** ****** ****** ****** ****** ****** ****** ******
      ****** ****** ****** ****** ****** ****** ****** ****** ****** ******
  21  ****** ****** ****** ****** ****** ****** ****** ****** ****** ******
      ****** ****** ****** ****** ****** ****** ****** ****** ****** ******
      ****** ****** ****** ****** ****** ****** ****** ****** ****** ******
  22  ****** ****** ****** ****** ****** ****** ****** ****** ****** ******
      ****** ****** ****** ****** ****** ****** ****** ****** ****** ******
      ****** ****** ****** ****** ****** ****** ****** ****** ****** ******
  23  ****** ****** ****** ****** ****** ****** ****** ****** ****** ******
      ****** ****** ****** ****** ****** ****** ****** ****** ****** ******
      ****** ****** ****** ****** ****** ****** ****** ****** ****** ******
  24  ****** ****** ****** ****** ****** ****** ****** ****** ****** ******
      ****** ****** ****** ****** ****** ****** ****** ****** ****** ******
      ****** ****** ****** ****** ****** ****** ****** ****** ****** ******
  25  ****** ****** ****** ****** ****** ****** ****** ****** ****** ******
      ****** ****** ****** ****** ****** ****** ****** ****** ****** ******
      ****** ****** ****** ****** ****** ****** ****** ****** ****** ******

 HEAD WILL BE SAVED ON UNIT   51 AT END OF TIME STEP    1, STRESS PERIOD    7
1
  VOLUMETRIC BUDGET FOR ENTIRE MODEL AT END OF TIME STEP    1, STRESS PERIOD   7
  ------------------------------------------------------------------------------

     CUMULATIVE VOLUMES      L**3       RATES FOR THIS TIME STEP      L**3/T
     ------------------                 ------------------------

           IN:                                      IN:
           ---                                      ---
             STORAGE =    31918745.7867               STORAGE =       21996.5795
       CONSTANT HEAD =    15396146.6677         CONSTANT HEAD =       31587.1238
               WELLS =           0.0000                 WELLS =           0.0000
            RECHARGE =    15097200.0000              RECHARGE =           0.0000
      STREAM LEAKAGE =    19712840.9486        STREAM LEAKAGE =       37969.4572

            TOTAL IN =    82124933.4030              TOTAL IN =       91553.1605

          OUT:                                     OUT:
          ----                                     ----
             STORAGE =      849679.0658               STORAGE =           0.0000
       CONSTANT HEAD =           0.0000         CONSTANT HEAD =           0.0000
               WELLS =    30679808.7626                 WELLS =       48012.2203
            RECHARGE =           0.0000              RECHARGE =           0.0000
      STREAM LEAKAGE =    50595447.9695        STREAM LEAKAGE =       43540.9453

           TOTAL OUT =    82124935.7979             TOTAL OUT =       91553.1656

            IN - OUT =          -2.3949              IN - OUT =      -5.0704E-03

 PERCENT DISCREPANCY =          -0.00     PERCENT DISCREPANCY =          -0.00






         TIME SUMMARY AT END OF TIME STEP    1 IN STRESS PERIOD    7
                    SECONDS     MINUTES      HOURS       DAYS        YEARS
                    -----------------------------------------------------------
   TIME STEP LENGTH 7.86240E+06 1.31040E+05  2184.0      91.000     0.24914    
 STRESS PERIOD TIME 7.86240E+06 1.31040E+05  2184.0      91.000     0.24914    
         TOTAL TIME 5.52096E+07 9.20160E+05  15336.      639.00      1.7495    
1
1
                            STRESS PERIOD NO.    8, LENGTH =   91.00000    
                            -----------------------------------------------

                              NUMBER OF TIME STEPS =     1

                               MULTIPLIER FOR DELT =     1.500

                            INITIAL TIME STEP SIZE =   91.00000    

 WELL NO.  LAYER   ROW   COL   STRESS RATE         
 --------------------------------------------------
      1      1     17     29     -0.1404E+05
      2      1     18     28     -0.1091E+05
      3      1     12     29     -0.1310E+05
      4      1     19     29      -9959.    

      4 WELLS

                 RECHARGE =  1.000000E-03

 REUSING STREAM SEGMENT DATA FROM LAST STRESS PERIOD
 
 SOLVING FOR HEAD 


     6 CALLS TO PCG ROUTINE FOR TIME STEP   1 IN STRESS PERIOD    8
    22 TOTAL ITERATIONS

 OUTPUT CONTROL FOR STRESS PERIOD    8   TIME STEP    1
    SAVE BUDGET
    SAVE HEAD FOR ALL LAYERS
    PRINT HEAD FOR ALL LAYERS
 UBDSV2 SAVING "STREAMFLOW OUT  " ON UNIT  50 AT TIME STEP  1, STRESS PERIOD   8



 STREAM LISTING     PERIOD      8   STEP        1

 LAYER ROW COL. STREAM  RCH.  FLOW INTO     FLOW TO   FLOW OUT OF   OVRLND.     DIRECT     STREAM       STREAM     STREAM     STREAM   STREAMBED  STREAMBED
                SEG.NO.  NO.  STRM. RCH.    AQUIFER    STRM. RCH.    RUNOFF     PRECIP       ET          HEAD       DEPTH      WIDTH   CONDCTNC.   GRADIENT

   1   13    1     1     1    1.0000E+05 -1.9073E+03   1.0191E+05  0.000E+00  0.000E+00  0.000E+00  4.84068E+01  1.455E-01  2.000E+01  2.000E+04 -9.536E-02
   1   13    2     1     2    1.0191E+05 -2.8825E+03   1.0479E+05  0.000E+00  0.000E+00  0.000E+00  4.79316E+01  1.475E-01  2.000E+01  2.000E+04 -1.441E-01
   1   14    3     1     3    1.0479E+05 -4.8239E+02   1.0527E+05  0.000E+00  0.000E+00  0.000E+00  4.74558E+01  1.490E-01  2.000E+01  2.000E+04 -2.412E-02
   1   15    4     1     4    1.0527E+05 -4.5363E+02   1.0573E+05  0.000E+00  0.000E+00  0.000E+00  4.69789E+01  1.494E-01  2.000E+01  2.000E+04 -2.268E-02
   1   16    5     1     5    1.0573E+05 -1.6697E+03   1.0740E+05  0.000E+00  0.000E+00  0.000E+00  4.65025E+01  1.503E-01  2.000E+01  2.000E+04 -8.349E-02
   1   16    6     1     6    1.0740E+05 -1.0670E+03   1.0846E+05  0.000E+00  0.000E+00  0.000E+00  4.60264E+01  1.514E-01  2.000E+01  2.000E+04 -5.335E-02
   1   16    7     1     7    1.0846E+05 -1.0523E+03   1.0951E+05  0.000E+00  0.000E+00  0.000E+00  4.55500E+01  1.523E-01  2.000E+01  2.000E+04 -5.262E-02
   1   16    8     1     8    1.0951E+05 -1.0515E+03   1.1057E+05  0.000E+00  0.000E+00  0.000E+00  4.50737E+01  1.532E-01  2.000E+01  2.000E+04 -5.258E-02
   1   16    9     1     9    1.1057E+05 -1.0468E+03   1.1161E+05  0.000E+00  0.000E+00  0.000E+00  4.45973E+01  1.541E-01  2.000E+01  2.000E+04 -5.234E-02
   1   16   10     1    10    1.1161E+05 -1.0379E+03   1.1265E+05  0.000E+00  0.000E+00  0.000E+00  4.41208E+01  1.549E-01  2.000E+01  2.000E+04 -5.189E-02
   1   16   11     1    11    1.1265E+05 -1.0449E+03   1.1370E+05  0.000E+00  0.000E+00  0.000E+00  4.36444E+01  1.558E-01  2.000E+01  2.000E+04 -5.225E-02
   1   16   12     1    12    1.1370E+05 -1.7889E+03   1.1548E+05  0.000E+00  0.000E+00  0.000E+00  4.31683E+01  1.570E-01  2.000E+01  2.000E+04 -8.945E-02
   1   15   13     1    13    1.1548E+05 -1.7349E+03   1.1722E+05  0.000E+00  0.000E+00  0.000E+00  4.26925E+01  1.584E-01  2.000E+01  2.000E+04 -8.674E-02
   1   14   14     1    14    1.1722E+05 -2.0284E+03   1.1925E+05  0.000E+00  0.000E+00  0.000E+00  4.22168E+01  1.599E-01  2.000E+01  2.000E+04 -1.014E-01
   1   13   15     1    15    1.1925E+05 -2.3527E+03   1.2160E+05  0.000E+00  0.000E+00  0.000E+00  4.17413E+01  1.617E-01  2.000E+01  2.000E+04 -1.176E-01
   1   12   16     1    16    1.2160E+05 -3.0255E+03   1.2463E+05  0.000E+00  0.000E+00  0.000E+00  4.12661E+01  1.639E-01  2.000E+01  2.000E+04 -1.513E-01
   1   12   17     1    17    1.2463E+05 -1.9799E+03   1.2661E+05  0.000E+00  0.000E+00  0.000E+00  4.07909E+01  1.659E-01  2.000E+01  2.000E+04 -9.899E-02
   1   12   18     1    18    1.2661E+05 -1.8900E+03   1.2850E+05  0.000E+00  0.000E+00  0.000E+00  4.03151E+01  1.674E-01  2.000E+01  2.000E+04 -9.450E-02
   1   12   19     1    19    1.2850E+05 -2.4613E+03   1.3096E+05  0.000E+00  0.000E+00  0.000E+00  3.98396E+01  1.691E-01  2.000E+01  2.000E+04 -1.231E-01
   1   13   20     1    20    1.3096E+05 -1.8211E+03   1.3278E+05  0.000E+00  0.000E+00  0.000E+00  3.93640E+01  1.708E-01  2.000E+01  2.000E+04 -9.105E-02
   1   14   21     1    21    1.3278E+05 -1.5456E+03   1.3432E+05  0.000E+00  0.000E+00  0.000E+00  3.88880E+01  1.721E-01  2.000E+01  2.000E+04 -7.728E-02
   1   14   22     1    22    1.3432E+05  4.9981E+03   1.2933E+05  0.000E+00  0.000E+00  0.000E+00  3.84094E+01  1.707E-01  2.000E+01  2.000E+04  2.499E-01
   1    9   30     2     1    5.0000E+04  1.4832E+03   4.8517E+04  0.000E+00  0.000E+00  0.000E+00  4.02398E+01  1.148E-01  2.000E+01  2.000E+04  7.416E-02
   1    9   29     2     2    4.8517E+04  1.1022E+03   4.7415E+04  0.000E+00  0.000E+00  0.000E+00  3.99880E+01  1.130E-01  2.000E+01  2.000E+04  5.511E-02
   1    9   28     2     3    4.7415E+04  3.3381E+02   4.7081E+04  0.000E+00  0.000E+00  0.000E+00  3.97370E+01  1.120E-01  2.000E+01  2.000E+04  1.669E-02
   1    9   27     2     4    4.7081E+04 -1.5935E+03   4.8674E+04  0.000E+00  0.000E+00  0.000E+00  3.94879E+01  1.129E-01  2.000E+01  2.000E+04 -7.967E-02
   1   10   26     2     5    4.8674E+04 -3.0947E+01   4.8705E+04  0.000E+00  0.000E+00  0.000E+00  3.92390E+01  1.140E-01  2.000E+01  2.000E+04 -1.547E-03
   1   11   25     2     6    4.8705E+04 -2.2392E+02   4.8929E+04  0.000E+00  0.000E+00  0.000E+00  3.89892E+01  1.142E-01  2.000E+01  2.000E+04 -1.120E-02
   1   12   24     2     7    4.8929E+04 -1.0785E+03   5.0008E+04  0.000E+00  0.000E+00  0.000E+00  3.87401E+01  1.151E-01  2.000E+01  2.000E+04 -5.393E-02
   1   13   23     2     8    5.0008E+04 -2.5247E+02   5.0260E+04  0.000E+00  0.000E+00  0.000E+00  3.84911E+01  1.161E-01  2.000E+01  2.000E+04 -1.262E-02
   1   14   22     2     9    5.0260E+04  1.6127E+03   4.8647E+04  0.000E+00  0.000E+00  0.000E+00  3.82401E+01  1.151E-01  2.000E+01  2.000E+04  8.064E-02
   1   14   22     3     1    1.7797E+05 -8.6364E+03   1.8661E+05  0.000E+00  0.000E+00  0.000E+00  3.77276E+01  1.721E-01  2.000E+01  2.000E+04 -4.318E-01
   1   15   23     3     2    1.8661E+05 -4.9929E+02   1.8711E+05  0.000E+00  0.000E+00  0.000E+00  3.68413E+01  1.747E-01  2.000E+01  2.000E+04 -2.496E-02
   1   15   24     3     3    1.8711E+05 -2.2936E+02   1.8734E+05  0.000E+00  0.000E+00  0.000E+00  3.59526E+01  1.749E-01  2.000E+01  2.000E+04 -1.147E-02
   1   15   25     3     4    1.8734E+05 -1.7666E+02   1.8752E+05  0.000E+00  0.000E+00  0.000E+00  3.50639E+01  1.750E-01  2.000E+01  2.000E+04 -8.833E-03
   1   15   26     3     5    1.8752E+05  4.8752E+01   1.8747E+05  0.000E+00  0.000E+00  0.000E+00  3.41750E+01  1.750E-01  2.000E+01  2.000E+04  2.438E-03
   1   16   27     3     6    1.8747E+05  4.5082E+02   1.8702E+05  0.000E+00  0.000E+00  0.000E+00  3.32860E+01  1.749E-01  2.000E+01  2.000E+04  2.254E-02
   1   17   28     3     7    1.8702E+05  1.1119E+04   1.7590E+05  0.000E+00  0.000E+00  0.000E+00  3.23938E+01  1.716E-01  2.000E+01  2.000E+04  5.559E-01
   1   18   29     3     8    1.7590E+05  1.2310E+04   1.6359E+05  0.000E+00  0.000E+00  0.000E+00  3.14982E+01  1.649E-01  2.000E+01  2.000E+04  6.155E-01
   1   18   30     3     9    1.6359E+05  3.0838E+03   1.6050E+05  0.000E+00  0.000E+00  0.000E+00  3.06048E+01  1.604E-01  2.000E+01  2.000E+04  1.542E-01



1
              HEAD IN LAYER   1 AT END OF TIME STEP   1 IN STRESS PERIOD    8
  ---------------------------------------------------------------------------

          1      2      3      4      5      6      7      8      9     10
         11     12     13     14     15     16     17     18     19     20
         21     22     23     24     25     26     27     28     29     30
 .........................................................................
   1  ****** ****** ****** ****** ****** ****** ****** ****** ****** ******
      ****** ****** ****** ****** ****** ****** ****** ****** ****** ******
      ****** ****** ****** ****** ****** ****** ****** ****** ****** ******
   2  ****** ****** ****** ****** ****** ****** ****** ****** ****** ******
      ****** ****** ****** ****** ****** ****** ****** ****** ****** ******
      ****** ****** ****** ****** ****** ****** ****** ****** ****** ******
   3  ****** ****** ****** ****** ****** ****** ****** ****** ****** ******
      ****** ****** ****** ****** ****** ****** ****** ****** ****** ******
      ****** ****** ****** ****** ****** ****** ****** ****** ****** ******
   4  ****** ****** ****** ****** ****** ****** ****** ****** ****** ******
      ****** ****** ****** ****** ****** ****** ****** ****** ****** ******
      ****** ****** ****** ****** ****** ****** ****** ****** ****** ******
   5  ****** ****** ****** ****** ****** ****** ****** ****** ****** ******
      ****** ****** ****** ****** ****** ****** ****** ****** ****** ******
      ****** ****** ****** ****** ****** ****** ****** ****** ****** ******
   6  ****** ****** ****** ****** ****** ****** ****** ****** ****** ******
      ****** ****** ****** ****** ****** ****** ****** ****** ****** ******
      ****** ****** ****** ****** ****** ****** ****** ****** ****** ******
   7  ****** ****** ****** ****** ****** ****** ****** ****** ****** ******
      ****** ****** ****** ****** ****** ****** ****** ****** ****** ******
      ****** ****** ****** ****** ****** ****** ****** ****** ****** ******
   8  ****** ****** ****** ****** ****** ****** ****** ****** ****** ******
      ****** ****** ****** ****** ****** ****** ****** ****** ****** ******
      ****** ****** ****** ****** ****** ****** ****** ****** ****** ******
   9  ****** ****** ****** ****** ****** ****** ****** ****** ****** ******
      ****** ****** ****** ****** ****** ****** ****** ****** ****** ******
      ****** ****** ****** ****** ****** ****** ****** ****** ****** ******
  10  ****** ****** ****** ****** ****** ****** ****** ****** ****** ******
      ****** ****** ****** ****** ****** ****** ****** ****** ****** ******
      ****** ****** ****** ****** ****** ****** ****** ****** ****** ******
  11  ****** ****** ****** ****** ****** ****** ****** ****** ****** ******
      ****** ****** ****** ****** ****** ****** ****** ****** ****** ******
      ****** ****** ****** ****** ****** ****** ****** ****** ****** ******
  12  ****** ****** ****** ****** ****** ****** ****** ****** ****** ******
      ****** ****** ****** ****** ****** ****** ****** ****** ****** ******
      ****** ****** ****** ****** ****** ****** ****** ****** ****** ******
  13  ****** ****** ****** ****** ****** ****** ****** ****** ****** ******
      ****** ****** ****** ****** ****** ****** ****** ****** ****** ******
      ****** ****** ****** ****** ****** ****** ****** ****** ****** ******
  14  ****** ****** ****** ****** ****** ****** ****** ****** ****** ******
      ****** ****** ****** ****** ****** ****** ****** ****** ****** ******
      ****** ****** ****** ****** ****** ****** ****** ****** ****** ******
  15  ****** ****** ****** ****** ****** ****** ****** ****** ****** ******
      ****** ****** ****** ****** ****** ****** ****** ****** ****** ******
      ****** ****** ****** ****** ****** ****** ****** ****** ****** ******
  16  ****** ****** ****** ****** ****** ****** ****** ****** ****** ******
      ****** ****** ****** ****** ****** ****** ****** ****** ****** ******
      ****** ****** ****** ****** ****** ****** ****** ****** ****** ******
  17  ****** ****** ****** ****** ****** ****** ****** ****** ****** ******
      ****** ****** ****** ****** ****** ****** ****** ****** ****** ******
      ****** ****** ****** ****** ****** ****** ****** ****** ****** ******
  18  ****** ****** ****** ****** ****** ****** ****** ****** ****** ******
      ****** ****** ****** ****** ****** ****** ****** ****** ****** ******
      ****** ****** ****** ****** ****** ****** ****** ****** ****** ******
  19  ****** ****** ****** ****** ****** ****** ****** ****** ****** ******
      ****** ****** ****** ****** ****** ****** ****** ****** ****** ******
      ****** ****** ****** ****** ****** ****** ****** ****** ****** ******
  20  ****** ****** ****** ****** ****** ****** ****** ****** ****** ******
      ****** ****** ****** ****** ****** ****** ****** ****** ****** ******
      ****** ****** ****** ****** ****** ****** ****** ****** ****** ******
  21  ****** ****** ****** ****** ****** ****** ****** ****** ****** ******
      ****** ****** ****** ****** ****** ****** ****** ****** ****** ******
      ****** ****** ****** ****** ****** ****** ****** ****** ****** ******
  22  ****** ****** ****** ****** ****** ****** ****** ****** ****** ******
      ****** ****** ****** ****** ****** ****** ****** ****** ****** ******
      ****** ****** ****** ****** ****** ****** ****** ****** ****** ******
  23  ****** ****** ****** ****** ****** ****** ****** ****** ****** ******
      ****** ****** ****** ****** ****** ****** ****** ****** ****** ******
      ****** ****** ****** ****** ****** ****** ****** ****** ****** ******
  24  ****** ****** ****** ****** ****** ****** ****** ****** ****** ******
      ****** ****** ****** ****** ****** ****** ****** ****** ****** ******
      ****** ****** ****** ****** ****** ****** ****** ****** ****** ******
  25  ****** ****** ****** ****** ****** ****** ****** ****** ****** ******
      ****** ****** ****** ****** ****** ****** ****** ****** ****** ******
      ****** ****** ****** ****** ****** ****** ****** ****** ****** ******

 HEAD WILL BE SAVED ON UNIT   51 AT END OF TIME STEP    1, STRESS PERIOD    8
1
  VOLUMETRIC BUDGET FOR ENTIRE MODEL AT END OF TIME STEP    1, STRESS PERIOD   8
  ------------------------------------------------------------------------------

     CUMULATIVE VOLUMES      L**3       RATES FOR THIS TIME STEP      L**3/T
     ------------------                 ------------------------

           IN:                                      IN:
           ---                                      ---
             STORAGE =    32034373.2254               STORAGE =        1270.6312
       CONSTANT HEAD =    18240790.2255         CONSTANT HEAD =       31259.8193
               WELLS =           0.0000                 WELLS =           0.0000
            RECHARGE =    17608800.0000              RECHARGE =       27600.0000
      STREAM LEAKAGE =    23038160.5504        STREAM LEAKAGE =       36541.9736

            TOTAL IN =    90922124.0013              TOTAL IN =       96672.4242

          OUT:                                     OUT:
          ----                                     ----
             STORAGE =      996623.3833               STORAGE =        1614.7727
       CONSTANT HEAD =           0.0000         CONSTANT HEAD =           0.0000
               WELLS =    35048920.8086                 WELLS =       48012.2203
            RECHARGE =           0.0000              RECHARGE =           0.0000
      STREAM LEAKAGE =    54876581.4629        STREAM LEAKAGE =       47045.4230

           TOTAL OUT =    90922125.6547             TOTAL OUT =       96672.4160

            IN - OUT =          -1.6535              IN - OUT =       8.1475E-03

 PERCENT DISCREPANCY =          -0.00     PERCENT DISCREPANCY =           0.00






         TIME SUMMARY AT END OF TIME STEP    1 IN STRESS PERIOD    8
                    SECONDS     MINUTES      HOURS       DAYS        YEARS
                    -----------------------------------------------------------
   TIME STEP LENGTH 7.86240E+06 1.31040E+05  2184.0      91.000     0.24914    
 STRESS PERIOD TIME 7.86240E+06 1.31040E+05  2184.0      91.000     0.24914    
         TOTAL TIME 6.30720E+07 1.05120E+06  17520.      730.00      1.9986    
1
1
                            STRESS PERIOD NO.    9, LENGTH =   92.00000    
                            -----------------------------------------------

                              NUMBER OF TIME STEPS =     1

                               MULTIPLIER FOR DELT =     1.500

                            INITIAL TIME STEP SIZE =   92.00000    

 WELL NO.  LAYER   ROW   COL   STRESS RATE         
 --------------------------------------------------
      1      1     17     29     -0.1404E+05
      2      1     18     28     -0.1091E+05
      3      1     12     29     -0.1310E+05
      4      1     19     29      -9959.    

      4 WELLS

                 RECHARGE =  5.000000E-04

 REUSING STREAM SEGMENT DATA FROM LAST STRESS PERIOD
 
 SOLVING FOR HEAD 


     7 CALLS TO PCG ROUTINE FOR TIME STEP   1 IN STRESS PERIOD    9
    24 TOTAL ITERATIONS

 OUTPUT CONTROL FOR STRESS PERIOD    9   TIME STEP    1
    SAVE BUDGET
    SAVE HEAD FOR ALL LAYERS
    PRINT HEAD FOR ALL LAYERS
 UBDSV2 SAVING "STREAMFLOW OUT  " ON UNIT  50 AT TIME STEP  1, STRESS PERIOD   9



 STREAM LISTING     PERIOD      9   STEP        1

 LAYER ROW COL. STREAM  RCH.  FLOW INTO     FLOW TO   FLOW OUT OF   OVRLND.     DIRECT     STREAM       STREAM     STREAM     STREAM   STREAMBED  STREAMBED
                SEG.NO.  NO.  STRM. RCH.    AQUIFER    STRM. RCH.    RUNOFF     PRECIP       ET          HEAD       DEPTH      WIDTH   CONDCTNC.   GRADIENT

   1   13    1     1     1    1.0000E+05 -1.6981E+03   1.0170E+05  0.000E+00  0.000E+00  0.000E+00  4.84068E+01  1.454E-01  2.000E+01  2.000E+04 -8.491E-02
   1   13    2     1     2    1.0170E+05 -2.6458E+03   1.0434E+05  0.000E+00  0.000E+00  0.000E+00  4.79313E+01  1.473E-01  2.000E+01  2.000E+04 -1.323E-01
   1   14    3     1     3    1.0434E+05 -4.1247E+02   1.0476E+05  0.000E+00  0.000E+00  0.000E+00  4.74554E+01  1.486E-01  2.000E+01  2.000E+04 -2.062E-02
   1   15    4     1     4    1.0476E+05 -3.8253E+02   1.0514E+05  0.000E+00  0.000E+00  0.000E+00  4.69785E+01  1.489E-01  2.000E+01  2.000E+04 -1.913E-02
   1   16    5     1     5    1.0514E+05 -1.4782E+03   1.0662E+05  0.000E+00  0.000E+00  0.000E+00  4.65020E+01  1.497E-01  2.000E+01  2.000E+04 -7.391E-02
   1   16    6     1     6    1.0662E+05 -9.4790E+02   1.0757E+05  0.000E+00  0.000E+00  0.000E+00  4.60257E+01  1.507E-01  2.000E+01  2.000E+04 -4.739E-02
   1   16    7     1     7    1.0757E+05 -9.3695E+02   1.0850E+05  0.000E+00  0.000E+00  0.000E+00  4.55492E+01  1.515E-01  2.000E+01  2.000E+04 -4.685E-02
   1   16    8     1     8    1.0850E+05 -9.3767E+02   1.0944E+05  0.000E+00  0.000E+00  0.000E+00  4.50728E+01  1.523E-01  2.000E+01  2.000E+04 -4.688E-02
   1   16    9     1     9    1.0944E+05 -9.3445E+02   1.1037E+05  0.000E+00  0.000E+00  0.000E+00  4.45963E+01  1.531E-01  2.000E+01  2.000E+04 -4.672E-02
   1   16   10     1    10    1.1037E+05 -9.2748E+02   1.1130E+05  0.000E+00  0.000E+00  0.000E+00  4.41198E+01  1.539E-01  2.000E+01  2.000E+04 -4.637E-02
   1   16   11     1    11    1.1130E+05 -9.3538E+02   1.1224E+05  0.000E+00  0.000E+00  0.000E+00  4.36433E+01  1.546E-01  2.000E+01  2.000E+04 -4.677E-02
   1   16   12     1    12    1.1224E+05 -1.6017E+03   1.1384E+05  0.000E+00  0.000E+00  0.000E+00  4.31671E+01  1.557E-01  2.000E+01  2.000E+04 -8.008E-02
   1   15   13     1    13    1.1384E+05 -1.5275E+03   1.1537E+05  0.000E+00  0.000E+00  0.000E+00  4.26911E+01  1.570E-01  2.000E+01  2.000E+04 -7.638E-02
   1   14   14     1    14    1.1537E+05 -1.8085E+03   1.1717E+05  0.000E+00  0.000E+00  0.000E+00  4.22152E+01  1.583E-01  2.000E+01  2.000E+04 -9.042E-02
   1   13   15     1    15    1.1717E+05 -2.1277E+03   1.1930E+05  0.000E+00  0.000E+00  0.000E+00  4.17395E+01  1.599E-01  2.000E+01  2.000E+04 -1.064E-01
   1   12   16     1    16    1.1930E+05 -2.7936E+03   1.2210E+05  0.000E+00  0.000E+00  0.000E+00  4.12642E+01  1.619E-01  2.000E+01  2.000E+04 -1.397E-01
   1   12   17     1    17    1.2210E+05 -1.8198E+03   1.2392E+05  0.000E+00  0.000E+00  0.000E+00  4.07888E+01  1.638E-01  2.000E+01  2.000E+04 -9.099E-02
   1   12   18     1    18    1.2392E+05 -1.7370E+03   1.2565E+05  0.000E+00  0.000E+00  0.000E+00  4.03129E+01  1.652E-01  2.000E+01  2.000E+04 -8.685E-02
   1   12   19     1    19    1.2565E+05 -2.2771E+03   1.2793E+05  0.000E+00  0.000E+00  0.000E+00  3.98372E+01  1.668E-01  2.000E+01  2.000E+04 -1.139E-01
   1   13   20     1    20    1.2793E+05 -1.6488E+03   1.2958E+05  0.000E+00  0.000E+00  0.000E+00  3.93615E+01  1.683E-01  2.000E+01  2.000E+04 -8.244E-02
   1   14   21     1    21    1.2958E+05 -1.3745E+03   1.3095E+05  0.000E+00  0.000E+00  0.000E+00  3.88854E+01  1.695E-01  2.000E+01  2.000E+04 -6.872E-02
   1   14   22     1    22    1.3095E+05  5.0378E+03   1.2592E+05  0.000E+00  0.000E+00  0.000E+00  3.84067E+01  1.681E-01  2.000E+01  2.000E+04  2.519E-01
   1    9   30     2     1    5.0000E+04  1.6058E+03   4.8394E+04  0.000E+00  0.000E+00  0.000E+00  4.02397E+01  1.147E-01  2.000E+01  2.000E+04  8.029E-02
   1    9   29     2     2    4.8394E+04  1.2250E+03   4.7169E+04  0.000E+00  0.000E+00  0.000E+00  3.99878E+01  1.128E-01  2.000E+01  2.000E+04  6.125E-02
   1    9   28     2     3    4.7169E+04  4.5834E+02   4.6711E+04  0.000E+00  0.000E+00  0.000E+00  3.97366E+01  1.116E-01  2.000E+01  2.000E+04  2.292E-02
   1    9   27     2     4    4.6711E+04 -1.4188E+03   4.8130E+04  0.000E+00  0.000E+00  0.000E+00  3.94872E+01  1.122E-01  2.000E+01  2.000E+04 -7.094E-02
   1   10   26     2     5    4.8130E+04  1.4117E+02   4.7988E+04  0.000E+00  0.000E+00  0.000E+00  3.92381E+01  1.131E-01  2.000E+01  2.000E+04  7.059E-03
   1   11   25     2     6    4.7988E+04 -5.9184E+01   4.8048E+04  0.000E+00  0.000E+00  0.000E+00  3.89881E+01  1.131E-01  2.000E+01  2.000E+04 -2.959E-03
   1   12   24     2     7    4.8048E+04 -9.2717E+02   4.8975E+04  0.000E+00  0.000E+00  0.000E+00  3.87388E+01  1.138E-01  2.000E+01  2.000E+04 -4.636E-02
   1   13   23     2     8    4.8975E+04 -2.0560E+02   4.9180E+04  0.000E+00  0.000E+00  0.000E+00  3.84896E+01  1.146E-01  2.000E+01  2.000E+04 -1.028E-02
   1   14   22     2     9    4.9180E+04  1.6743E+03   4.7506E+04  0.000E+00  0.000E+00  0.000E+00  3.82385E+01  1.135E-01  2.000E+01  2.000E+04  8.371E-02
   1   14   22     3     1    1.7342E+05 -8.5958E+03   1.8202E+05  0.000E+00  0.000E+00  0.000E+00  3.77250E+01  1.695E-01  2.000E+01  2.000E+04 -4.298E-01
   1   15   23     3     2    1.8202E+05 -4.4675E+02   1.8246E+05  0.000E+00  0.000E+00  0.000E+00  3.68387E+01  1.721E-01  2.000E+01  2.000E+04 -2.234E-02
   1   15   24     3     3    1.8246E+05 -1.8635E+02   1.8265E+05  0.000E+00  0.000E+00  0.000E+00  3.59500E+01  1.722E-01  2.000E+01  2.000E+04 -9.317E-03
   1   15   25     3     4    1.8265E+05 -1.3338E+02   1.8278E+05  0.000E+00  0.000E+00  0.000E+00  3.50612E+01  1.723E-01  2.000E+01  2.000E+04 -6.669E-03
   1   15   26     3     5    1.8278E+05  9.6362E+01   1.8269E+05  0.000E+00  0.000E+00  0.000E+00  3.41723E+01  1.723E-01  2.000E+01  2.000E+04  4.818E-03
   1   16   27     3     6    1.8269E+05  5.0685E+02   1.8218E+05  0.000E+00  0.000E+00  0.000E+00  3.32833E+01  1.722E-01  2.000E+01  2.000E+04  2.534E-02
   1   17   28     3     7    1.8218E+05  1.1272E+04   1.7091E+05  0.000E+00  0.000E+00  0.000E+00  3.23910E+01  1.688E-01  2.000E+01  2.000E+04  5.636E-01
   1   18   29     3     8    1.7091E+05  1.2486E+04   1.5842E+05  0.000E+00  0.000E+00  0.000E+00  3.14952E+01  1.619E-01  2.000E+01  2.000E+04  6.243E-01
   1   18   30     3     9    1.5842E+05  3.2160E+03   1.5521E+05  0.000E+00  0.000E+00  0.000E+00  3.06017E+01  1.572E-01  2.000E+01  2.000E+04  1.608E-01



1
              HEAD IN LAYER   1 AT END OF TIME STEP   1 IN STRESS PERIOD    9
  ---------------------------------------------------------------------------

          1      2      3      4      5      6      7      8      9     10
         11     12     13     14     15     16     17     18     19     20
         21     22     23     24     25     26     27     28     29     30
 .........................................................................
   1  ****** ****** ****** ****** ****** ****** ****** ****** ****** ******
      ****** ****** ****** ****** ****** ****** ****** ****** ****** ******
      ****** ****** ****** ****** ****** ****** ****** ****** ****** ******
   2  ****** ****** ****** ****** ****** ****** ****** ****** ****** ******
      ****** ****** ****** ****** ****** ****** ****** ****** ****** ******
      ****** ****** ****** ****** ****** ****** ****** ****** ****** ******
   3  ****** ****** ****** ****** ****** ****** ****** ****** ****** ******
      ****** ****** ****** ****** ****** ****** ****** ****** ****** ******
      ****** ****** ****** ****** ****** ****** ****** ****** ****** ******
   4  ****** ****** ****** ****** ****** ****** ****** ****** ****** ******
      ****** ****** ****** ****** ****** ****** ****** ****** ****** ******
      ****** ****** ****** ****** ****** ****** ****** ****** ****** ******
   5  ****** ****** ****** ****** ****** ****** ****** ****** ****** ******
      ****** ****** ****** ****** ****** ****** ****** ****** ****** ******
      ****** ****** ****** ****** ****** ****** ****** ****** ****** ******
   6  ****** ****** ****** ****** ****** ****** ****** ****** ****** ******
      ****** ****** ****** ****** ****** ****** ****** ****** ****** ******
      ****** ****** ****** ****** ****** ****** ****** ****** ****** ******
   7  ****** ****** ****** ****** ****** ****** ****** ****** ****** ******
      ****** ****** ****** ****** ****** ****** ****** ****** ****** ******
      ****** ****** ****** ****** ****** ****** ****** ****** ****** ******
   8  ****** ****** ****** ****** ****** ****** ****** ****** ****** ******
      ****** ****** ****** ****** ****** ****** ****** ****** ****** ******
      ****** ****** ****** ****** ****** ****** ****** ****** ****** ******
   9  ****** ****** ****** ****** ****** ****** ****** ****** ****** ******
      ****** ****** ****** ****** ****** ****** ****** ****** ****** ******
      ****** ****** ****** ****** ****** ****** ****** ****** ****** ******
  10  ****** ****** ****** ****** ****** ****** ****** ****** ****** ******
      ****** ****** ****** ****** ****** ****** ****** ****** ****** ******
      ****** ****** ****** ****** ****** ****** ****** ****** ****** ******
  11  ****** ****** ****** ****** ****** ****** ****** ****** ****** ******
      ****** ****** ****** ****** ****** ****** ****** ****** ****** ******
      ****** ****** ****** ****** ****** ****** ****** ****** ****** ******
  12  ****** ****** ****** ****** ****** ****** ****** ****** ****** ******
      ****** ****** ****** ****** ****** ****** ****** ****** ****** ******
      ****** ****** ****** ****** ****** ****** ****** ****** ****** ******
  13  ****** ****** ****** ****** ****** ****** ****** ****** ****** ******
      ****** ****** ****** ****** ****** ****** ****** ****** ****** ******
      ****** ****** ****** ****** ****** ****** ****** ****** ****** ******
  14  ****** ****** ****** ****** ****** ****** ****** ****** ****** ******
      ****** ****** ****** ****** ****** ****** ****** ****** ****** ******
      ****** ****** ****** ****** ****** ****** ****** ****** ****** ******
  15  ****** ****** ****** ****** ****** ****** ****** ****** ****** ******
      ****** ****** ****** ****** ****** ****** ****** ****** ****** ******
      ****** ****** ****** ****** ****** ****** ****** ****** ****** ******
  16  ****** ****** ****** ****** ****** ****** ****** ****** ****** ******
      ****** ****** ****** ****** ****** ****** ****** ****** ****** ******
      ****** ****** ****** ****** ****** ****** ****** ****** ****** ******
  17  ****** ****** ****** ****** ****** ****** ****** ****** ****** ******
      ****** ****** ****** ****** ****** ****** ****** ****** ****** ******
      ****** ****** ****** ****** ****** ****** ****** ****** ****** ******
  18  ****** ****** ****** ****** ****** ****** ****** ****** ****** ******
      ****** ****** ****** ****** ****** ****** ****** ****** ****** ******
      ****** ****** ****** ****** ****** ****** ****** ****** ****** ******
  19  ****** ****** ****** ****** ****** ****** ****** ****** ****** ******
      ****** ****** ****** ****** ****** ****** ****** ****** ****** ******
      ****** ****** ****** ****** ****** ****** ****** ****** ****** ******
  20  ****** ****** ****** ****** ****** ****** ****** ****** ****** ******
      ****** ****** ****** ****** ****** ****** ****** ****** ****** ******
      ****** ****** ****** ****** ****** ****** ****** ****** ****** ******
  21  ****** ****** ****** ****** ****** ****** ****** ****** ****** ******
      ****** ****** ****** ****** ****** ****** ****** ****** ****** ******
      ****** ****** ****** ****** ****** ****** ****** ****** ****** ******
  22  ****** ****** ****** ****** ****** ****** ****** ****** ****** ******
      ****** ****** ****** ****** ****** ****** ****** ****** ****** ******
      ****** ****** ****** ****** ****** ****** ****** ****** ****** ******
  23  ****** ****** ****** ****** ****** ****** ****** ****** ****** ******
      ****** ****** ****** ****** ****** ****** ****** ****** ****** ******
      ****** ****** ****** ****** ****** ****** ****** ****** ****** ******
  24  ****** ****** ****** ****** ****** ****** ****** ****** ****** ******
      ****** ****** ****** ****** ****** ****** ****** ****** ****** ******
      ****** ****** ****** ****** ****** ****** ****** ****** ****** ******
  25  ****** ****** ****** ****** ****** ****** ****** ****** ****** ******
      ****** ****** ****** ****** ****** ****** ****** ****** ****** ******
      ****** ****** ****** ****** ****** ****** ****** ****** ****** ******

 HEAD WILL BE SAVED ON UNIT   51 AT END OF TIME STEP    1, STRESS PERIOD    9
1
  VOLUMETRIC BUDGET FOR ENTIRE MODEL AT END OF TIME STEP    1, STRESS PERIOD   9
  ------------------------------------------------------------------------------

     CUMULATIVE VOLUMES      L**3       RATES FOR THIS TIME STEP      L**3/T
     ------------------                 ------------------------

           IN:                                      IN:
           ---                                      ---
             STORAGE =    32679768.0637               STORAGE =        7015.1613
       CONSTANT HEAD =    21221898.4189         CONSTANT HEAD =       32403.3499
               WELLS =           0.0000                 WELLS =           0.0000
            RECHARGE =    18878400.0000              RECHARGE =       13800.0000
      STREAM LEAKAGE =    26508384.9546        STREAM LEAKAGE =       37719.8305

            TOTAL IN =    99288451.4371              TOTAL IN =       90938.3417

          OUT:                                     OUT:
          ----                                     ----
             STORAGE =      996623.3833               STORAGE =           0.0000
       CONSTANT HEAD =           0.0000         CONSTANT HEAD =           0.0000
               WELLS =    39466045.0748                 WELLS =       48012.2203
            RECHARGE =           0.0000              RECHARGE =           0.0000
      STREAM LEAKAGE =    58825784.7343        STREAM LEAKAGE =       42926.1225

           TOTAL OUT =    99288453.1925             TOTAL OUT =       90938.3428

            IN - OUT =          -1.7554              IN - OUT =      -1.1074E-03

 PERCENT DISCREPANCY =          -0.00     PERCENT DISCREPANCY =          -0.00






         TIME SUMMARY AT END OF TIME STEP    1 IN STRESS PERIOD    9
                    SECONDS     MINUTES      HOURS       DAYS        YEARS
                    -----------------------------------------------------------
   TIME STEP LENGTH 7.94880E+06 1.32480E+05  2208.0      92.000     0.25188    
 STRESS PERIOD TIME 7.94880E+06 1.32480E+05  2208.0      92.000     0.25188    
         TOTAL TIME 7.10208E+07 1.18368E+06  19728.      822.00      2.2505    
1
1
                            STRESS PERIOD NO.   10, LENGTH =   91.00000    
                            -----------------------------------------------

                              NUMBER OF TIME STEPS =     1

                               MULTIPLIER FOR DELT =     1.500

                            INITIAL TIME STEP SIZE =   91.00000    

 WELL NO.  LAYER   ROW   COL   STRESS RATE         
 --------------------------------------------------
      1      1     17     29     -0.1404E+05
      2      1     18     28     -0.1091E+05
      3      1     12     29     -0.1310E+05
      4      1     19     29      -9959.    

      4 WELLS

                 RECHARGE =  2.000000E-03

 REUSING STREAM SEGMENT DATA FROM LAST STRESS PERIOD
 
 SOLVING FOR HEAD 


     7 CALLS TO PCG ROUTINE FOR TIME STEP   1 IN STRESS PERIOD   10
    26 TOTAL ITERATIONS

 OUTPUT CONTROL FOR STRESS PERIOD   10   TIME STEP    1
    SAVE BUDGET
    SAVE HEAD FOR ALL LAYERS
    PRINT HEAD FOR ALL LAYERS
 UBDSV2 SAVING "STREAMFLOW OUT  " ON UNIT  50 AT TIME STEP  1, STRESS PERIOD  10



 STREAM LISTING     PERIOD     10   STEP        1

 LAYER ROW COL. STREAM  RCH.  FLOW INTO     FLOW TO   FLOW OUT OF   OVRLND.     DIRECT     STREAM       STREAM     STREAM     STREAM   STREAMBED  STREAMBED
                SEG.NO.  NO.  STRM. RCH.    AQUIFER    STRM. RCH.    RUNOFF     PRECIP       ET          HEAD       DEPTH      WIDTH   CONDCTNC.   GRADIENT

   1   13    1     1     1    1.0000E+05 -2.1545E+03   1.0215E+05  0.000E+00  0.000E+00  0.000E+00  4.84069E+01  1.456E-01  2.000E+01  2.000E+04 -1.077E-01
   1   13    2     1     2    1.0215E+05 -3.1518E+03   1.0531E+05  0.000E+00  0.000E+00  0.000E+00  4.79320E+01  1.479E-01  2.000E+01  2.000E+04 -1.576E-01
   1   14    3     1     3    1.0531E+05 -5.9966E+02   1.0591E+05  0.000E+00  0.000E+00  0.000E+00  4.74563E+01  1.495E-01  2.000E+01  2.000E+04 -2.998E-02
   1   15    4     1     4    1.0591E+05 -5.8251E+02   1.0649E+05  0.000E+00  0.000E+00  0.000E+00  4.69795E+01  1.500E-01  2.000E+01  2.000E+04 -2.913E-02
   1   16    5     1     5    1.0649E+05 -2.0978E+03   1.0859E+05  0.000E+00  0.000E+00  0.000E+00  4.65034E+01  1.511E-01  2.000E+01  2.000E+04 -1.049E-01
   1   16    6     1     6    1.0859E+05 -1.3107E+03   1.0990E+05  0.000E+00  0.000E+00  0.000E+00  4.60275E+01  1.525E-01  2.000E+01  2.000E+04 -6.554E-02
   1   16    7     1     7    1.0990E+05 -1.2820E+03   1.1118E+05  0.000E+00  0.000E+00  0.000E+00  4.55513E+01  1.536E-01  2.000E+01  2.000E+04 -6.410E-02
   1   16    8     1     8    1.1118E+05 -1.2773E+03   1.1246E+05  0.000E+00  0.000E+00  0.000E+00  4.50751E+01  1.547E-01  2.000E+01  2.000E+04 -6.386E-02
   1   16    9     1     9    1.1246E+05 -1.2725E+03   1.1373E+05  0.000E+00  0.000E+00  0.000E+00  4.45989E+01  1.557E-01  2.000E+01  2.000E+04 -6.362E-02
   1   16   10     1    10    1.1373E+05 -1.2656E+03   1.1499E+05  0.000E+00  0.000E+00  0.000E+00  4.41227E+01  1.568E-01  2.000E+01  2.000E+04 -6.328E-02
   1   16   11     1    11    1.1499E+05 -1.2768E+03   1.1627E+05  0.000E+00  0.000E+00  0.000E+00  4.36465E+01  1.578E-01  2.000E+01  2.000E+04 -6.384E-02
   1   16   12     1    12    1.1627E+05 -2.1718E+03   1.1844E+05  0.000E+00  0.000E+00  0.000E+00  4.31706E+01  1.592E-01  2.000E+01  2.000E+04 -1.086E-01
   1   15   13     1    13    1.1844E+05 -2.1155E+03   1.2056E+05  0.000E+00  0.000E+00  0.000E+00  4.26951E+01  1.610E-01  2.000E+01  2.000E+04 -1.058E-01
   1   14   14     1    14    1.2056E+05 -2.4043E+03   1.2296E+05  0.000E+00  0.000E+00  0.000E+00  4.22196E+01  1.628E-01  2.000E+01  2.000E+04 -1.202E-01
   1   13   15     1    15    1.2296E+05 -2.7141E+03   1.2568E+05  0.000E+00  0.000E+00  0.000E+00  4.17444E+01  1.648E-01  2.000E+01  2.000E+04 -1.357E-01
   1   12   16     1    16    1.2568E+05 -3.3595E+03   1.2904E+05  0.000E+00  0.000E+00  0.000E+00  4.12695E+01  1.672E-01  2.000E+01  2.000E+04 -1.680E-01
   1   12   17     1    17    1.2904E+05 -2.2474E+03   1.3128E+05  0.000E+00  0.000E+00  0.000E+00  4.07944E+01  1.694E-01  2.000E+01  2.000E+04 -1.124E-01
   1   12   18     1    18    1.3128E+05 -2.1602E+03   1.3344E+05  0.000E+00  0.000E+00  0.000E+00  4.03189E+01  1.712E-01  2.000E+01  2.000E+04 -1.080E-01
   1   12   19     1    19    1.3344E+05 -2.7978E+03   1.3624E+05  0.000E+00  0.000E+00  0.000E+00  3.98435E+01  1.731E-01  2.000E+01  2.000E+04 -1.399E-01
   1   13   20     1    20    1.3624E+05 -2.1711E+03   1.3841E+05  0.000E+00  0.000E+00  0.000E+00  3.93682E+01  1.750E-01  2.000E+01  2.000E+04 -1.086E-01
   1   14   21     1    21    1.3841E+05 -1.9001E+03   1.4031E+05  0.000E+00  0.000E+00  0.000E+00  3.88924E+01  1.765E-01  2.000E+01  2.000E+04 -9.501E-02
   1   14   22     1    22    1.4031E+05  4.9068E+03   1.3541E+05  0.000E+00  0.000E+00  0.000E+00  3.84140E+01  1.754E-01  2.000E+01  2.000E+04  2.453E-01
   1    9   30     2     1    5.0000E+04  1.1911E+03   4.8809E+04  0.000E+00  0.000E+00  0.000E+00  4.02400E+01  1.150E-01  2.000E+01  2.000E+04  5.955E-02
   1    9   29     2     2    4.8809E+04  8.1252E+02   4.7996E+04  0.000E+00  0.000E+00  0.000E+00  3.99886E+01  1.136E-01  2.000E+01  2.000E+04  4.063E-02
   1    9   28     2     3    4.7996E+04  4.6603E+01   4.7950E+04  0.000E+00  0.000E+00  0.000E+00  3.97380E+01  1.130E-01  2.000E+01  2.000E+04  2.330E-03
   1    9   27     2     4    4.7950E+04 -1.9730E+03   4.9923E+04  0.000E+00  0.000E+00  0.000E+00  3.94894E+01  1.144E-01  2.000E+01  2.000E+04 -9.865E-02
   1   10   26     2     5    4.9923E+04 -4.1281E+02   5.0336E+04  0.000E+00  0.000E+00  0.000E+00  3.92410E+01  1.160E-01  2.000E+01  2.000E+04 -2.064E-02
   1   11   25     2     6    5.0336E+04 -5.8854E+02   5.0924E+04  0.000E+00  0.000E+00  0.000E+00  3.89917E+01  1.167E-01  2.000E+01  2.000E+04 -2.943E-02
   1   12   24     2     7    5.0924E+04 -1.4063E+03   5.2330E+04  0.000E+00  0.000E+00  0.000E+00  3.87431E+01  1.181E-01  2.000E+01  2.000E+04 -7.032E-02
   1   13   23     2     8    5.2330E+04 -3.5440E+02   5.2685E+04  0.000E+00  0.000E+00  0.000E+00  3.84943E+01  1.193E-01  2.000E+01  2.000E+04 -1.772E-02
   1   14   22     2     9    5.2685E+04  1.4972E+03   5.1188E+04  0.000E+00  0.000E+00  0.000E+00  3.82435E+01  1.185E-01  2.000E+01  2.000E+04  7.486E-02
   1   14   22     3     1    1.8659E+05 -8.7234E+03   1.9532E+05  0.000E+00  0.000E+00  0.000E+00  3.77325E+01  1.770E-01  2.000E+01  2.000E+04 -4.362E-01
   1   15   23     3     2    1.9532E+05 -6.0933E+02   1.9593E+05  0.000E+00  0.000E+00  0.000E+00  3.68462E+01  1.795E-01  2.000E+01  2.000E+04 -3.047E-02
   1   15   24     3     3    1.9593E+05 -3.2354E+02   1.9625E+05  0.000E+00  0.000E+00  0.000E+00  3.59576E+01  1.798E-01  2.000E+01  2.000E+04 -1.618E-02
   1   15   25     3     4    1.9625E+05 -2.7398E+02   1.9652E+05  0.000E+00  0.000E+00  0.000E+00  3.50688E+01  1.800E-01  2.000E+01  2.000E+04 -1.370E-02
   1   15   26     3     5    1.9652E+05 -6.5900E+01   1.9659E+05  0.000E+00  0.000E+00  0.000E+00  3.41801E+01  1.801E-01  2.000E+01  2.000E+04 -3.295E-03
   1   16   27     3     6    1.9659E+05  3.2096E+02   1.9627E+05  0.000E+00  0.000E+00  0.000E+00  3.32911E+01  1.800E-01  2.000E+01  2.000E+04  1.605E-02
   1   17   28     3     7    1.9627E+05  1.0751E+04   1.8552E+05  0.000E+00  0.000E+00  0.000E+00  3.23991E+01  1.769E-01  2.000E+01  2.000E+04  5.376E-01
   1   18   29     3     8    1.8552E+05  1.1935E+04   1.7358E+05  0.000E+00  0.000E+00  0.000E+00  3.15039E+01  1.705E-01  2.000E+01  2.000E+04  5.967E-01
   1   18   30     3     9    1.7358E+05  2.7910E+03   1.7079E+05  0.000E+00  0.000E+00  0.000E+00  3.06107E+01  1.663E-01  2.000E+01  2.000E+04  1.395E-01



1
              HEAD IN LAYER   1 AT END OF TIME STEP   1 IN STRESS PERIOD   10
  ---------------------------------------------------------------------------

          1      2      3      4      5      6      7      8      9     10
         11     12     13     14     15     16     17     18     19     20
         21     22     23     24     25     26     27     28     29     30
 .........................................................................
   1  ****** ****** ****** ****** ****** ****** ****** ****** ****** ******
      ****** ****** ****** ****** ****** ****** ****** ****** ****** ******
      ****** ****** ****** ****** ****** ****** ****** ****** ****** ******
   2  ****** ****** ****** ****** ****** ****** ****** ****** ****** ******
      ****** ****** ****** ****** ****** ****** ****** ****** ****** ******
      ****** ****** ****** ****** ****** ****** ****** ****** ****** ******
   3  ****** ****** ****** ****** ****** ****** ****** ****** ****** ******
      ****** ****** ****** ****** ****** ****** ****** ****** ****** ******
      ****** ****** ****** ****** ****** ****** ****** ****** ****** ******
   4  ****** ****** ****** ****** ****** ****** ****** ****** ****** ******
      ****** ****** ****** ****** ****** ****** ****** ****** ****** ******
      ****** ****** ****** ****** ****** ****** ****** ****** ****** ******
   5  ****** ****** ****** ****** ****** ****** ****** ****** ****** ******
      ****** ****** ****** ****** ****** ****** ****** ****** ****** ******
      ****** ****** ****** ****** ****** ****** ****** ****** ****** ******
   6  ****** ****** ****** ****** ****** ****** ****** ****** ****** ******
      ****** ****** ****** ****** ****** ****** ****** ****** ****** ******
      ****** ****** ****** ****** ****** ****** ****** ****** ****** ******
   7  ****** ****** ****** ****** ****** ****** ****** ****** ****** ******
      ****** ****** ****** ****** ****** ****** ****** ****** ****** ******
      ****** ****** ****** ****** ****** ****** ****** ****** ****** ******
   8  ****** ****** ****** ****** ****** ****** ****** ****** ****** ******
      ****** ****** ****** ****** ****** ****** ****** ****** ****** ******
      ****** ****** ****** ****** ****** ****** ****** ****** ****** ******
   9  ****** ****** ****** ****** ****** ****** ****** ****** ****** ******
      ****** ****** ****** ****** ****** ****** ****** ****** ****** ******
      ****** ****** ****** ****** ****** ****** ****** ****** ****** ******
  10  ****** ****** ****** ****** ****** ****** ****** ****** ****** ******
      ****** ****** ****** ****** ****** ****** ****** ****** ****** ******
      ****** ****** ****** ****** ****** ****** ****** ****** ****** ******
  11  ****** ****** ****** ****** ****** ****** ****** ****** ****** ******
      ****** ****** ****** ****** ****** ****** ****** ****** ****** ******
      ****** ****** ****** ****** ****** ****** ****** ****** ****** ******
  12  ****** ****** ****** ****** ****** ****** ****** ****** ****** ******
      ****** ****** ****** ****** ****** ****** ****** ****** ****** ******
      ****** ****** ****** ****** ****** ****** ****** ****** ****** ******
  13  ****** ****** ****** ****** ****** ****** ****** ****** ****** ******
      ****** ****** ****** ****** ****** ****** ****** ****** ****** ******
      ****** ****** ****** ****** ****** ****** ****** ****** ****** ******
  14  ****** ****** ****** ****** ****** ****** ****** ****** ****** ******
      ****** ****** ****** ****** ****** ****** ****** ****** ****** ******
      ****** ****** ****** ****** ****** ****** ****** ****** ****** ******
  15  ****** ****** ****** ****** ****** ****** ****** ****** ****** ******
      ****** ****** ****** ****** ****** ****** ****** ****** ****** ******
      ****** ****** ****** ****** ****** ****** ****** ****** ****** ******
  16  ****** ****** ****** ****** ****** ****** ****** ****** ****** ******
      ****** ****** ****** ****** ****** ****** ****** ****** ****** ******
      ****** ****** ****** ****** ****** ****** ****** ****** ****** ******
  17  ****** ****** ****** ****** ****** ****** ****** ****** ****** ******
      ****** ****** ****** ****** ****** ****** ****** ****** ****** ******
      ****** ****** ****** ****** ****** ****** ****** ****** ****** ******
  18  ****** ****** ****** ****** ****** ****** ****** ****** ****** ******
      ****** ****** ****** ****** ****** ****** ****** ****** ****** ******
      ****** ****** ****** ****** ****** ****** ****** ****** ****** ******
  19  ****** ****** ****** ****** ****** ****** ****** ****** ****** ******
      ****** ****** ****** ****** ****** ****** ****** ****** ****** ******
      ****** ****** ****** ****** ****** ****** ****** ****** ****** ******
  20  ****** ****** ****** ****** ****** ****** ****** ****** ****** ******
      ****** ****** ****** ****** ****** ****** ****** ****** ****** ******
      ****** ****** ****** ****** ****** ****** ****** ****** ****** ******
  21  ****** ****** ****** ****** ****** ****** ****** ****** ****** ******
      ****** ****** ****** ****** ****** ****** ****** ****** ****** ******
      ****** ****** ****** ****** ****** ****** ****** ****** ****** ******
  22  ****** ****** ****** ****** ****** ****** ****** ****** ****** ******
      ****** ****** ****** ****** ****** ****** ****** ****** ****** ******
      ****** ****** ****** ****** ****** ****** ****** ****** ****** ******
  23  ****** ****** ****** ****** ****** ****** ****** ****** ****** ******
      ****** ****** ****** ****** ****** ****** ****** ****** ****** ******
      ****** ****** ****** ****** ****** ****** ****** ****** ****** ******
  24  ****** ****** ****** ****** ****** ****** ****** ****** ****** ******
      ****** ****** ****** ****** ****** ****** ****** ****** ****** ******
      ****** ****** ****** ****** ****** ****** ****** ****** ****** ******
  25  ****** ****** ****** ****** ****** ****** ****** ****** ****** ******
      ****** ****** ****** ****** ****** ****** ****** ****** ****** ******
      ****** ****** ****** ****** ****** ****** ****** ****** ****** ******

 HEAD WILL BE SAVED ON UNIT   51 AT END OF TIME STEP    1, STRESS PERIOD   10
1
  VOLUMETRIC BUDGET FOR ENTIRE MODEL AT END OF TIME STEP    1, STRESS PERIOD  10
  ------------------------------------------------------------------------------

     CUMULATIVE VOLUMES      L**3       RATES FOR THIS TIME STEP      L**3/T
     ------------------                 ------------------------

           IN:                                      IN:
           ---                                      ---
             STORAGE =    32679768.0637               STORAGE =           0.0000
       CONSTANT HEAD =    23900389.7277         CONSTANT HEAD =       29433.9704
               WELLS =           0.0000                 WELLS =           0.0000
            RECHARGE =    23901600.0000              RECHARGE =       55200.0000
      STREAM LEAKAGE =    29625328.3705        STREAM LEAKAGE =       34252.1254

            TOTAL IN =   110107086.1618              TOTAL IN =      118886.0959

          OUT:                                     OUT:
          ----                                     ----
             STORAGE =     2437123.0348               STORAGE =       15829.6665
       CONSTANT HEAD =           0.0000         CONSTANT HEAD =           0.0000
               WELLS =    43835157.1208                 WELLS =       48012.2203
            RECHARGE =           0.0000              RECHARGE =           0.0000
      STREAM LEAKAGE =    63834807.4883        STREAM LEAKAGE =       55044.2061

           TOTAL OUT =   110107087.6439             TOTAL OUT =      118886.0929

            IN - OUT =          -1.4821              IN - OUT =       3.0025E-03

 PERCENT DISCREPANCY =          -0.00     PERCENT DISCREPANCY =           0.00






         TIME SUMMARY AT END OF TIME STEP    1 IN STRESS PERIOD   10
                    SECONDS     MINUTES      HOURS       DAYS        YEARS
                    -----------------------------------------------------------
   TIME STEP LENGTH 7.86240E+06 1.31040E+05  2184.0      91.000     0.24914    
 STRESS PERIOD TIME 7.86240E+06 1.31040E+05  2184.0      91.000     0.24914    
         TOTAL TIME 7.88832E+07 1.31472E+06  21912.      913.00      2.4997    
1
1
                            STRESS PERIOD NO.   11, LENGTH =   91.00000    
                            -----------------------------------------------

                              NUMBER OF TIME STEPS =     1

                               MULTIPLIER FOR DELT =     1.500

                            INITIAL TIME STEP SIZE =   91.00000    

 WELL NO.  LAYER   ROW   COL   STRESS RATE         
 --------------------------------------------------
      1      1     17     29     -0.1404E+05
      2      1     18     28     -0.1091E+05
      3      1     12     29     -0.1310E+05
      4      1     19     29      -9959.    

      4 WELLS

                 RECHARGE =   0.00000    

 REUSING STREAM SEGMENT DATA FROM LAST STRESS PERIOD
 
 SOLVING FOR HEAD 


     7 CALLS TO PCG ROUTINE FOR TIME STEP   1 IN STRESS PERIOD   11
    26 TOTAL ITERATIONS

 OUTPUT CONTROL FOR STRESS PERIOD   11   TIME STEP    1
    SAVE BUDGET
    SAVE HEAD FOR ALL LAYERS
    PRINT HEAD FOR ALL LAYERS
 UBDSV2 SAVING "STREAMFLOW OUT  " ON UNIT  50 AT TIME STEP  1, STRESS PERIOD  11



 STREAM LISTING     PERIOD     11   STEP        1

 LAYER ROW COL. STREAM  RCH.  FLOW INTO     FLOW TO   FLOW OUT OF   OVRLND.     DIRECT     STREAM       STREAM     STREAM     STREAM   STREAMBED  STREAMBED
                SEG.NO.  NO.  STRM. RCH.    AQUIFER    STRM. RCH.    RUNOFF     PRECIP       ET          HEAD       DEPTH      WIDTH   CONDCTNC.   GRADIENT

   1   13    1     1     1    1.0000E+05 -1.5896E+03   1.0159E+05  0.000E+00  0.000E+00  0.000E+00  4.84067E+01  1.453E-01  2.000E+01  2.000E+04 -7.948E-02
   1   13    2     1     2    1.0159E+05 -2.5230E+03   1.0411E+05  0.000E+00  0.000E+00  0.000E+00  4.79312E+01  1.471E-01  2.000E+01  2.000E+04 -1.261E-01
   1   14    3     1     3    1.0411E+05 -3.6928E+02   1.0448E+05  0.000E+00  0.000E+00  0.000E+00  4.74552E+01  1.484E-01  2.000E+01  2.000E+04 -1.846E-02
   1   15    4     1     4    1.0448E+05 -3.4103E+02   1.0482E+05  0.000E+00  0.000E+00  0.000E+00  4.69782E+01  1.487E-01  2.000E+01  2.000E+04 -1.705E-02
   1   16    5     1     5    1.0482E+05 -1.4104E+03   1.0623E+05  0.000E+00  0.000E+00  0.000E+00  4.65017E+01  1.494E-01  2.000E+01  2.000E+04 -7.052E-02
   1   16    6     1     6    1.0623E+05 -8.9687E+02   1.0713E+05  0.000E+00  0.000E+00  0.000E+00  4.60254E+01  1.504E-01  2.000E+01  2.000E+04 -4.484E-02
   1   16    7     1     7    1.0713E+05 -8.8579E+02   1.0802E+05  0.000E+00  0.000E+00  0.000E+00  4.55489E+01  1.511E-01  2.000E+01  2.000E+04 -4.429E-02
   1   16    8     1     8    1.0802E+05 -8.8656E+02   1.0890E+05  0.000E+00  0.000E+00  0.000E+00  4.50723E+01  1.519E-01  2.000E+01  2.000E+04 -4.433E-02
   1   16    9     1     9    1.0890E+05 -8.8393E+02   1.0979E+05  0.000E+00  0.000E+00  0.000E+00  4.45958E+01  1.526E-01  2.000E+01  2.000E+04 -4.420E-02
   1   16   10     1    10    1.0979E+05 -8.7803E+02   1.1066E+05  0.000E+00  0.000E+00  0.000E+00  4.41193E+01  1.534E-01  2.000E+01  2.000E+04 -4.390E-02
   1   16   11     1    11    1.1066E+05 -8.8737E+02   1.1155E+05  0.000E+00  0.000E+00  0.000E+00  4.36427E+01  1.541E-01  2.000E+01  2.000E+04 -4.437E-02
   1   16   12     1    12    1.1155E+05 -1.5267E+03   1.1308E+05  0.000E+00  0.000E+00  0.000E+00  4.31665E+01  1.551E-01  2.000E+01  2.000E+04 -7.633E-02
   1   15   13     1    13    1.1308E+05 -1.4282E+03   1.1451E+05  0.000E+00  0.000E+00  0.000E+00  4.26904E+01  1.563E-01  2.000E+01  2.000E+04 -7.141E-02
   1   14   14     1    14    1.1451E+05 -1.6996E+03   1.1621E+05  0.000E+00  0.000E+00  0.000E+00  4.22144E+01  1.576E-01  2.000E+01  2.000E+04 -8.498E-02
   1   13   15     1    15    1.1621E+05 -2.0153E+03   1.1822E+05  0.000E+00  0.000E+00  0.000E+00  4.17387E+01  1.591E-01  2.000E+01  2.000E+04 -1.008E-01
   1   12   16     1    16    1.1822E+05 -2.6849E+03   1.2091E+05  0.000E+00  0.000E+00  0.000E+00  4.12633E+01  1.610E-01  2.000E+01  2.000E+04 -1.342E-01
   1   12   17     1    17    1.2091E+05 -1.7420E+03   1.2265E+05  0.000E+00  0.000E+00  0.000E+00  4.07878E+01  1.628E-01  2.000E+01  2.000E+04 -8.710E-02
   1   12   18     1    18    1.2265E+05 -1.6622E+03   1.2431E+05  0.000E+00  0.000E+00  0.000E+00  4.03119E+01  1.642E-01  2.000E+01  2.000E+04 -8.311E-02
   1   12   19     1    19    1.2431E+05 -2.1864E+03   1.2650E+05  0.000E+00  0.000E+00  0.000E+00  3.98362E+01  1.657E-01  2.000E+01  2.000E+04 -1.093E-01
   1   13   20     1    20    1.2650E+05 -1.5593E+03   1.2806E+05  0.000E+00  0.000E+00  0.000E+00  3.93604E+01  1.672E-01  2.000E+01  2.000E+04 -7.796E-02
   1   14   21     1    21    1.2806E+05 -1.3032E+03   1.2936E+05  0.000E+00  0.000E+00  0.000E+00  3.88842E+01  1.683E-01  2.000E+01  2.000E+04 -6.516E-02
   1   14   22     1    22    1.2936E+05  5.0582E+03   1.2430E+05  0.000E+00  0.000E+00  0.000E+00  3.84055E+01  1.668E-01  2.000E+01  2.000E+04  2.529E-01
   1    9   30     2     1    5.0000E+04  1.6788E+03   4.8321E+04  0.000E+00  0.000E+00  0.000E+00  4.02397E+01  1.147E-01  2.000E+01  2.000E+04  8.394E-02
   1    9   29     2     2    4.8321E+04  1.2972E+03   4.7024E+04  0.000E+00  0.000E+00  0.000E+00  3.99876E+01  1.126E-01  2.000E+01  2.000E+04  6.486E-02
   1    9   28     2     3    4.7024E+04  5.2896E+02   4.6495E+04  0.000E+00  0.000E+00  0.000E+00  3.97363E+01  1.113E-01  2.000E+01  2.000E+04  2.645E-02
   1    9   27     2     4    4.6495E+04 -1.3342E+03   4.7829E+04  0.000E+00  0.000E+00  0.000E+00  3.94869E+01  1.119E-01  2.000E+01  2.000E+04 -6.671E-02
   1   10   26     2     5    4.7829E+04  2.4052E+02   4.7589E+04  0.000E+00  0.000E+00  0.000E+00  3.92377E+01  1.127E-01  2.000E+01  2.000E+04  1.203E-02
   1   11   25     2     6    4.7589E+04  4.0975E+01   4.7548E+04  0.000E+00  0.000E+00  0.000E+00  3.89875E+01  1.125E-01  2.000E+01  2.000E+04  2.049E-03
   1   12   24     2     7    4.7548E+04 -8.3382E+02   4.8382E+04  0.000E+00  0.000E+00  0.000E+00  3.87380E+01  1.130E-01  2.000E+01  2.000E+04 -4.169E-02
   1   13   23     2     8    4.8382E+04 -1.6872E+02   4.8550E+04  0.000E+00  0.000E+00  0.000E+00  3.84887E+01  1.137E-01  2.000E+01  2.000E+04 -8.436E-03
   1   14   22     2     9    4.8550E+04  1.7017E+03   4.6849E+04  0.000E+00  0.000E+00  0.000E+00  3.82376E+01  1.126E-01  2.000E+01  2.000E+04  8.508E-02
   1   14   22     3     1    1.7115E+05 -8.5763E+03   1.7973E+05  0.000E+00  0.000E+00  0.000E+00  3.77237E+01  1.682E-01  2.000E+01  2.000E+04 -4.288E-01
   1   15   23     3     2    1.7973E+05 -4.1729E+02   1.8014E+05  0.000E+00  0.000E+00  0.000E+00  3.68374E+01  1.708E-01  2.000E+01  2.000E+04 -2.086E-02
   1   15   24     3     3    1.8014E+05 -1.5841E+02   1.8030E+05  0.000E+00  0.000E+00  0.000E+00  3.59487E+01  1.709E-01  2.000E+01  2.000E+04 -7.920E-03
   1   15   25     3     4    1.8030E+05 -1.0501E+02   1.8041E+05  0.000E+00  0.000E+00  0.000E+00  3.50599E+01  1.710E-01  2.000E+01  2.000E+04 -5.250E-03
   1   15   26     3     5    1.8041E+05  1.2981E+02   1.8028E+05  0.000E+00  0.000E+00  0.000E+00  3.41710E+01  1.710E-01  2.000E+01  2.000E+04  6.490E-03
   1   16   27     3     6    1.8028E+05  5.4399E+02   1.7973E+05  0.000E+00  0.000E+00  0.000E+00  3.32819E+01  1.708E-01  2.000E+01  2.000E+04  2.720E-02
   1   17   28     3     7    1.7973E+05  1.1361E+04   1.6837E+05  0.000E+00  0.000E+00  0.000E+00  3.23896E+01  1.674E-01  2.000E+01  2.000E+04  5.681E-01
   1   18   29     3     8    1.6837E+05  1.2556E+04   1.5582E+05  0.000E+00  0.000E+00  0.000E+00  3.14937E+01  1.604E-01  2.000E+01  2.000E+04  6.278E-01
   1   18   30     3     9    1.5582E+05  3.2797E+03   1.5254E+05  0.000E+00  0.000E+00  0.000E+00  3.06001E+01  1.556E-01  2.000E+01  2.000E+04  1.640E-01



1
              HEAD IN LAYER   1 AT END OF TIME STEP   1 IN STRESS PERIOD   11
  ---------------------------------------------------------------------------

          1      2      3      4      5      6      7      8      9     10
         11     12     13     14     15     16     17     18     19     20
         21     22     23     24     25     26     27     28     29     30
 .........................................................................
   1  ****** ****** ****** ****** ****** ****** ****** ****** ****** ******
      ****** ****** ****** ****** ****** ****** ****** ****** ****** ******
      ****** ****** ****** ****** ****** ****** ****** ****** ****** ******
   2  ****** ****** ****** ****** ****** ****** ****** ****** ****** ******
      ****** ****** ****** ****** ****** ****** ****** ****** ****** ******
      ****** ****** ****** ****** ****** ****** ****** ****** ****** ******
   3  ****** ****** ****** ****** ****** ****** ****** ****** ****** ******
      ****** ****** ****** ****** ****** ****** ****** ****** ****** ******
      ****** ****** ****** ****** ****** ****** ****** ****** ****** ******
   4  ****** ****** ****** ****** ****** ****** ****** ****** ****** ******
      ****** ****** ****** ****** ****** ****** ****** ****** ****** ******
      ****** ****** ****** ****** ****** ****** ****** ****** ****** ******
   5  ****** ****** ****** ****** ****** ****** ****** ****** ****** ******
      ****** ****** ****** ****** ****** ****** ****** ****** ****** ******
      ****** ****** ****** ****** ****** ****** ****** ****** ****** ******
   6  ****** ****** ****** ****** ****** ****** ****** ****** ****** ******
      ****** ****** ****** ****** ****** ****** ****** ****** ****** ******
      ****** ****** ****** ****** ****** ****** ****** ****** ****** ******
   7  ****** ****** ****** ****** ****** ****** ****** ****** ****** ******
      ****** ****** ****** ****** ****** ****** ****** ****** ****** ******
      ****** ****** ****** ****** ****** ****** ****** ****** ****** ******
   8  ****** ****** ****** ****** ****** ****** ****** ****** ****** ******
      ****** ****** ****** ****** ****** ****** ****** ****** ****** ******
      ****** ****** ****** ****** ****** ****** ****** ****** ****** ******
   9  ****** ****** ****** ****** ****** ****** ****** ****** ****** ******
      ****** ****** ****** ****** ****** ****** ****** ****** ****** ******
      ****** ****** ****** ****** ****** ****** ****** ****** ****** ******
  10  ****** ****** ****** ****** ****** ****** ****** ****** ****** ******
      ****** ****** ****** ****** ****** ****** ****** ****** ****** ******
      ****** ****** ****** ****** ****** ****** ****** ****** ****** ******
  11  ****** ****** ****** ****** ****** ****** ****** ****** ****** ******
      ****** ****** ****** ****** ****** ****** ****** ****** ****** ******
      ****** ****** ****** ****** ****** ****** ****** ****** ****** ******
  12  ****** ****** ****** ****** ****** ****** ****** ****** ****** ******
      ****** ****** ****** ****** ****** ****** ****** ****** ****** ******
      ****** ****** ****** ****** ****** ****** ****** ****** ****** ******
  13  ****** ****** ****** ****** ****** ****** ****** ****** ****** ******
      ****** ****** ****** ****** ****** ****** ****** ****** ****** ******
      ****** ****** ****** ****** ****** ****** ****** ****** ****** ******
  14  ****** ****** ****** ****** ****** ****** ****** ****** ****** ******
      ****** ****** ****** ****** ****** ****** ****** ****** ****** ******
      ****** ****** ****** ****** ****** ****** ****** ****** ****** ******
  15  ****** ****** ****** ****** ****** ****** ****** ****** ****** ******
      ****** ****** ****** ****** ****** ****** ****** ****** ****** ******
      ****** ****** ****** ****** ****** ****** ****** ****** ****** ******
  16  ****** ****** ****** ****** ****** ****** ****** ****** ****** ******
      ****** ****** ****** ****** ****** ****** ****** ****** ****** ******
      ****** ****** ****** ****** ****** ****** ****** ****** ****** ******
  17  ****** ****** ****** ****** ****** ****** ****** ****** ****** ******
      ****** ****** ****** ****** ****** ****** ****** ****** ****** ******
      ****** ****** ****** ****** ****** ****** ****** ****** ****** ******
  18  ****** ****** ****** ****** ****** ****** ****** ****** ****** ******
      ****** ****** ****** ****** ****** ****** ****** ****** ****** ******
      ****** ****** ****** ****** ****** ****** ****** ****** ****** ******
  19  ****** ****** ****** ****** ****** ****** ****** ****** ****** ******
      ****** ****** ****** ****** ****** ****** ****** ****** ****** ******
      ****** ****** ****** ****** ****** ****** ****** ****** ****** ******
  20  ****** ****** ****** ****** ****** ****** ****** ****** ****** ******
      ****** ****** ****** ****** ****** ****** ****** ****** ****** ******
      ****** ****** ****** ****** ****** ****** ****** ****** ****** ******
  21  ****** ****** ****** ****** ****** ****** ****** ****** ****** ******
      ****** ****** ****** ****** ****** ****** ****** ****** ****** ******
      ****** ****** ****** ****** ****** ****** ****** ****** ****** ******
  22  ****** ****** ****** ****** ****** ****** ****** ****** ****** ******
      ****** ****** ****** ****** ****** ****** ****** ****** ****** ******
      ****** ****** ****** ****** ****** ****** ****** ****** ****** ******
  23  ****** ****** ****** ****** ****** ****** ****** ****** ****** ******
      ****** ****** ****** ****** ****** ****** ****** ****** ****** ******
      ****** ****** ****** ****** ****** ****** ****** ****** ****** ******
  24  ****** ****** ****** ****** ****** ****** ****** ****** ****** ******
      ****** ****** ****** ****** ****** ****** ****** ****** ****** ******
      ****** ****** ****** ****** ****** ****** ****** ****** ****** ******
  25  ****** ****** ****** ****** ****** ****** ****** ****** ****** ******
      ****** ****** ****** ****** ****** ****** ****** ****** ****** ******
      ****** ****** ****** ****** ****** ****** ****** ****** ****** ******

 HEAD WILL BE SAVED ON UNIT   51 AT END OF TIME STEP    1, STRESS PERIOD   11
1
  VOLUMETRIC BUDGET FOR ENTIRE MODEL AT END OF TIME STEP    1, STRESS PERIOD  11
  ------------------------------------------------------------------------------

     CUMULATIVE VOLUMES      L**3       RATES FOR THIS TIME STEP      L**3/T
     ------------------                 ------------------------

           IN:                                      IN:
           ---                                      ---
             STORAGE =    34303216.4652               STORAGE =       17840.0923
       CONSTANT HEAD =    26876840.5690         CONSTANT HEAD =       32708.2510
               WELLS =           0.0000                 WELLS =           0.0000
            RECHARGE =    23901600.0000              RECHARGE =           0.0000
      STREAM LEAKAGE =    33121320.1458        STREAM LEAKAGE =       38417.4920

            TOTAL IN =   118202977.1800              TOTAL IN =       88965.8354

          OUT:                                     OUT:
          ----                                     ----
             STORAGE =     2437123.0348               STORAGE =           0.0000
       CONSTANT HEAD =           0.0000         CONSTANT HEAD =           0.0000
               WELLS =    48204269.1668                 WELLS =       48012.2203
            RECHARGE =           0.0000              RECHARGE =           0.0000
      STREAM LEAKAGE =    67561586.8675        STREAM LEAKAGE =       40953.6196

           TOTAL OUT =   118202979.0691             TOTAL OUT =       88965.8398

            IN - OUT =          -1.8892              IN - OUT =      -4.4730E-03

 PERCENT DISCREPANCY =          -0.00     PERCENT DISCREPANCY =          -0.00






         TIME SUMMARY AT END OF TIME STEP    1 IN STRESS PERIOD   11
                    SECONDS     MINUTES      HOURS       DAYS        YEARS
                    -----------------------------------------------------------
   TIME STEP LENGTH 7.86240E+06 1.31040E+05  2184.0      91.000     0.24914    
 STRESS PERIOD TIME 7.86240E+06 1.31040E+05  2184.0      91.000     0.24914    
         TOTAL TIME 8.67456E+07 1.44576E+06  24096.      1004.0      2.7488    
1
1
                            STRESS PERIOD NO.   12, LENGTH =   91.00000    
                            -----------------------------------------------

                              NUMBER OF TIME STEPS =     1

                               MULTIPLIER FOR DELT =     1.500

                            INITIAL TIME STEP SIZE =   91.00000    

 WELL NO.  LAYER   ROW   COL   STRESS RATE         
 --------------------------------------------------
      1      1     17     29     -0.1404E+05
      2      1     18     28     -0.1091E+05
      3      1     12     29     -0.1310E+05
      4      1     19     29      -9959.    

      4 WELLS

                 RECHARGE =  1.000000E-03

 REUSING STREAM SEGMENT DATA FROM LAST STRESS PERIOD
 
 SOLVING FOR HEAD 


     7 CALLS TO PCG ROUTINE FOR TIME STEP   1 IN STRESS PERIOD   12
    24 TOTAL ITERATIONS

 OUTPUT CONTROL FOR STRESS PERIOD   12   TIME STEP    1
    SAVE BUDGET
    SAVE HEAD FOR ALL LAYERS
    PRINT HEAD FOR ALL LAYERS
 UBDSV2 SAVING "STREAMFLOW OUT  " ON UNIT  50 AT TIME STEP  1, STRESS PERIOD  12



 STREAM LISTING     PERIOD     12   STEP        1

 LAYER ROW COL. STREAM  RCH.  FLOW INTO     FLOW TO   FLOW OUT OF   OVRLND.     DIRECT     STREAM       STREAM     STREAM     STREAM   STREAMBED  STREAMBED
                SEG.NO.  NO.  STRM. RCH.    AQUIFER    STRM. RCH.    RUNOFF     PRECIP       ET          HEAD       DEPTH      WIDTH   CONDCTNC.   GRADIENT

   1   13    1     1     1    1.0000E+05 -1.7359E+03   1.0174E+05  0.000E+00  0.000E+00  0.000E+00  4.84068E+01  1.454E-01  2.000E+01  2.000E+04 -8.679E-02
   1   13    2     1     2    1.0174E+05 -2.6805E+03   1.0442E+05  0.000E+00  0.000E+00  0.000E+00  4.79314E+01  1.473E-01  2.000E+01  2.000E+04 -1.340E-01
   1   14    3     1     3    1.0442E+05 -4.4821E+02   1.0486E+05  0.000E+00  0.000E+00  0.000E+00  4.74555E+01  1.486E-01  2.000E+01  2.000E+04 -2.241E-02
   1   15    4     1     4    1.0486E+05 -4.2370E+02   1.0529E+05  0.000E+00  0.000E+00  0.000E+00  4.69786E+01  1.490E-01  2.000E+01  2.000E+04 -2.118E-02
   1   16    5     1     5    1.0529E+05 -1.6205E+03   1.0691E+05  0.000E+00  0.000E+00  0.000E+00  4.65022E+01  1.499E-01  2.000E+01  2.000E+04 -8.102E-02
   1   16    6     1     6    1.0691E+05 -1.0276E+03   1.0794E+05  0.000E+00  0.000E+00  0.000E+00  4.60260E+01  1.510E-01  2.000E+01  2.000E+04 -5.138E-02
   1   16    7     1     7    1.0794E+05 -1.0115E+03   1.0895E+05  0.000E+00  0.000E+00  0.000E+00  4.55496E+01  1.519E-01  2.000E+01  2.000E+04 -5.058E-02
   1   16    8     1     8    1.0895E+05 -1.0112E+03   1.0996E+05  0.000E+00  0.000E+00  0.000E+00  4.50732E+01  1.527E-01  2.000E+01  2.000E+04 -5.056E-02
   1   16    9     1     9    1.0996E+05 -1.0090E+03   1.1097E+05  0.000E+00  0.000E+00  0.000E+00  4.45967E+01  1.536E-01  2.000E+01  2.000E+04 -5.045E-02
   1   16   10     1    10    1.1097E+05 -1.0043E+03   1.1197E+05  0.000E+00  0.000E+00  0.000E+00  4.41203E+01  1.544E-01  2.000E+01  2.000E+04 -5.022E-02
   1   16   11     1    11    1.1197E+05 -1.0158E+03   1.1299E+05  0.000E+00  0.000E+00  0.000E+00  4.36439E+01  1.552E-01  2.000E+01  2.000E+04 -5.079E-02
   1   16   12     1    12    1.1299E+05 -1.7287E+03   1.1472E+05  0.000E+00  0.000E+00  0.000E+00  4.31677E+01  1.564E-01  2.000E+01  2.000E+04 -8.644E-02
   1   15   13     1    13    1.1472E+05 -1.6459E+03   1.1636E+05  0.000E+00  0.000E+00  0.000E+00  4.26918E+01  1.577E-01  2.000E+01  2.000E+04 -8.230E-02
   1   14   14     1    14    1.1636E+05 -1.9184E+03   1.1828E+05  0.000E+00  0.000E+00  0.000E+00  4.22160E+01  1.592E-01  2.000E+01  2.000E+04 -9.592E-02
   1   13   15     1    15    1.1828E+05 -2.2270E+03   1.2051E+05  0.000E+00  0.000E+00  0.000E+00  4.17404E+01  1.609E-01  2.000E+01  2.000E+04 -1.114E-01
   1   12   16     1    16    1.2051E+05 -2.8707E+03   1.2338E+05  0.000E+00  0.000E+00  0.000E+00  4.12652E+01  1.629E-01  2.000E+01  2.000E+04 -1.435E-01
   1   12   17     1    17    1.2338E+05 -1.8966E+03   1.2528E+05  0.000E+00  0.000E+00  0.000E+00  4.07898E+01  1.648E-01  2.000E+01  2.000E+04 -9.483E-02
   1   12   18     1    18    1.2528E+05 -1.8188E+03   1.2709E+05  0.000E+00  0.000E+00  0.000E+00  4.03140E+01  1.663E-01  2.000E+01  2.000E+04 -9.094E-02
   1   12   19     1    19    1.2709E+05 -2.3800E+03   1.2947E+05  0.000E+00  0.000E+00  0.000E+00  3.98384E+01  1.680E-01  2.000E+01  2.000E+04 -1.190E-01
   1   13   20     1    20    1.2947E+05 -1.7702E+03   1.3124E+05  0.000E+00  0.000E+00  0.000E+00  3.93628E+01  1.696E-01  2.000E+01  2.000E+04 -8.851E-02
   1   14   21     1    21    1.3124E+05 -1.4976E+03   1.3274E+05  0.000E+00  0.000E+00  0.000E+00  3.88868E+01  1.709E-01  2.000E+01  2.000E+04 -7.488E-02
   1   14   22     1    22    1.3274E+05  5.0036E+03   1.2774E+05  0.000E+00  0.000E+00  0.000E+00  3.84081E+01  1.695E-01  2.000E+01  2.000E+04  2.502E-01
   1    9   30     2     1    5.0000E+04  1.5022E+03   4.8498E+04  0.000E+00  0.000E+00  0.000E+00  4.02398E+01  1.148E-01  2.000E+01  2.000E+04  7.511E-02
   1    9   29     2     2    4.8498E+04  1.1225E+03   4.7375E+04  0.000E+00  0.000E+00  0.000E+00  3.99880E+01  1.130E-01  2.000E+01  2.000E+04  5.613E-02
   1    9   28     2     3    4.7375E+04  3.5782E+02   4.7017E+04  0.000E+00  0.000E+00  0.000E+00  3.97369E+01  1.119E-01  2.000E+01  2.000E+04  1.789E-02
   1    9   27     2     4    4.7017E+04 -1.5440E+03   4.8562E+04  0.000E+00  0.000E+00  0.000E+00  3.94878E+01  1.128E-01  2.000E+01  2.000E+04 -7.720E-02
   1   10   26     2     5    4.8562E+04  1.0176E+01   4.8551E+04  0.000E+00  0.000E+00  0.000E+00  3.92388E+01  1.138E-01  2.000E+01  2.000E+04  5.088E-04
   1   11   25     2     6    4.8551E+04 -1.8543E+02   4.8737E+04  0.000E+00  0.000E+00  0.000E+00  3.89890E+01  1.140E-01  2.000E+01  2.000E+04 -9.271E-03
   1   12   24     2     7    4.8737E+04 -1.0405E+03   4.9777E+04  0.000E+00  0.000E+00  0.000E+00  3.87398E+01  1.148E-01  2.000E+01  2.000E+04 -5.202E-02
   1   13   23     2     8    4.9777E+04 -2.4641E+02   5.0024E+04  0.000E+00  0.000E+00  0.000E+00  3.84907E+01  1.157E-01  2.000E+01  2.000E+04 -1.232E-02
   1   14   22     2     9    5.0024E+04  1.6360E+03   4.8388E+04  0.000E+00  0.000E+00  0.000E+00  3.82398E+01  1.148E-01  2.000E+01  2.000E+04  8.180E-02
   1   14   22     3     1    1.7613E+05 -8.6273E+03   1.8475E+05  0.000E+00  0.000E+00  0.000E+00  3.77266E+01  1.710E-01  2.000E+01  2.000E+04 -4.314E-01
   1   15   23     3     2    1.8475E+05 -4.8935E+02   1.8524E+05  0.000E+00  0.000E+00  0.000E+00  3.68403E+01  1.736E-01  2.000E+01  2.000E+04 -2.447E-02
   1   15   24     3     3    1.8524E+05 -2.2351E+02   1.8547E+05  0.000E+00  0.000E+00  0.000E+00  3.59516E+01  1.738E-01  2.000E+01  2.000E+04 -1.118E-02
   1   15   25     3     4    1.8547E+05 -1.7139E+02   1.8564E+05  0.000E+00  0.000E+00  0.000E+00  3.50628E+01  1.739E-01  2.000E+01  2.000E+04 -8.569E-03
   1   15   26     3     5    1.8564E+05  5.2305E+01   1.8559E+05  0.000E+00  0.000E+00  0.000E+00  3.41740E+01  1.740E-01  2.000E+01  2.000E+04  2.615E-03
   1   16   27     3     6    1.8559E+05  4.5718E+02   1.8513E+05  0.000E+00  0.000E+00  0.000E+00  3.32849E+01  1.738E-01  2.000E+01  2.000E+04  2.286E-02
   1   17   28     3     7    1.8513E+05  1.1140E+04   1.7399E+05  0.000E+00  0.000E+00  0.000E+00  3.23928E+01  1.705E-01  2.000E+01  2.000E+04  5.570E-01
   1   18   29     3     8    1.7399E+05  1.2356E+04   1.6163E+05  0.000E+00  0.000E+00  0.000E+00  3.14971E+01  1.638E-01  2.000E+01  2.000E+04  6.178E-01
   1   18   30     3     9    1.6163E+05  3.1117E+03   1.5852E+05  0.000E+00  0.000E+00  0.000E+00  3.06036E+01  1.592E-01  2.000E+01  2.000E+04  1.556E-01



1
              HEAD IN LAYER   1 AT END OF TIME STEP   1 IN STRESS PERIOD   12
  ---------------------------------------------------------------------------

          1      2      3      4      5      6      7      8      9     10
         11     12     13     14     15     16     17     18     19     20
         21     22     23     24     25     26     27     28     29     30
 .........................................................................
   1  ****** ****** ****** ****** ****** ****** ****** ****** ****** ******
      ****** ****** ****** ****** ****** ****** ****** ****** ****** ******
      ****** ****** ****** ****** ****** ****** ****** ****** ****** ******
   2  ****** ****** ****** ****** ****** ****** ****** ****** ****** ******
      ****** ****** ****** ****** ****** ****** ****** ****** ****** ******
      ****** ****** ****** ****** ****** ****** ****** ****** ****** ******
   3  ****** ****** ****** ****** ****** ****** ****** ****** ****** ******
      ****** ****** ****** ****** ****** ****** ****** ****** ****** ******
      ****** ****** ****** ****** ****** ****** ****** ****** ****** ******
   4  ****** ****** ****** ****** ****** ****** ****** ****** ****** ******
      ****** ****** ****** ****** ****** ****** ****** ****** ****** ******
      ****** ****** ****** ****** ****** ****** ****** ****** ****** ******
   5  ****** ****** ****** ****** ****** ****** ****** ****** ****** ******
      ****** ****** ****** ****** ****** ****** ****** ****** ****** ******
      ****** ****** ****** ****** ****** ****** ****** ****** ****** ******
   6  ****** ****** ****** ****** ****** ****** ****** ****** ****** ******
      ****** ****** ****** ****** ****** ****** ****** ****** ****** ******
      ****** ****** ****** ****** ****** ****** ****** ****** ****** ******
   7  ****** ****** ****** ****** ****** ****** ****** ****** ****** ******
      ****** ****** ****** ****** ****** ****** ****** ****** ****** ******
      ****** ****** ****** ****** ****** ****** ****** ****** ****** ******
   8  ****** ****** ****** ****** ****** ****** ****** ****** ****** ******
      ****** ****** ****** ****** ****** ****** ****** ****** ****** ******
      ****** ****** ****** ****** ****** ****** ****** ****** ****** ******
   9  ****** ****** ****** ****** ****** ****** ****** ****** ****** ******
      ****** ****** ****** ****** ****** ****** ****** ****** ****** ******
      ****** ****** ****** ****** ****** ****** ****** ****** ****** ******
  10  ****** ****** ****** ****** ****** ****** ****** ****** ****** ******
      ****** ****** ****** ****** ****** ****** ****** ****** ****** ******
      ****** ****** ****** ****** ****** ****** ****** ****** ****** ******
  11  ****** ****** ****** ****** ****** ****** ****** ****** ****** ******
      ****** ****** ****** ****** ****** ****** ****** ****** ****** ******
      ****** ****** ****** ****** ****** ****** ****** ****** ****** ******
  12  ****** ****** ****** ****** ****** ****** ****** ****** ****** ******
      ****** ****** ****** ****** ****** ****** ****** ****** ****** ******
      ****** ****** ****** ****** ****** ****** ****** ****** ****** ******
  13  ****** ****** ****** ****** ****** ****** ****** ****** ****** ******
      ****** ****** ****** ****** ****** ****** ****** ****** ****** ******
      ****** ****** ****** ****** ****** ****** ****** ****** ****** ******
  14  ****** ****** ****** ****** ****** ****** ****** ****** ****** ******
      ****** ****** ****** ****** ****** ****** ****** ****** ****** ******
      ****** ****** ****** ****** ****** ****** ****** ****** ****** ******
  15  ****** ****** ****** ****** ****** ****** ****** ****** ****** ******
      ****** ****** ****** ****** ****** ****** ****** ****** ****** ******
      ****** ****** ****** ****** ****** ****** ****** ****** ****** ******
  16  ****** ****** ****** ****** ****** ****** ****** ****** ****** ******
      ****** ****** ****** ****** ****** ****** ****** ****** ****** ******
      ****** ****** ****** ****** ****** ****** ****** ****** ****** ******
  17  ****** ****** ****** ****** ****** ****** ****** ****** ****** ******
      ****** ****** ****** ****** ****** ****** ****** ****** ****** ******
      ****** ****** ****** ****** ****** ****** ****** ****** ****** ******
  18  ****** ****** ****** ****** ****** ****** ****** ****** ****** ******
      ****** ****** ****** ****** ****** ****** ****** ****** ****** ******
      ****** ****** ****** ****** ****** ****** ****** ****** ****** ******
  19  ****** ****** ****** ****** ****** ****** ****** ****** ****** ******
      ****** ****** ****** ****** ****** ****** ****** ****** ****** ******
      ****** ****** ****** ****** ****** ****** ****** ****** ****** ******
  20  ****** ****** ****** ****** ****** ****** ****** ****** ****** ******
      ****** ****** ****** ****** ****** ****** ****** ****** ****** ******
      ****** ****** ****** ****** ****** ****** ****** ****** ****** ******
  21  ****** ****** ****** ****** ****** ****** ****** ****** ****** ******
      ****** ****** ****** ****** ****** ****** ****** ****** ****** ******
      ****** ****** ****** ****** ****** ****** ****** ****** ****** ******
  22  ****** ****** ****** ****** ****** ****** ****** ****** ****** ******
      ****** ****** ****** ****** ****** ****** ****** ****** ****** ******
      ****** ****** ****** ****** ****** ****** ****** ****** ****** ******
  23  ****** ****** ****** ****** ****** ****** ****** ****** ****** ******
      ****** ****** ****** ****** ****** ****** ****** ****** ****** ******
      ****** ****** ****** ****** ****** ****** ****** ****** ****** ******
  24  ****** ****** ****** ****** ****** ****** ****** ****** ****** ******
      ****** ****** ****** ****** ****** ****** ****** ****** ****** ******
      ****** ****** ****** ****** ****** ****** ****** ****** ****** ******
  25  ****** ****** ****** ****** ****** ****** ****** ****** ****** ******
      ****** ****** ****** ****** ****** ****** ****** ****** ****** ******
      ****** ****** ****** ****** ****** ****** ****** ****** ****** ******

 HEAD WILL BE SAVED ON UNIT   51 AT END OF TIME STEP    1, STRESS PERIOD   12
1
  VOLUMETRIC BUDGET FOR ENTIRE MODEL AT END OF TIME STEP    1, STRESS PERIOD  12
  ------------------------------------------------------------------------------

     CUMULATIVE VOLUMES      L**3       RATES FOR THIS TIME STEP      L**3/T
     ------------------                 ------------------------

           IN:                                      IN:
           ---                                      ---
             STORAGE =    34303651.1268               STORAGE =           4.7765
       CONSTANT HEAD =    29789210.3924         CONSTANT HEAD =       32004.0640
               WELLS =           0.0000                 WELLS =           0.0000
            RECHARGE =    26413200.0000              RECHARGE =       27600.0000
      STREAM LEAKAGE =    36465528.3549        STREAM LEAKAGE =       36749.5408

            TOTAL IN =   126971589.8741              TOTAL IN =       96358.3813

          OUT:                                     OUT:
          ----                                     ----
             STORAGE =     2717028.1488               STORAGE =        3075.8804
       CONSTANT HEAD =           0.0000         CONSTANT HEAD =           0.0000
               WELLS =    52573381.2128                 WELLS =       48012.2203
            RECHARGE =           0.0000              RECHARGE =           0.0000
      STREAM LEAKAGE =    71681182.3207        STREAM LEAKAGE =       45270.2797

           TOTAL OUT =   126971591.6823             TOTAL OUT =       96358.3804

            IN - OUT =          -1.8082              IN - OUT =       8.8978E-04

 PERCENT DISCREPANCY =          -0.00     PERCENT DISCREPANCY =           0.00






         TIME SUMMARY AT END OF TIME STEP    1 IN STRESS PERIOD   12
                    SECONDS     MINUTES      HOURS       DAYS        YEARS
                    -----------------------------------------------------------
   TIME STEP LENGTH 7.86240E+06 1.31040E+05  2184.0      91.000     0.24914    
 STRESS PERIOD TIME 7.86240E+06 1.31040E+05  2184.0      91.000     0.24914    
         TOTAL TIME 9.46080E+07 1.57680E+06  26280.      1095.0      2.9979    
1

 Run end date and time (yyyy/mm/dd hh:mm:ss): 2019/03/28 22:44:53
 Elapsed run time:  0.190 Seconds

