                                  MODFLOW-2005     
      U.S. GEOLOGICAL SURVEY MODULAR FINITE-DIFFERENCE GROUND-WATER FLOW MODEL
                            VERSION 1.11.00 8/8/2013

 LIST FILE: supply2.lst
                         UNIT   10

 OPENING ..\data\supply.dis
 FILE TYPE:DIS   UNIT   11   STATUS:OLD    
 FORMAT:FORMATTED              ACCESS:SEQUENTIAL          

 OPENING ..\data\supply.ba6
 FILE TYPE:BAS6   UNIT   12   STATUS:OLD    
 FORMAT:FORMATTED              ACCESS:SEQUENTIAL          

 OPENING ..\data\supply.bc6
 FILE TYPE:BCF6   UNIT   13   STATUS:OLD    
 FORMAT:FORMATTED              ACCESS:SEQUENTIAL          

 OPENING ..\data\supply.rch
 FILE TYPE:RCH   UNIT   15   STATUS:OLD    
 FORMAT:FORMATTED              ACCESS:SEQUENTIAL          

 OPENING ..\data\supply2.sfr
 FILE TYPE:SFR   UNIT   16   STATUS:OLD    
 FORMAT:FORMATTED              ACCESS:SEQUENTIAL          

 OPENING ..\data\supply.oc
 FILE TYPE:OC   UNIT   17   STATUS:OLD    
 FORMAT:FORMATTED              ACCESS:SEQUENTIAL          

 OPENING ..\data\supply.pcg
 FILE TYPE:PCG   UNIT   18   STATUS:OLD    
 FORMAT:FORMATTED              ACCESS:SEQUENTIAL          

 OPENING supply2.wel
 FILE TYPE:WEL   UNIT   19   STATUS:OLD    
 FORMAT:FORMATTED              ACCESS:SEQUENTIAL          

 OPENING supply2sf.cbc
 FILE TYPE:DATA(BINARY)   UNIT   50   STATUS:UNKNOWN
 FORMAT:BINARY                 ACCESS:SEQUENTIAL          

 OPENING supply2hd.bhd
 FILE TYPE:DATA(BINARY)   UNIT   51   STATUS:UNKNOWN
 FORMAT:BINARY                 ACCESS:SEQUENTIAL          

 BAS -- BASIC PACKAGE, VERSION 7, 5/2/2005 INPUT READ FROM UNIT   12
 
 MODFLOW was compiled using uniform precision
 Precision of REAL and DOUBLE PRECISION variables:          15

 DISCRETIZATION INPUT DATA READ FROM UNIT   11
    1 LAYERS        25 ROWS        30 COLUMNS
   12 STRESS PERIOD(S) IN SIMULATION
 MODEL TIME UNIT IS DAYS
 MODEL LENGTH UNIT IS UNDEFINED
  Confining bed flag for each layer:
   0

                     DELR =   200.000    

                     DELC =   200.000    

 TOP ELEVATION OF LAYER 1 =  100.0000    

   MODEL LAYER BOTTOM EL. =   0.00000     FOR LAYER   1


 STRESS PERIOD     LENGTH       TIME STEPS     MULTIPLIER FOR DELT    SS FLAG
 ----------------------------------------------------------------------------
        1         92.00000          1                    1.500         TR
        2         91.00000          1                    1.500         TR
        3         91.00000          1                    1.500         TR
        4         91.00000          1                    1.500         TR
        5         92.00000          1                    1.500         TR
        6         91.00000          1                    1.500         TR
        7         91.00000          1                    1.500         TR
        8         91.00000          1                    1.500         TR
        9         92.00000          1                    1.500         TR
       10         91.00000          1                    1.500         TR
       11         91.00000          1                    1.500         TR
       12         91.00000          1                    1.500         TR

 TRANSIENT SIMULATION



 
 #MODOFC transient water supply sample problem                                   
 #                                                                               
 THE FREE FORMAT OPTION HAS BEEN SELECTED



                     BOUNDARY ARRAY FOR LAYER   1
 READING ON UNIT   12 WITH FORMAT: (20I4)              

 AQUIFER HEAD WILL BE SET TO   0.0000     AT ALL NO-FLOW NODES (IBOUND=0).



                       INITIAL HEAD FOR LAYER   1
 READING ON UNIT   12 WITH FORMAT: (10F13.0)           

 OUTPUT CONTROL IS SPECIFIED ONLY AT TIME STEPS FOR WHICH OUTPUT IS DESIRED
 COMPACT CELL-BY-CELL BUDGET FILES WILL BE WRITTEN
 HEAD PRINT FORMAT CODE IS  18    DRAWDOWN PRINT FORMAT CODE IS   0
 HEADS WILL BE SAVED ON UNIT   51    DRAWDOWNS WILL BE SAVED ON UNIT    0

 BCF -- BLOCK-CENTERED FLOW PACKAGE, VERSION 7, 5/2/2005
         INPUT READ FROM UNIT 13
 TRANSIENT SIMULATION
 HEAD AT CELLS THAT CONVERT TO DRY=   0.0000    
 WETTING CAPABILITY IS NOT ACTIVE
      LAYER  LAYER-TYPE CODE     INTERBLOCK T
      --------------------------------------------
         1            0          0 -- HARMONIC    

 COLUMN TO ROW ANISOTROPY =  1.000000    

     PRIMARY STORAGE COEF =  5.000000E-02 FOR LAYER   1

     TRANSMIS. ALONG ROWS =   500.000     FOR LAYER   1

 WEL -- WELL PACKAGE, VERSION 7, 5/2/2005 INPUT READ FROM UNIT   19
 # Well package input file written by MMProc
 No named parameters
 MAXIMUM OF      6 ACTIVE WELLS AT ONE TIME


     0 Well parameters

 RCH -- RECHARGE PACKAGE, VERSION 7, 5/2/2005 INPUT READ FROM UNIT   15
 No named parameters
 OPTION 1 -- RECHARGE TO TOP LAYER


     0 Recharge parameters

 SFR7 -- STREAMFLOW ROUTING PACKAGE, VERSION 1.0.7, 2013-01-15
         INPUT READ FROM UNIT  16
 #  Supply2 test problem for GWM-VI
 #  The eighth entry in the first data line is ISTCB2 -
 #    Setting this to a negative number indicates that
 #    streamflows out of the reach will be saved to a
 #    binary file.  The absolute value of ISTCB2 is the
 #    unit to which unformatted flows will be written.
 #
 No named parameters
 Segment information will not be 
 read by reach
 No named parameters
 No specifed inflow files


 NUMBER OF STREAM REACHES IS   40

 NUMBER OF STREAM SEGMENTS IS    3

 NUMBER OF STREAM PARAMETERS IS    0

 NUMBER OF STREAM SEGMENTS DEFINED USING PARAMETERS IS              0

 MAXIMUM ERROR FOR STREAM LEAKAGE RATES IS  1.00E-04

 CONSTANT FOR MANNINGS EQUATION IS  1.2839E+05





   STREAM NETWORK DESCRIPTION: 

   LAYER    ROW    COL   SEGMENT   REACH     LENGTH
                          NUMBER   NUMBER    IN CELL        
   --------------------------------------------------
      1     13      1       1        1    2.0000E+02
      1     13      2       1        2    2.0000E+02
      1     14      3       1        3    2.0000E+02
      1     15      4       1        4    2.0000E+02
      1     16      5       1        5    2.0000E+02
      1     16      6       1        6    2.0000E+02
      1     16      7       1        7    2.0000E+02
      1     16      8       1        8    2.0000E+02
      1     16      9       1        9    2.0000E+02
      1     16     10       1       10    2.0000E+02
      1     16     11       1       11    2.0000E+02
      1     16     12       1       12    2.0000E+02
      1     15     13       1       13    2.0000E+02
      1     14     14       1       14    2.0000E+02
      1     13     15       1       15    2.0000E+02
      1     12     16       1       16    2.0000E+02
      1     12     17       1       17    2.0000E+02
      1     12     18       1       18    2.0000E+02
      1     12     19       1       19    2.0000E+02
      1     13     20       1       20    2.0000E+02
      1     14     21       1       21    2.0000E+02
      1     14     22       1       22    2.0000E+02
      1      9     30       2        1    2.0000E+02
      1      9     29       2        2    2.0000E+02
      1      9     28       2        3    2.0000E+02
      1      9     27       2        4    2.0000E+02
      1     10     26       2        5    2.0000E+02
      1     11     25       2        6    2.0000E+02
      1     12     24       2        7    2.0000E+02
      1     13     23       2        8    2.0000E+02
      1     14     22       2        9    2.0000E+02
      1     14     22       3        1    2.0000E+02
      1     15     23       3        2    2.0000E+02
      1     15     24       3        3    2.0000E+02
      1     15     25       3        4    2.0000E+02
      1     15     26       3        5    2.0000E+02
      1     16     27       3        6    2.0000E+02
      1     17     28       3        7    2.0000E+02
      1     18     29       3        8    2.0000E+02
      1     18     30       3        9    2.0000E+02




 PCG -- CONJUGATE-GRADIENT SOLUTION PACKAGE, VERSION 7, 5/2/2005
 MAXIMUM OF    500 CALLS OF SOLUTION ROUTINE
 MAXIMUM OF      5 INTERNAL ITERATIONS PER CALL TO SOLUTION ROUTINE
 MATRIX PRECONDITIONING TYPE :    1



                                    SOLUTION BY THE CONJUGATE-GRADIENT METHOD
                                   -------------------------------------------
                    MAXIMUM NUMBER OF CALLS TO PCG ROUTINE =      500
                        MAXIMUM ITERATIONS PER CALL TO PCG =        5
                               MATRIX PRECONDITIONING TYPE =        1
        RELAXATION FACTOR (ONLY USED WITH PRECOND. TYPE 1) =    0.10000E+01
 PARAMETER OF POLYNOMIAL PRECOND. = 2 (2) OR IS CALCULATED :        0
                         HEAD CHANGE CRITERION FOR CLOSURE =    0.10000E-05
                     RESIDUAL CHANGE CRITERION FOR CLOSURE =    0.10000E+01
            PCG HEAD AND RESIDUAL CHANGE PRINTOUT INTERVAL =        1
     PRINTING FROM SOLVER IS LIMITED(1) OR SUPPRESSED (>1) =        1
                            STEADY-STATE DAMPING PARAMETER =    0.10000E+01
                               TRANSIENT DAMPING PARAMETER =    0.10000E+01
1
                            STRESS PERIOD NO.    1, LENGTH =   92.00000    
                            -----------------------------------------------

                              NUMBER OF TIME STEPS =     1

                               MULTIPLIER FOR DELT =     1.500

                            INITIAL TIME STEP SIZE =   92.00000    

 WELL NO.  LAYER   ROW   COL   STRESS RATE         
 --------------------------------------------------
      1      1     18     24     -0.5000E+05
      2      1     19     27     -0.5000E+05
      3      1     21     24     -0.5250E+05

      3 WELLS

                 RECHARGE =  5.000000E-04



 CLASSIFICATION & COUNT OF STREAM SEGMENTS BASED ON SOURCE OF INFLOW:

                HEADWATER     DIVERSION     RECEIVES TRIBUTARY FLOW
                ---------     ---------     -----------------------
                     2              0               1



                    INPUT DATA FOR EACH STREAM SEGMENT
 ---------------------------------------------------------------------------------------------

 SEGMENT    SEG.     INFLOW   OVERLAND   STREAM    STREAM   ICALC  OUTFLOW  DIVERSION PRIORITY
    NO.    LENGTH     RATE     RUNOFF      ET       PPT.    METH.  TO SEG.  FROM SEG.    NO.

      1  4.400E+03 1.000E+05 0.000E+00 0.000E+00 0.000E+00    1        3        0        0
      2  1.800E+03 5.000E+04 0.000E+00 0.000E+00 0.000E+00    1        3        0        0
      3  1.800E+03 0.000E+00 0.000E+00 0.000E+00 0.000E+00    1        0        0        0


         STREAMBED PROPERTIES AND STREAM DIMENSIONS

 SEGMENT     BED HYD. COND.      BED THICKNESS     ELEV.-TOP OF BED     WIDTH OF STREAM     DEPTH OF STREAM    STREAM ROUGHNESS
    No.     UPPER     LOWER     UPPER     LOWER     UPPER     LOWER     UPPER     LOWER     UPPER     LOWER   CHANNEL      BANK

     1  5.000E+00 5.000E+00 1.000E+00 1.000E+00 4.850E+01 3.800E+01 2.000E+01 2.000E+01                     5.000E-02
     2  5.000E+00 5.000E+00 1.000E+00 1.000E+00 4.025E+01 3.800E+01 2.000E+01 2.000E+01                     5.000E-02
     3  5.000E+00 5.000E+00 1.000E+00 1.000E+00 3.800E+01 3.000E+01 2.000E+01 2.000E+01                     5.000E-02



 
 SOLVING FOR HEAD 


     9 CALLS TO PCG ROUTINE FOR TIME STEP   1 IN STRESS PERIOD    1
    36 TOTAL ITERATIONS

 OUTPUT CONTROL FOR STRESS PERIOD    1   TIME STEP    1
    SAVE BUDGET
    SAVE HEAD FOR ALL LAYERS
    PRINT HEAD FOR ALL LAYERS
 UBDSV2 SAVING "STREAMFLOW OUT  " ON UNIT  50 AT TIME STEP  1, STRESS PERIOD   1



 STREAM LISTING     PERIOD      1   STEP        1

 LAYER ROW COL. STREAM  RCH.  FLOW INTO     FLOW TO   FLOW OUT OF   OVRLND.     DIRECT     STREAM       STREAM     STREAM     STREAM   STREAMBED  STREAMBED
                SEG.NO.  NO.  STRM. RCH.    AQUIFER    STRM. RCH.    RUNOFF     PRECIP       ET          HEAD       DEPTH      WIDTH   CONDCTNC.   GRADIENT

   1   13    1     1     1    1.0000E+05 -5.7570E+03   1.0576E+05  0.000E+00  0.000E+00  0.000E+00  4.84085E+01  1.471E-01  2.000E+01  2.000E+04 -2.878E-01
   1   13    2     1     2    1.0576E+05 -8.6052E+03   1.1436E+05  0.000E+00  0.000E+00  0.000E+00  4.79373E+01  1.532E-01  2.000E+01  2.000E+04 -4.303E-01
   1   14    3     1     3    1.1436E+05 -7.8825E+03   1.2224E+05  0.000E+00  0.000E+00  0.000E+00  4.74668E+01  1.600E-01  2.000E+01  2.000E+04 -3.941E-01
   1   15    4     1     4    1.2224E+05 -7.7115E+03   1.2996E+05  0.000E+00  0.000E+00  0.000E+00  4.69958E+01  1.662E-01  2.000E+01  2.000E+04 -3.856E-01
   1   16    5     1     5    1.2996E+05 -7.4968E+03   1.3745E+05  0.000E+00  0.000E+00  0.000E+00  4.65245E+01  1.722E-01  2.000E+01  2.000E+04 -3.748E-01
   1   16    6     1     6    1.3745E+05 -6.0007E+03   1.4345E+05  0.000E+00  0.000E+00  0.000E+00  4.60524E+01  1.774E-01  2.000E+01  2.000E+04 -3.000E-01
   1   16    7     1     7    1.4345E+05 -6.1346E+03   1.4959E+05  0.000E+00  0.000E+00  0.000E+00  4.55796E+01  1.819E-01  2.000E+01  2.000E+04 -3.067E-01
   1   16    8     1     8    1.4959E+05 -6.2124E+03   1.5580E+05  0.000E+00  0.000E+00  0.000E+00  4.51069E+01  1.865E-01  2.000E+01  2.000E+04 -3.106E-01
   1   16    9     1     9    1.5580E+05 -6.2155E+03   1.6202E+05  0.000E+00  0.000E+00  0.000E+00  4.46342E+01  1.910E-01  2.000E+01  2.000E+04 -3.108E-01
   1   16   10     1    10    1.6202E+05 -6.1450E+03   1.6816E+05  0.000E+00  0.000E+00  0.000E+00  4.41613E+01  1.954E-01  2.000E+01  2.000E+04 -3.073E-01
   1   16   11     1    11    1.6816E+05 -6.0240E+03   1.7419E+05  0.000E+00  0.000E+00  0.000E+00  4.36883E+01  1.997E-01  2.000E+01  2.000E+04 -3.012E-01
   1   16   12     1    12    1.7419E+05 -7.6044E+03   1.8179E+05  0.000E+00  0.000E+00  0.000E+00  4.32158E+01  2.044E-01  2.000E+01  2.000E+04 -3.802E-01
   1   15   13     1    13    1.8179E+05 -7.8658E+03   1.8966E+05  0.000E+00  0.000E+00  0.000E+00  4.27438E+01  2.097E-01  2.000E+01  2.000E+04 -3.933E-01
   1   14   14     1    14    1.8966E+05 -8.0734E+03   1.9773E+05  0.000E+00  0.000E+00  0.000E+00  4.22719E+01  2.151E-01  2.000E+01  2.000E+04 -4.037E-01
   1   13   15     1    15    1.9773E+05 -8.3331E+03   2.0606E+05  0.000E+00  0.000E+00  0.000E+00  4.18000E+01  2.205E-01  2.000E+01  2.000E+04 -4.167E-01
   1   12   16     1    16    2.0606E+05 -9.2962E+03   2.1536E+05  0.000E+00  0.000E+00  0.000E+00  4.13285E+01  2.262E-01  2.000E+01  2.000E+04 -4.648E-01
   1   12   17     1    17    2.1536E+05 -6.4205E+03   2.2178E+05  0.000E+00  0.000E+00  0.000E+00  4.08562E+01  2.312E-01  2.000E+01  2.000E+04 -3.210E-01
   1   12   18     1    18    2.2178E+05 -6.1971E+03   2.2798E+05  0.000E+00  0.000E+00  0.000E+00  4.03830E+01  2.352E-01  2.000E+01  2.000E+04 -3.099E-01
   1   12   19     1    19    2.2798E+05 -7.9002E+03   2.3588E+05  0.000E+00  0.000E+00  0.000E+00  3.99101E+01  2.396E-01  2.000E+01  2.000E+04 -3.950E-01
   1   13   20     1    20    2.3588E+05 -5.8758E+03   2.4175E+05  0.000E+00  0.000E+00  0.000E+00  3.94371E+01  2.439E-01  2.000E+01  2.000E+04 -2.938E-01
   1   14   21     1    21    2.4175E+05 -3.3173E+03   2.4507E+05  0.000E+00  0.000E+00  0.000E+00  3.89626E+01  2.467E-01  2.000E+01  2.000E+04 -1.659E-01
   1   14   22     1    22    2.4507E+05  4.9377E+03   2.4013E+05  0.000E+00  0.000E+00  0.000E+00  3.84848E+01  2.462E-01  2.000E+01  2.000E+04  2.469E-01
   1    9   30     2     1    5.0000E+04 -5.5551E+03   5.5555E+04  0.000E+00  0.000E+00  0.000E+00  4.02447E+01  1.197E-01  2.000E+01  2.000E+04 -2.778E-01
   1    9   29     2     2    5.5555E+04 -5.8549E+03   6.1410E+04  0.000E+00  0.000E+00  0.000E+00  4.00023E+01  1.273E-01  2.000E+01  2.000E+04 -2.927E-01
   1    9   28     2     3    6.1410E+04 -6.1810E+03   6.7591E+04  0.000E+00  0.000E+00  0.000E+00  3.97600E+01  1.350E-01  2.000E+01  2.000E+04 -3.091E-01
   1    9   27     2     4    6.7591E+04 -9.5777E+03   7.7169E+04  0.000E+00  0.000E+00  0.000E+00  3.95197E+01  1.447E-01  2.000E+01  2.000E+04 -4.789E-01
   1   10   26     2     5    7.7169E+04 -7.6945E+03   8.4863E+04  0.000E+00  0.000E+00  0.000E+00  3.92798E+01  1.548E-01  2.000E+01  2.000E+04 -3.847E-01
   1   11   25     2     6    8.4863E+04 -6.5569E+03   9.1420E+04  0.000E+00  0.000E+00  0.000E+00  3.90378E+01  1.628E-01  2.000E+01  2.000E+04 -3.278E-01
   1   12   24     2     7    9.1420E+04 -5.2775E+03   9.6698E+04  0.000E+00  0.000E+00  0.000E+00  3.87943E+01  1.693E-01  2.000E+01  2.000E+04 -2.639E-01
   1   13   23     2     8    9.6698E+04 -3.6827E+03   1.0038E+05  0.000E+00  0.000E+00  0.000E+00  3.85491E+01  1.741E-01  2.000E+01  2.000E+04 -1.841E-01
   1   14   22     2     9    1.0038E+05  1.2486E+03   9.9132E+04  0.000E+00  0.000E+00  0.000E+00  3.83004E+01  1.754E-01  2.000E+01  2.000E+04  6.243E-02
   1   14   22     3     1    3.3926E+05 -8.6133E+03   3.4788E+05  0.000E+00  0.000E+00  0.000E+00  3.78073E+01  2.517E-01  2.000E+01  2.000E+04 -4.307E-01
   1   15   23     3     2    3.4788E+05  1.0990E+03   3.4678E+05  0.000E+00  0.000E+00  0.000E+00  3.69200E+01  2.534E-01  2.000E+01  2.000E+04  5.495E-02
   1   15   24     3     3    3.4678E+05  2.1109E+03   3.4467E+05  0.000E+00  0.000E+00  0.000E+00  3.60304E+01  2.527E-01  2.000E+01  2.000E+04  1.055E-01
   1   15   25     3     4    3.4467E+05  1.1797E+03   3.4349E+05  0.000E+00  0.000E+00  0.000E+00  3.51408E+01  2.519E-01  2.000E+01  2.000E+04  5.899E-02
   1   15   26     3     5    3.4349E+05 -1.8418E+03   3.4533E+05  0.000E+00  0.000E+00  0.000E+00  3.42521E+01  2.521E-01  2.000E+01  2.000E+04 -9.209E-02
   1   16   27     3     6    3.4533E+05  2.0209E+03   3.4331E+05  0.000E+00  0.000E+00  0.000E+00  3.33632E+01  2.520E-01  2.000E+01  2.000E+04  1.010E-01
   1   17   28     3     7    3.4331E+05  4.2280E+03   3.3908E+05  0.000E+00  0.000E+00  0.000E+00  3.24729E+01  2.507E-01  2.000E+01  2.000E+04  2.114E-01
   1   18   29     3     8    3.3908E+05  3.4164E+03   3.3566E+05  0.000E+00  0.000E+00  0.000E+00  3.15823E+01  2.490E-01  2.000E+01  2.000E+04  1.708E-01
   1   18   30     3     9    3.3566E+05 -3.2783E+03   3.3894E+05  0.000E+00  0.000E+00  0.000E+00  3.06934E+01  2.489E-01  2.000E+01  2.000E+04 -1.639E-01



1
              HEAD IN LAYER   1 AT END OF TIME STEP   1 IN STRESS PERIOD    1
  ---------------------------------------------------------------------------

          1      2      3      4      5      6      7      8      9     10
         11     12     13     14     15     16     17     18     19     20
         21     22     23     24     25     26     27     28     29     30
 .........................................................................
   1  ****** ****** ****** ****** ****** ****** ****** ****** ****** ******
      ****** ****** ****** ****** ****** ****** ****** ****** ****** ******
      ****** ****** ****** ****** ****** ****** ****** ****** ****** ******
   2  ****** ****** ****** ****** ****** ****** ****** ****** ****** ******
      ****** ****** ****** ****** ****** ****** ****** ****** ****** ******
      ****** ****** ****** ****** ****** ****** ****** ****** ****** ******
   3  ****** ****** ****** ****** ****** ****** ****** ****** ****** ******
      ****** ****** ****** ****** ****** ****** ****** ****** ****** ******
      ****** ****** ****** ****** ****** ****** ****** ****** ****** ******
   4  ****** ****** ****** ****** ****** ****** ****** ****** ****** ******
      ****** ****** ****** ****** ****** ****** ****** ****** ****** ******
      ****** ****** ****** ****** ****** ****** ****** ****** ****** ******
   5  ****** ****** ****** ****** ****** ****** ****** ****** ****** ******
      ****** ****** ****** ****** ****** ****** ****** ****** ****** ******
      ****** ****** ****** ****** ****** ****** ****** ****** ****** ******
   6  ****** ****** ****** ****** ****** ****** ****** ****** ****** ******
      ****** ****** ****** ****** ****** ****** ****** ****** ****** ******
      ****** ****** ****** ****** ****** ****** ****** ****** ****** ******
   7  ****** ****** ****** ****** ****** ****** ****** ****** ****** ******
      ****** ****** ****** ****** ****** ****** ****** ****** ****** ******
      ****** ****** ****** ****** ****** ****** ****** ****** ****** ******
   8  ****** ****** ****** ****** ****** ****** ****** ****** ****** ******
      ****** ****** ****** ****** ****** ****** ****** ****** ****** ******
      ****** ****** ****** ****** ****** ****** ****** ****** ****** ******
   9  ****** ****** ****** ****** ****** ****** ****** ****** ****** ******
      ****** ****** ****** ****** ****** ****** ****** ****** ****** ******
      ****** ****** ****** ****** ****** ****** ****** ****** ****** ******
  10  ****** ****** ****** ****** ****** ****** ****** ****** ****** ******
      ****** ****** ****** ****** ****** ****** ****** ****** ****** ******
      ****** ****** ****** ****** ****** ****** ****** ****** ****** ******
  11  ****** ****** ****** ****** ****** ****** ****** ****** ****** ******
      ****** ****** ****** ****** ****** ****** ****** ****** ****** ******
      ****** ****** ****** ****** ****** ****** ****** ****** ****** ******
  12  ****** ****** ****** ****** ****** ****** ****** ****** ****** ******
      ****** ****** ****** ****** ****** ****** ****** ****** ****** ******
      ****** ****** ****** ****** ****** ****** ****** ****** ****** ******
  13  ****** ****** ****** ****** ****** ****** ****** ****** ****** ******
      ****** ****** ****** ****** ****** ****** ****** ****** ****** ******
      ****** ****** ****** ****** ****** ****** ****** ****** ****** ******
  14  ****** ****** ****** ****** ****** ****** ****** ****** ****** ******
      ****** ****** ****** ****** ****** ****** ****** ****** ****** ******
      ****** ****** ****** ****** ****** ****** ****** ****** ****** ******
  15  ****** ****** ****** ****** ****** ****** ****** ****** ****** ******
      ****** ****** ****** ****** ****** ****** ****** ****** ****** ******
      ****** ****** ****** ****** ****** ****** ****** ****** ****** ******
  16  ****** ****** ****** ****** ****** ****** ****** ****** ****** ******
      ****** ****** ****** ****** ****** ****** ****** ****** ****** ******
      ****** ****** ****** ****** ****** ****** ****** ****** ****** ******
  17  ****** ****** ****** ****** ****** ****** ****** ****** ****** ******
      ****** ****** ****** ****** ****** ****** ****** ****** ****** ******
      ****** ****** ****** ****** ****** ****** ****** ****** ****** ******
  18  ****** ****** ****** ****** ****** ****** ****** ****** ****** ******
      ****** ****** ****** ****** ****** ****** ****** ****** ****** ******
      ****** ****** ****** ****** ****** ****** ****** ****** ****** ******
  19  ****** ****** ****** ****** ****** ****** ****** ****** ****** ******
      ****** ****** ****** ****** ****** ****** ****** ****** ****** ******
      ****** ****** ****** ****** ****** ****** ****** ****** ****** ******
  20  ****** ****** ****** ****** ****** ****** ****** ****** ****** ******
      ****** ****** ****** ****** ****** ****** ****** ****** ****** ******
      ****** ****** ****** ****** ****** ****** ****** ****** ****** ******
  21  ****** ****** ****** ****** ****** ****** ****** ****** ****** ******
      ****** ****** ****** ****** ****** ****** ****** ****** ****** ******
      ****** ****** ****** ****** ****** ****** ****** ****** ****** ******
  22  ****** ****** ****** ****** ****** ****** ****** ****** ****** ******
      ****** ****** ****** ****** ****** ****** ****** ****** ****** ******
      ****** ****** ****** ****** ****** ****** ****** ****** ****** ******
  23  ****** ****** ****** ****** ****** ****** ****** ****** ****** ******
      ****** ****** ****** ****** ****** ****** ****** ****** ****** ******
      ****** ****** ****** ****** ****** ****** ****** ****** ****** ******
  24  ****** ****** ****** ****** ****** ****** ****** ****** ****** ******
      ****** ****** ****** ****** ****** ****** ****** ****** ****** ******
      ****** ****** ****** ****** ****** ****** ****** ****** ****** ******
  25  ****** ****** ****** ****** ****** ****** ****** ****** ****** ******
      ****** ****** ****** ****** ****** ****** ****** ****** ****** ******
      ****** ****** ****** ****** ****** ****** ****** ****** ****** ******

 HEAD WILL BE SAVED ON UNIT   51 AT END OF TIME STEP    1, STRESS PERIOD    1
1
  VOLUMETRIC BUDGET FOR ENTIRE MODEL AT END OF TIME STEP    1, STRESS PERIOD   1
  ------------------------------------------------------------------------------

     CUMULATIVE VOLUMES      L**3       RATES FOR THIS TIME STEP      L**3/T
     ------------------                 ------------------------

           IN:                                      IN:
           ---                                      ---
             STORAGE =    19430783.9327               STORAGE =      211204.1732
       CONSTANT HEAD =    10712298.4661         CONSTANT HEAD =      116438.0268
               WELLS =           0.0000                 WELLS =           0.0000
            RECHARGE =     1269600.0000              RECHARGE =       13800.0000
      STREAM LEAKAGE =     1862192.9864        STREAM LEAKAGE =       20241.2281

            TOTAL IN =    33274875.3852              TOTAL IN =      361683.4281

          OUT:                                     OUT:
          ----                                     ----
             STORAGE =           0.0000               STORAGE =           0.0000
       CONSTANT HEAD =           0.0000         CONSTANT HEAD =           0.0000
               WELLS =    14030069.0000                 WELLS =      152500.7500
            RECHARGE =           0.0000              RECHARGE =           0.0000
      STREAM LEAKAGE =    19244806.5345        STREAM LEAKAGE =      209182.6797

           TOTAL OUT =    33274875.5345             TOTAL OUT =      361683.4297

            IN - OUT =          -0.1492              IN - OUT =      -1.6219E-03

 PERCENT DISCREPANCY =          -0.00     PERCENT DISCREPANCY =          -0.00






         TIME SUMMARY AT END OF TIME STEP    1 IN STRESS PERIOD    1
                    SECONDS     MINUTES      HOURS       DAYS        YEARS
                    -----------------------------------------------------------
   TIME STEP LENGTH 7.94880E+06 1.32480E+05  2208.0      92.000     0.25188    
 STRESS PERIOD TIME 7.94880E+06 1.32480E+05  2208.0      92.000     0.25188    
         TOTAL TIME 7.94880E+06 1.32480E+05  2208.0      92.000     0.25188    
1
1
                            STRESS PERIOD NO.    2, LENGTH =   91.00000    
                            -----------------------------------------------

                              NUMBER OF TIME STEPS =     1

                               MULTIPLIER FOR DELT =     1.500

                            INITIAL TIME STEP SIZE =   91.00000    

 WELL NO.  LAYER   ROW   COL   STRESS RATE         
 --------------------------------------------------
      1      1     18     24     -0.5000E+05
      2      1     19     27     -0.5000E+05
      3      1     21     24     -0.5250E+05

      3 WELLS

                 RECHARGE =  2.000000E-03

 REUSING STREAM SEGMENT DATA FROM LAST STRESS PERIOD
 
 SOLVING FOR HEAD 


     7 CALLS TO PCG ROUTINE FOR TIME STEP   1 IN STRESS PERIOD    2
    27 TOTAL ITERATIONS

 OUTPUT CONTROL FOR STRESS PERIOD    2   TIME STEP    1
    SAVE BUDGET
    SAVE HEAD FOR ALL LAYERS
    PRINT HEAD FOR ALL LAYERS
 UBDSV2 SAVING "STREAMFLOW OUT  " ON UNIT  50 AT TIME STEP  1, STRESS PERIOD   2



 STREAM LISTING     PERIOD      2   STEP        1

 LAYER ROW COL. STREAM  RCH.  FLOW INTO     FLOW TO   FLOW OUT OF   OVRLND.     DIRECT     STREAM       STREAM     STREAM     STREAM   STREAMBED  STREAMBED
                SEG.NO.  NO.  STRM. RCH.    AQUIFER    STRM. RCH.    RUNOFF     PRECIP       ET          HEAD       DEPTH      WIDTH   CONDCTNC.   GRADIENT

   1   13    1     1     1    1.0000E+05 -3.8490E+03   1.0385E+05  0.000E+00  0.000E+00  0.000E+00  4.84077E+01  1.463E-01  2.000E+01  2.000E+04 -1.925E-01
   1   13    2     1     2    1.0385E+05 -6.2007E+03   1.1005E+05  0.000E+00  0.000E+00  0.000E+00  4.79347E+01  1.506E-01  2.000E+01  2.000E+04 -3.100E-01
   1   14    3     1     3    1.1005E+05 -5.1656E+03   1.1522E+05  0.000E+00  0.000E+00  0.000E+00  4.74622E+01  1.554E-01  2.000E+01  2.000E+04 -2.583E-01
   1   15    4     1     4    1.1522E+05 -5.0106E+03   1.2023E+05  0.000E+00  0.000E+00  0.000E+00  4.69891E+01  1.595E-01  2.000E+01  2.000E+04 -2.505E-01
   1   16    5     1     5    1.2023E+05 -5.1784E+03   1.2540E+05  0.000E+00  0.000E+00  0.000E+00  4.65159E+01  1.636E-01  2.000E+01  2.000E+04 -2.589E-01
   1   16    6     1     6    1.2540E+05 -4.1042E+03   1.2951E+05  0.000E+00  0.000E+00  0.000E+00  4.60423E+01  1.673E-01  2.000E+01  2.000E+04 -2.052E-01
   1   16    7     1     7    1.2951E+05 -4.1950E+03   1.3370E+05  0.000E+00  0.000E+00  0.000E+00  4.55683E+01  1.706E-01  2.000E+01  2.000E+04 -2.097E-01
   1   16    8     1     8    1.3370E+05 -4.2398E+03   1.3794E+05  0.000E+00  0.000E+00  0.000E+00  4.50943E+01  1.738E-01  2.000E+01  2.000E+04 -2.120E-01
   1   16    9     1     9    1.3794E+05 -4.2206E+03   1.4216E+05  0.000E+00  0.000E+00  0.000E+00  4.46202E+01  1.771E-01  2.000E+01  2.000E+04 -2.110E-01
   1   16   10     1    10    1.4216E+05 -4.1359E+03   1.4630E+05  0.000E+00  0.000E+00  0.000E+00  4.41461E+01  1.802E-01  2.000E+01  2.000E+04 -2.068E-01
   1   16   11     1    11    1.4630E+05 -3.9994E+03   1.5030E+05  0.000E+00  0.000E+00  0.000E+00  4.36719E+01  1.832E-01  2.000E+01  2.000E+04 -2.000E-01
   1   16   12     1    12    1.5030E+05 -4.9318E+03   1.5523E+05  0.000E+00  0.000E+00  0.000E+00  4.31979E+01  1.865E-01  2.000E+01  2.000E+04 -2.466E-01
   1   15   13     1    13    1.5523E+05 -4.7298E+03   1.5996E+05  0.000E+00  0.000E+00  0.000E+00  4.27241E+01  1.900E-01  2.000E+01  2.000E+04 -2.365E-01
   1   14   14     1    14    1.5996E+05 -4.8122E+03   1.6477E+05  0.000E+00  0.000E+00  0.000E+00  4.22503E+01  1.935E-01  2.000E+01  2.000E+04 -2.406E-01
   1   13   15     1    15    1.6477E+05 -5.1504E+03   1.6992E+05  0.000E+00  0.000E+00  0.000E+00  4.17766E+01  1.970E-01  2.000E+01  2.000E+04 -2.575E-01
   1   12   16     1    16    1.6992E+05 -6.6000E+03   1.7652E+05  0.000E+00  0.000E+00  0.000E+00  4.13034E+01  2.011E-01  2.000E+01  2.000E+04 -3.300E-01
   1   12   17     1    17    1.7652E+05 -4.1751E+03   1.8070E+05  0.000E+00  0.000E+00  0.000E+00  4.08299E+01  2.049E-01  2.000E+01  2.000E+04 -2.088E-01
   1   12   18     1    18    1.8070E+05 -3.9361E+03   1.8463E+05  0.000E+00  0.000E+00  0.000E+00  4.03554E+01  2.076E-01  2.000E+01  2.000E+04 -1.968E-01
   1   12   19     1    19    1.8463E+05 -5.2321E+03   1.8987E+05  0.000E+00  0.000E+00  0.000E+00  3.98812E+01  2.108E-01  2.000E+01  2.000E+04 -2.616E-01
   1   13   20     1    20    1.8987E+05 -2.7534E+03   1.9262E+05  0.000E+00  0.000E+00  0.000E+00  3.94066E+01  2.134E-01  2.000E+01  2.000E+04 -1.377E-01
   1   14   21     1    21    1.9262E+05 -3.5802E+00   1.9262E+05  0.000E+00  0.000E+00  0.000E+00  3.89303E+01  2.144E-01  2.000E+01  2.000E+04 -1.790E-04
   1   14   22     1    22    1.9262E+05  5.6777E+03   1.8695E+05  0.000E+00  0.000E+00  0.000E+00  3.84511E+01  2.125E-01  2.000E+01  2.000E+04  2.839E-01
   1    9   30     2     1    5.0000E+04 -3.4331E+03   5.3433E+04  0.000E+00  0.000E+00  0.000E+00  4.02432E+01  1.182E-01  2.000E+01  2.000E+04 -1.717E-01
   1    9   29     2     2    5.3433E+04 -3.7585E+03   5.7192E+04  0.000E+00  0.000E+00  0.000E+00  3.99981E+01  1.231E-01  2.000E+01  2.000E+04 -1.879E-01
   1    9   28     2     3    5.7192E+04 -4.1374E+03   6.1329E+04  0.000E+00  0.000E+00  0.000E+00  3.97533E+01  1.283E-01  2.000E+01  2.000E+04 -2.069E-01
   1    9   27     2     4    6.1329E+04 -7.1494E+03   6.8479E+04  0.000E+00  0.000E+00  0.000E+00  3.95105E+01  1.355E-01  2.000E+01  2.000E+04 -3.575E-01
   1   10   26     2     5    6.8479E+04 -4.7996E+03   7.3278E+04  0.000E+00  0.000E+00  0.000E+00  3.92679E+01  1.429E-01  2.000E+01  2.000E+04 -2.400E-01
   1   11   25     2     6    7.3278E+04 -3.6879E+03   7.6966E+04  0.000E+00  0.000E+00  0.000E+00  3.90229E+01  1.479E-01  2.000E+01  2.000E+04 -1.844E-01
   1   12   24     2     7    7.6966E+04 -2.6715E+03   7.9638E+04  0.000E+00  0.000E+00  0.000E+00  3.87766E+01  1.516E-01  2.000E+01  2.000E+04 -1.336E-01
   1   13   23     2     8    7.9638E+04 -1.5648E+03   8.1202E+04  0.000E+00  0.000E+00  0.000E+00  3.85291E+01  1.541E-01  2.000E+01  2.000E+04 -7.824E-02
   1   14   22     2     9    8.1202E+04  2.2300E+03   7.8972E+04  0.000E+00  0.000E+00  0.000E+00  3.82787E+01  1.537E-01  2.000E+01  2.000E+04  1.115E-01
   1   14   22     3     1    2.6592E+05 -7.8779E+03   2.7380E+05  0.000E+00  0.000E+00  0.000E+00  3.77733E+01  2.178E-01  2.000E+01  2.000E+04 -3.939E-01
   1   15   23     3     2    2.7380E+05  5.1525E+03   2.6864E+05  0.000E+00  0.000E+00  0.000E+00  3.68851E+01  2.184E-01  2.000E+01  2.000E+04  2.576E-01
   1   15   24     3     3    2.6864E+05  5.2348E+03   2.6341E+05  0.000E+00  0.000E+00  0.000E+00  3.59937E+01  2.159E-01  2.000E+01  2.000E+04  2.617E-01
   1   15   25     3     4    2.6341E+05  4.2515E+03   2.5916E+05  0.000E+00  0.000E+00  0.000E+00  3.51025E+01  2.136E-01  2.000E+01  2.000E+04  2.126E-01
   1   15   26     3     5    2.5916E+05  1.6466E+03   2.5751E+05  0.000E+00  0.000E+00  0.000E+00  3.42121E+01  2.121E-01  2.000E+01  2.000E+04  8.233E-02
   1   16   27     3     6    2.5751E+05  7.0050E+03   2.5051E+05  0.000E+00  0.000E+00  0.000E+00  3.33211E+01  2.100E-01  2.000E+01  2.000E+04  3.502E-01
   1   17   28     3     7    2.5051E+05  9.5517E+03   2.4095E+05  0.000E+00  0.000E+00  0.000E+00  3.24281E+01  2.059E-01  2.000E+01  2.000E+04  4.776E-01
   1   18   29     3     8    2.4095E+05  8.5055E+03   2.3245E+05  0.000E+00  0.000E+00  0.000E+00  3.15346E+01  2.013E-01  2.000E+01  2.000E+04  4.253E-01
   1   18   30     3     9    2.3245E+05  2.7606E+01   2.3242E+05  0.000E+00  0.000E+00  0.000E+00  3.06435E+01  1.991E-01  2.000E+01  2.000E+04  1.380E-03



1
              HEAD IN LAYER   1 AT END OF TIME STEP   1 IN STRESS PERIOD    2
  ---------------------------------------------------------------------------

          1      2      3      4      5      6      7      8      9     10
         11     12     13     14     15     16     17     18     19     20
         21     22     23     24     25     26     27     28     29     30
 .........................................................................
   1  ****** ****** ****** ****** ****** ****** ****** ****** ****** ******
      ****** ****** ****** ****** ****** ****** ****** ****** ****** ******
      ****** ****** ****** ****** ****** ****** ****** ****** ****** ******
   2  ****** ****** ****** ****** ****** ****** ****** ****** ****** ******
      ****** ****** ****** ****** ****** ****** ****** ****** ****** ******
      ****** ****** ****** ****** ****** ****** ****** ****** ****** ******
   3  ****** ****** ****** ****** ****** ****** ****** ****** ****** ******
      ****** ****** ****** ****** ****** ****** ****** ****** ****** ******
      ****** ****** ****** ****** ****** ****** ****** ****** ****** ******
   4  ****** ****** ****** ****** ****** ****** ****** ****** ****** ******
      ****** ****** ****** ****** ****** ****** ****** ****** ****** ******
      ****** ****** ****** ****** ****** ****** ****** ****** ****** ******
   5  ****** ****** ****** ****** ****** ****** ****** ****** ****** ******
      ****** ****** ****** ****** ****** ****** ****** ****** ****** ******
      ****** ****** ****** ****** ****** ****** ****** ****** ****** ******
   6  ****** ****** ****** ****** ****** ****** ****** ****** ****** ******
      ****** ****** ****** ****** ****** ****** ****** ****** ****** ******
      ****** ****** ****** ****** ****** ****** ****** ****** ****** ******
   7  ****** ****** ****** ****** ****** ****** ****** ****** ****** ******
      ****** ****** ****** ****** ****** ****** ****** ****** ****** ******
      ****** ****** ****** ****** ****** ****** ****** ****** ****** ******
   8  ****** ****** ****** ****** ****** ****** ****** ****** ****** ******
      ****** ****** ****** ****** ****** ****** ****** ****** ****** ******
      ****** ****** ****** ****** ****** ****** ****** ****** ****** ******
   9  ****** ****** ****** ****** ****** ****** ****** ****** ****** ******
      ****** ****** ****** ****** ****** ****** ****** ****** ****** ******
      ****** ****** ****** ****** ****** ****** ****** ****** ****** ******
  10  ****** ****** ****** ****** ****** ****** ****** ****** ****** ******
      ****** ****** ****** ****** ****** ****** ****** ****** ****** ******
      ****** ****** ****** ****** ****** ****** ****** ****** ****** ******
  11  ****** ****** ****** ****** ****** ****** ****** ****** ****** ******
      ****** ****** ****** ****** ****** ****** ****** ****** ****** ******
      ****** ****** ****** ****** ****** ****** ****** ****** ****** ******
  12  ****** ****** ****** ****** ****** ****** ****** ****** ****** ******
      ****** ****** ****** ****** ****** ****** ****** ****** ****** ******
      ****** ****** ****** ****** ****** ****** ****** ****** ****** ******
  13  ****** ****** ****** ****** ****** ****** ****** ****** ****** ******
      ****** ****** ****** ****** ****** ****** ****** ****** ****** ******
      ****** ****** ****** ****** ****** ****** ****** ****** ****** ******
  14  ****** ****** ****** ****** ****** ****** ****** ****** ****** ******
      ****** ****** ****** ****** ****** ****** ****** ****** ****** ******
      ****** ****** ****** ****** ****** ****** ****** ****** ****** ******
  15  ****** ****** ****** ****** ****** ****** ****** ****** ****** ******
      ****** ****** ****** ****** ****** ****** ****** ****** ****** ******
      ****** ****** ****** ****** ****** ****** ****** ****** ****** ******
  16  ****** ****** ****** ****** ****** ****** ****** ****** ****** ******
      ****** ****** ****** ****** ****** ****** ****** ****** ****** ******
      ****** ****** ****** ****** ****** ****** ****** ****** ****** ******
  17  ****** ****** ****** ****** ****** ****** ****** ****** ****** ******
      ****** ****** ****** ****** ****** ****** ****** ****** ****** ******
      ****** ****** ****** ****** ****** ****** ****** ****** ****** ******
  18  ****** ****** ****** ****** ****** ****** ****** ****** ****** ******
      ****** ****** ****** ****** ****** ****** ****** ****** ****** ******
      ****** ****** ****** ****** ****** ****** ****** ****** ****** ******
  19  ****** ****** ****** ****** ****** ****** ****** ****** ****** ******
      ****** ****** ****** ****** ****** ****** ****** ****** ****** ******
      ****** ****** ****** ****** ****** ****** ****** ****** ****** ******
  20  ****** ****** ****** ****** ****** ****** ****** ****** ****** ******
      ****** ****** ****** ****** ****** ****** ****** ****** ****** ******
      ****** ****** ****** ****** ****** ****** ****** ****** ****** ******
  21  ****** ****** ****** ****** ****** ****** ****** ****** ****** ******
      ****** ****** ****** ****** ****** ****** ****** ****** ****** ******
      ****** ****** ****** ****** ****** ****** ****** ****** ****** ******
  22  ****** ****** ****** ****** ****** ****** ****** ****** ****** ******
      ****** ****** ****** ****** ****** ****** ****** ****** ****** ******
      ****** ****** ****** ****** ****** ****** ****** ****** ****** ******
  23  ****** ****** ****** ****** ****** ****** ****** ****** ****** ******
      ****** ****** ****** ****** ****** ****** ****** ****** ****** ******
      ****** ****** ****** ****** ****** ****** ****** ****** ****** ******
  24  ****** ****** ****** ****** ****** ****** ****** ****** ****** ******
      ****** ****** ****** ****** ****** ****** ****** ****** ****** ******
      ****** ****** ****** ****** ****** ****** ****** ****** ****** ******
  25  ****** ****** ****** ****** ****** ****** ****** ****** ****** ******
      ****** ****** ****** ****** ****** ****** ****** ****** ****** ******
      ****** ****** ****** ****** ****** ****** ****** ****** ****** ******

 HEAD WILL BE SAVED ON UNIT   51 AT END OF TIME STEP    1, STRESS PERIOD    2
1
  VOLUMETRIC BUDGET FOR ENTIRE MODEL AT END OF TIME STEP    1, STRESS PERIOD   2
  ------------------------------------------------------------------------------

     CUMULATIVE VOLUMES      L**3       RATES FOR THIS TIME STEP      L**3/T
     ------------------                 ------------------------

           IN:                                      IN:
           ---                                      ---
             STORAGE =    23035079.7178               STORAGE =       39607.6460
       CONSTANT HEAD =    23462670.1717         CONSTANT HEAD =      140113.9748
               WELLS =           0.0000                 WELLS =           0.0000
            RECHARGE =     6292800.0000              RECHARGE =       55200.0000
      STREAM LEAKAGE =     6346947.3172        STREAM LEAKAGE =       49283.0146

            TOTAL IN =    59137497.2068              TOTAL IN =      284204.6354

          OUT:                                     OUT:
          ----                                     ----
             STORAGE =           0.0000               STORAGE =           0.0000
       CONSTANT HEAD =           0.0000         CONSTANT HEAD =           0.0000
               WELLS =    27907637.2500                 WELLS =      152500.7500
            RECHARGE =           0.0000              RECHARGE =           0.0000
      STREAM LEAKAGE =    31229860.5552        STREAM LEAKAGE =      131703.8903

           TOTAL OUT =    59137497.8052             TOTAL OUT =      284204.6403

            IN - OUT =          -0.5984              IN - OUT =      -4.9363E-03

 PERCENT DISCREPANCY =          -0.00     PERCENT DISCREPANCY =          -0.00






         TIME SUMMARY AT END OF TIME STEP    1 IN STRESS PERIOD    2
                    SECONDS     MINUTES      HOURS       DAYS        YEARS
                    -----------------------------------------------------------
   TIME STEP LENGTH 7.86240E+06 1.31040E+05  2184.0      91.000     0.24914    
 STRESS PERIOD TIME 7.86240E+06 1.31040E+05  2184.0      91.000     0.24914    
         TOTAL TIME 1.58112E+07 2.63520E+05  4392.0      183.00     0.50103    
1
1
                            STRESS PERIOD NO.    3, LENGTH =   91.00000    
                            -----------------------------------------------

                              NUMBER OF TIME STEPS =     1

                               MULTIPLIER FOR DELT =     1.500

                            INITIAL TIME STEP SIZE =   91.00000    

 WELL NO.  LAYER   ROW   COL   STRESS RATE         
 --------------------------------------------------
      1      1     18     24     -0.5000E+05
      2      1     19     27     -0.5000E+05
      3      1     21     24     -0.5250E+05

      3 WELLS

                 RECHARGE =   0.00000    

 REUSING STREAM SEGMENT DATA FROM LAST STRESS PERIOD
 
 SOLVING FOR HEAD 


     7 CALLS TO PCG ROUTINE FOR TIME STEP   1 IN STRESS PERIOD    3
    27 TOTAL ITERATIONS

 OUTPUT CONTROL FOR STRESS PERIOD    3   TIME STEP    1
    SAVE BUDGET
    SAVE HEAD FOR ALL LAYERS
    PRINT HEAD FOR ALL LAYERS
 UBDSV2 SAVING "STREAMFLOW OUT  " ON UNIT  50 AT TIME STEP  1, STRESS PERIOD   3



 STREAM LISTING     PERIOD      3   STEP        1

 LAYER ROW COL. STREAM  RCH.  FLOW INTO     FLOW TO   FLOW OUT OF   OVRLND.     DIRECT     STREAM       STREAM     STREAM     STREAM   STREAMBED  STREAMBED
                SEG.NO.  NO.  STRM. RCH.    AQUIFER    STRM. RCH.    RUNOFF     PRECIP       ET          HEAD       DEPTH      WIDTH   CONDCTNC.   GRADIENT

   1   13    1     1     1    1.0000E+05 -2.9396E+03   1.0294E+05  0.000E+00  0.000E+00  0.000E+00  4.84073E+01  1.459E-01  2.000E+01  2.000E+04 -1.470E-01
   1   13    2     1     2    1.0294E+05 -4.9557E+03   1.0790E+05  0.000E+00  0.000E+00  0.000E+00  4.79334E+01  1.493E-01  2.000E+01  2.000E+04 -2.478E-01
   1   14    3     1     3    1.0790E+05 -3.9273E+03   1.1182E+05  0.000E+00  0.000E+00  0.000E+00  4.74599E+01  1.530E-01  2.000E+01  2.000E+04 -1.964E-01
   1   15    4     1     4    1.1182E+05 -3.7939E+03   1.1562E+05  0.000E+00  0.000E+00  0.000E+00  4.69858E+01  1.563E-01  2.000E+01  2.000E+04 -1.897E-01
   1   16    5     1     5    1.1562E+05 -4.0747E+03   1.1969E+05  0.000E+00  0.000E+00  0.000E+00  4.65117E+01  1.595E-01  2.000E+01  2.000E+04 -2.037E-01
   1   16    6     1     6    1.1969E+05 -3.2312E+03   1.2292E+05  0.000E+00  0.000E+00  0.000E+00  4.60374E+01  1.624E-01  2.000E+01  2.000E+04 -1.616E-01
   1   16    7     1     7    1.2292E+05 -3.2978E+03   1.2622E+05  0.000E+00  0.000E+00  0.000E+00  4.55628E+01  1.650E-01  2.000E+01  2.000E+04 -1.649E-01
   1   16    8     1     8    1.2622E+05 -3.3250E+03   1.2955E+05  0.000E+00  0.000E+00  0.000E+00  4.50881E+01  1.677E-01  2.000E+01  2.000E+04 -1.663E-01
   1   16    9     1     9    1.2955E+05 -3.2971E+03   1.3284E+05  0.000E+00  0.000E+00  0.000E+00  4.46134E+01  1.702E-01  2.000E+01  2.000E+04 -1.649E-01
   1   16   10     1    10    1.3284E+05 -3.2106E+03   1.3605E+05  0.000E+00  0.000E+00  0.000E+00  4.41387E+01  1.728E-01  2.000E+01  2.000E+04 -1.605E-01
   1   16   11     1    11    1.3605E+05 -3.0707E+03   1.3912E+05  0.000E+00  0.000E+00  0.000E+00  4.36638E+01  1.752E-01  2.000E+01  2.000E+04 -1.535E-01
   1   16   12     1    12    1.3912E+05 -3.6453E+03   1.4277E+05  0.000E+00  0.000E+00  0.000E+00  4.31891E+01  1.777E-01  2.000E+01  2.000E+04 -1.823E-01
   1   15   13     1    13    1.4277E+05 -3.3150E+03   1.4608E+05  0.000E+00  0.000E+00  0.000E+00  4.27144E+01  1.803E-01  2.000E+01  2.000E+04 -1.657E-01
   1   14   14     1    14    1.4608E+05 -3.3615E+03   1.4945E+05  0.000E+00  0.000E+00  0.000E+00  4.22397E+01  1.828E-01  2.000E+01  2.000E+04 -1.681E-01
   1   13   15     1    15    1.4945E+05 -3.7452E+03   1.5319E+05  0.000E+00  0.000E+00  0.000E+00  4.17650E+01  1.855E-01  2.000E+01  2.000E+04 -1.873E-01
   1   12   16     1    16    1.5319E+05 -5.3053E+03   1.5850E+05  0.000E+00  0.000E+00  0.000E+00  4.12910E+01  1.888E-01  2.000E+01  2.000E+04 -2.653E-01
   1   12   17     1    17    1.5850E+05 -3.2068E+03   1.6170E+05  0.000E+00  0.000E+00  0.000E+00  4.08168E+01  1.918E-01  2.000E+01  2.000E+04 -1.603E-01
   1   12   18     1    18    1.6170E+05 -2.9821E+03   1.6468E+05  0.000E+00  0.000E+00  0.000E+00  4.03418E+01  1.941E-01  2.000E+01  2.000E+04 -1.491E-01
   1   12   19     1    19    1.6468E+05 -4.0985E+03   1.6878E+05  0.000E+00  0.000E+00  0.000E+00  3.98670E+01  1.966E-01  2.000E+01  2.000E+04 -2.049E-01
   1   13   20     1    20    1.6878E+05 -1.5589E+03   1.7034E+05  0.000E+00  0.000E+00  0.000E+00  3.93918E+01  1.986E-01  2.000E+01  2.000E+04 -7.795E-02
   1   14   21     1    21    1.7034E+05  1.2842E+03   1.6906E+05  0.000E+00  0.000E+00  0.000E+00  3.89146E+01  1.987E-01  2.000E+01  2.000E+04  6.421E-02
   1   14   22     1    22    1.6906E+05  5.8902E+03   1.6317E+05  0.000E+00  0.000E+00  0.000E+00  3.84348E+01  1.961E-01  2.000E+01  2.000E+04  2.945E-01
   1    9   30     2     1    5.0000E+04 -2.6632E+03   5.2663E+04  0.000E+00  0.000E+00  0.000E+00  4.02427E+01  1.177E-01  2.000E+01  2.000E+04 -1.332E-01
   1    9   29     2     2    5.2663E+04 -2.9990E+03   5.5662E+04  0.000E+00  0.000E+00  0.000E+00  3.99966E+01  1.216E-01  2.000E+01  2.000E+04 -1.499E-01
   1    9   28     2     3    5.5662E+04 -3.3893E+03   5.9052E+04  0.000E+00  0.000E+00  0.000E+00  3.97508E+01  1.258E-01  2.000E+01  2.000E+04 -1.695E-01
   1    9   27     2     4    5.9052E+04 -6.1404E+03   6.5192E+04  0.000E+00  0.000E+00  0.000E+00  3.95070E+01  1.320E-01  2.000E+01  2.000E+04 -3.070E-01
   1   10   26     2     5    6.5192E+04 -3.7304E+03   6.8922E+04  0.000E+00  0.000E+00  0.000E+00  3.92632E+01  1.382E-01  2.000E+01  2.000E+04 -1.865E-01
   1   11   25     2     6    6.8922E+04 -2.6676E+03   7.1590E+04  0.000E+00  0.000E+00  0.000E+00  3.90171E+01  1.421E-01  2.000E+01  2.000E+04 -1.334E-01
   1   12   24     2     7    7.1590E+04 -1.7943E+03   7.3384E+04  0.000E+00  0.000E+00  0.000E+00  3.87698E+01  1.448E-01  2.000E+01  2.000E+04 -8.972E-02
   1   13   23     2     8    7.3384E+04 -9.1110E+02   7.4295E+04  0.000E+00  0.000E+00  0.000E+00  3.85214E+01  1.464E-01  2.000E+01  2.000E+04 -4.555E-02
   1   14   22     2     9    7.4295E+04  2.6026E+03   7.1693E+04  0.000E+00  0.000E+00  0.000E+00  3.82704E+01  1.454E-01  2.000E+01  2.000E+04  1.301E-01
   1   14   22     3     1    2.3486E+05 -7.6482E+03   2.4251E+05  0.000E+00  0.000E+00  0.000E+00  3.77579E+01  2.023E-01  2.000E+01  2.000E+04 -3.824E-01
   1   15   23     3     2    2.4251E+05  6.5428E+03   2.3597E+05  0.000E+00  0.000E+00  0.000E+00  3.68692E+01  2.026E-01  2.000E+01  2.000E+04  3.271E-01
   1   15   24     3     3    2.3597E+05  6.1621E+03   2.2980E+05  0.000E+00  0.000E+00  0.000E+00  3.59771E+01  1.993E-01  2.000E+01  2.000E+04  3.081E-01
   1   15   25     3     4    2.2980E+05  5.1255E+03   2.2468E+05  0.000E+00  0.000E+00  0.000E+00  3.50853E+01  1.964E-01  2.000E+01  2.000E+04  2.563E-01
   1   15   26     3     5    2.2468E+05  2.6588E+03   2.2202E+05  0.000E+00  0.000E+00  0.000E+00  3.41944E+01  1.944E-01  2.000E+01  2.000E+04  1.329E-01
   1   16   27     3     6    2.2202E+05  8.4629E+03   2.1356E+05  0.000E+00  0.000E+00  0.000E+00  3.33026E+01  1.915E-01  2.000E+01  2.000E+04  4.231E-01
   1   17   28     3     7    2.1356E+05  1.1097E+04   2.0246E+05  0.000E+00  0.000E+00  0.000E+00  3.24085E+01  1.863E-01  2.000E+01  2.000E+04  5.549E-01
   1   18   29     3     8    2.0246E+05  1.0057E+04   1.9240E+05  0.000E+00  0.000E+00  0.000E+00  3.15139E+01  1.805E-01  2.000E+01  2.000E+04  5.028E-01
   1   18   30     3     9    1.9240E+05  1.0496E+03   1.9135E+05  0.000E+00  0.000E+00  0.000E+00  3.06219E+01  1.775E-01  2.000E+01  2.000E+04  5.248E-02



1
              HEAD IN LAYER   1 AT END OF TIME STEP   1 IN STRESS PERIOD    3
  ---------------------------------------------------------------------------

          1      2      3      4      5      6      7      8      9     10
         11     12     13     14     15     16     17     18     19     20
         21     22     23     24     25     26     27     28     29     30
 .........................................................................
   1  ****** ****** ****** ****** ****** ****** ****** ****** ****** ******
      ****** ****** ****** ****** ****** ****** ****** ****** ****** ******
      ****** ****** ****** ****** ****** ****** ****** ****** ****** ******
   2  ****** ****** ****** ****** ****** ****** ****** ****** ****** ******
      ****** ****** ****** ****** ****** ****** ****** ****** ****** ******
      ****** ****** ****** ****** ****** ****** ****** ****** ****** ******
   3  ****** ****** ****** ****** ****** ****** ****** ****** ****** ******
      ****** ****** ****** ****** ****** ****** ****** ****** ****** ******
      ****** ****** ****** ****** ****** ****** ****** ****** ****** ******
   4  ****** ****** ****** ****** ****** ****** ****** ****** ****** ******
      ****** ****** ****** ****** ****** ****** ****** ****** ****** ******
      ****** ****** ****** ****** ****** ****** ****** ****** ****** ******
   5  ****** ****** ****** ****** ****** ****** ****** ****** ****** ******
      ****** ****** ****** ****** ****** ****** ****** ****** ****** ******
      ****** ****** ****** ****** ****** ****** ****** ****** ****** ******
   6  ****** ****** ****** ****** ****** ****** ****** ****** ****** ******
      ****** ****** ****** ****** ****** ****** ****** ****** ****** ******
      ****** ****** ****** ****** ****** ****** ****** ****** ****** ******
   7  ****** ****** ****** ****** ****** ****** ****** ****** ****** ******
      ****** ****** ****** ****** ****** ****** ****** ****** ****** ******
      ****** ****** ****** ****** ****** ****** ****** ****** ****** ******
   8  ****** ****** ****** ****** ****** ****** ****** ****** ****** ******
      ****** ****** ****** ****** ****** ****** ****** ****** ****** ******
      ****** ****** ****** ****** ****** ****** ****** ****** ****** ******
   9  ****** ****** ****** ****** ****** ****** ****** ****** ****** ******
      ****** ****** ****** ****** ****** ****** ****** ****** ****** ******
      ****** ****** ****** ****** ****** ****** ****** ****** ****** ******
  10  ****** ****** ****** ****** ****** ****** ****** ****** ****** ******
      ****** ****** ****** ****** ****** ****** ****** ****** ****** ******
      ****** ****** ****** ****** ****** ****** ****** ****** ****** ******
  11  ****** ****** ****** ****** ****** ****** ****** ****** ****** ******
      ****** ****** ****** ****** ****** ****** ****** ****** ****** ******
      ****** ****** ****** ****** ****** ****** ****** ****** ****** ******
  12  ****** ****** ****** ****** ****** ****** ****** ****** ****** ******
      ****** ****** ****** ****** ****** ****** ****** ****** ****** ******
      ****** ****** ****** ****** ****** ****** ****** ****** ****** ******
  13  ****** ****** ****** ****** ****** ****** ****** ****** ****** ******
      ****** ****** ****** ****** ****** ****** ****** ****** ****** ******
      ****** ****** ****** ****** ****** ****** ****** ****** ****** ******
  14  ****** ****** ****** ****** ****** ****** ****** ****** ****** ******
      ****** ****** ****** ****** ****** ****** ****** ****** ****** ******
      ****** ****** ****** ****** ****** ****** ****** ****** ****** ******
  15  ****** ****** ****** ****** ****** ****** ****** ****** ****** ******
      ****** ****** ****** ****** ****** ****** ****** ****** ****** ******
      ****** ****** ****** ****** ****** ****** ****** ****** ****** ******
  16  ****** ****** ****** ****** ****** ****** ****** ****** ****** ******
      ****** ****** ****** ****** ****** ****** ****** ****** ****** ******
      ****** ****** ****** ****** ****** ****** ****** ****** ****** ******
  17  ****** ****** ****** ****** ****** ****** ****** ****** ****** ******
      ****** ****** ****** ****** ****** ****** ****** ****** ****** ******
      ****** ****** ****** ****** ****** ****** ****** ****** ****** ******
  18  ****** ****** ****** ****** ****** ****** ****** ****** ****** ******
      ****** ****** ****** ****** ****** ****** ****** ****** ****** ******
      ****** ****** ****** ****** ****** ****** ****** ****** ****** ******
  19  ****** ****** ****** ****** ****** ****** ****** ****** ****** ******
      ****** ****** ****** ****** ****** ****** ****** ****** ****** ******
      ****** ****** ****** ****** ****** ****** ****** ****** ****** ******
  20  ****** ****** ****** ****** ****** ****** ****** ****** ****** ******
      ****** ****** ****** ****** ****** ****** ****** ****** ****** ******
      ****** ****** ****** ****** ****** ****** ****** ****** ****** ******
  21  ****** ****** ****** ****** ****** ****** ****** ****** ****** ******
      ****** ****** ****** ****** ****** ****** ****** ****** ****** ******
      ****** ****** ****** ****** ****** ****** ****** ****** ****** ******
  22  ****** ****** ****** ****** ****** ****** ****** ****** ****** ******
      ****** ****** ****** ****** ****** ****** ****** ****** ****** ******
      ****** ****** ****** ****** ****** ****** ****** ****** ****** ******
  23  ****** ****** ****** ****** ****** ****** ****** ****** ****** ******
      ****** ****** ****** ****** ****** ****** ****** ****** ****** ******
      ****** ****** ****** ****** ****** ****** ****** ****** ****** ******
  24  ****** ****** ****** ****** ****** ****** ****** ****** ****** ******
      ****** ****** ****** ****** ****** ****** ****** ****** ****** ******
      ****** ****** ****** ****** ****** ****** ****** ****** ****** ******
  25  ****** ****** ****** ****** ****** ****** ****** ****** ****** ******
      ****** ****** ****** ****** ****** ****** ****** ****** ****** ******
      ****** ****** ****** ****** ****** ****** ****** ****** ****** ******

 HEAD WILL BE SAVED ON UNIT   51 AT END OF TIME STEP    1, STRESS PERIOD    3
1
  VOLUMETRIC BUDGET FOR ENTIRE MODEL AT END OF TIME STEP    1, STRESS PERIOD   3
  ------------------------------------------------------------------------------

     CUMULATIVE VOLUMES      L**3       RATES FOR THIS TIME STEP      L**3/T
     ------------------                 ------------------------

           IN:                                      IN:
           ---                                      ---
             STORAGE =    25581064.9631               STORAGE =       27977.8598
       CONSTANT HEAD =    38557348.2287         CONSTANT HEAD =      165875.5830
               WELLS =           0.0000                 WELLS =           0.0000
            RECHARGE =     6292800.0000              RECHARGE =           0.0000
      STREAM LEAKAGE =    11891842.8100        STREAM LEAKAGE =       60932.9175

            TOTAL IN =    82323056.0017              TOTAL IN =      254786.3604

          OUT:                                     OUT:
          ----                                     ----
             STORAGE =           0.0000               STORAGE =           0.0000
       CONSTANT HEAD =           0.0000         CONSTANT HEAD =           0.0000
               WELLS =    41785205.5000                 WELLS =      152500.7500
            RECHARGE =           0.0000              RECHARGE =           0.0000
      STREAM LEAKAGE =    40537851.3363        STREAM LEAKAGE =      102285.6130

           TOTAL OUT =    82323056.8363             TOTAL OUT =      254786.3630

            IN - OUT =          -0.8346              IN - OUT =      -2.5952E-03

 PERCENT DISCREPANCY =          -0.00     PERCENT DISCREPANCY =          -0.00






         TIME SUMMARY AT END OF TIME STEP    1 IN STRESS PERIOD    3
                    SECONDS     MINUTES      HOURS       DAYS        YEARS
                    -----------------------------------------------------------
   TIME STEP LENGTH 7.86240E+06 1.31040E+05  2184.0      91.000     0.24914    
 STRESS PERIOD TIME 7.86240E+06 1.31040E+05  2184.0      91.000     0.24914    
         TOTAL TIME 2.36736E+07 3.94560E+05  6576.0      274.00     0.75017    
1
1
                            STRESS PERIOD NO.    4, LENGTH =   91.00000    
                            -----------------------------------------------

                              NUMBER OF TIME STEPS =     1

                               MULTIPLIER FOR DELT =     1.500

                            INITIAL TIME STEP SIZE =   91.00000    

 WELL NO.  LAYER   ROW   COL   STRESS RATE         
 --------------------------------------------------
      1      1     18     24     -0.5000E+05
      2      1     19     27     -0.5000E+05
      3      1     21     24     -0.5250E+05

      3 WELLS

                 RECHARGE =  1.000000E-03

 REUSING STREAM SEGMENT DATA FROM LAST STRESS PERIOD
 
 SOLVING FOR HEAD 


     6 CALLS TO PCG ROUTINE FOR TIME STEP   1 IN STRESS PERIOD    4
    21 TOTAL ITERATIONS

 OUTPUT CONTROL FOR STRESS PERIOD    4   TIME STEP    1
    SAVE BUDGET
    SAVE HEAD FOR ALL LAYERS
    PRINT HEAD FOR ALL LAYERS
 UBDSV2 SAVING "STREAMFLOW OUT  " ON UNIT  50 AT TIME STEP  1, STRESS PERIOD   4



 STREAM LISTING     PERIOD      4   STEP        1

 LAYER ROW COL. STREAM  RCH.  FLOW INTO     FLOW TO   FLOW OUT OF   OVRLND.     DIRECT     STREAM       STREAM     STREAM     STREAM   STREAMBED  STREAMBED
                SEG.NO.  NO.  STRM. RCH.    AQUIFER    STRM. RCH.    RUNOFF     PRECIP       ET          HEAD       DEPTH      WIDTH   CONDCTNC.   GRADIENT

   1   13    1     1     1    1.0000E+05 -2.9642E+03   1.0296E+05  0.000E+00  0.000E+00  0.000E+00  4.84073E+01  1.459E-01  2.000E+01  2.000E+04 -1.482E-01
   1   13    2     1     2    1.0296E+05 -4.9509E+03   1.0792E+05  0.000E+00  0.000E+00  0.000E+00  4.79334E+01  1.493E-01  2.000E+01  2.000E+04 -2.475E-01
   1   14    3     1     3    1.0792E+05 -3.9773E+03   1.1189E+05  0.000E+00  0.000E+00  0.000E+00  4.74599E+01  1.531E-01  2.000E+01  2.000E+04 -1.989E-01
   1   15    4     1     4    1.1189E+05 -3.8607E+03   1.1575E+05  0.000E+00  0.000E+00  0.000E+00  4.69859E+01  1.563E-01  2.000E+01  2.000E+04 -1.930E-01
   1   16    5     1     5    1.1575E+05 -4.1482E+03   1.1990E+05  0.000E+00  0.000E+00  0.000E+00  4.65119E+01  1.596E-01  2.000E+01  2.000E+04 -2.074E-01
   1   16    6     1     6    1.1990E+05 -3.2842E+03   1.2319E+05  0.000E+00  0.000E+00  0.000E+00  4.60376E+01  1.626E-01  2.000E+01  2.000E+04 -1.642E-01
   1   16    7     1     7    1.2319E+05 -3.3455E+03   1.2653E+05  0.000E+00  0.000E+00  0.000E+00  4.55630E+01  1.653E-01  2.000E+01  2.000E+04 -1.673E-01
   1   16    8     1     8    1.2653E+05 -3.3685E+03   1.2990E+05  0.000E+00  0.000E+00  0.000E+00  4.50884E+01  1.679E-01  2.000E+01  2.000E+04 -1.684E-01
   1   16    9     1     9    1.2990E+05 -3.3369E+03   1.3324E+05  0.000E+00  0.000E+00  0.000E+00  4.46137E+01  1.705E-01  2.000E+01  2.000E+04 -1.668E-01
   1   16   10     1    10    1.3324E+05 -3.2468E+03   1.3648E+05  0.000E+00  0.000E+00  0.000E+00  4.41390E+01  1.731E-01  2.000E+01  2.000E+04 -1.623E-01
   1   16   11     1    11    1.3648E+05 -3.1010E+03   1.3958E+05  0.000E+00  0.000E+00  0.000E+00  4.36642E+01  1.755E-01  2.000E+01  2.000E+04 -1.551E-01
   1   16   12     1    12    1.3958E+05 -3.6479E+03   1.4323E+05  0.000E+00  0.000E+00  0.000E+00  4.31894E+01  1.781E-01  2.000E+01  2.000E+04 -1.824E-01
   1   15   13     1    13    1.4323E+05 -3.3153E+03   1.4655E+05  0.000E+00  0.000E+00  0.000E+00  4.27148E+01  1.807E-01  2.000E+01  2.000E+04 -1.658E-01
   1   14   14     1    14    1.4655E+05 -3.3564E+03   1.4990E+05  0.000E+00  0.000E+00  0.000E+00  4.22400E+01  1.832E-01  2.000E+01  2.000E+04 -1.678E-01
   1   13   15     1    15    1.4990E+05 -3.7435E+03   1.5365E+05  0.000E+00  0.000E+00  0.000E+00  4.17653E+01  1.858E-01  2.000E+01  2.000E+04 -1.872E-01
   1   12   16     1    16    1.5365E+05 -5.2973E+03   1.5894E+05  0.000E+00  0.000E+00  0.000E+00  4.12914E+01  1.891E-01  2.000E+01  2.000E+04 -2.649E-01
   1   12   17     1    17    1.5894E+05 -3.2213E+03   1.6217E+05  0.000E+00  0.000E+00  0.000E+00  4.08172E+01  1.922E-01  2.000E+01  2.000E+04 -1.611E-01
   1   12   18     1    18    1.6217E+05 -3.0032E+03   1.6517E+05  0.000E+00  0.000E+00  0.000E+00  4.03421E+01  1.944E-01  2.000E+01  2.000E+04 -1.502E-01
   1   12   19     1    19    1.6517E+05 -4.1397E+03   1.6931E+05  0.000E+00  0.000E+00  0.000E+00  3.98674E+01  1.969E-01  2.000E+01  2.000E+04 -2.070E-01
   1   13   20     1    20    1.6931E+05 -1.5963E+03   1.7091E+05  0.000E+00  0.000E+00  0.000E+00  3.93921E+01  1.990E-01  2.000E+01  2.000E+04 -7.981E-02
   1   14   21     1    21    1.7091E+05  1.3116E+03   1.6959E+05  0.000E+00  0.000E+00  0.000E+00  3.89150E+01  1.991E-01  2.000E+01  2.000E+04  6.558E-02
   1   14   22     1    22    1.6959E+05  5.8715E+03   1.6372E+05  0.000E+00  0.000E+00  0.000E+00  3.84352E+01  1.965E-01  2.000E+01  2.000E+04  2.936E-01
   1    9   30     2     1    5.0000E+04 -2.7747E+03   5.2775E+04  0.000E+00  0.000E+00  0.000E+00  4.02428E+01  1.178E-01  2.000E+01  2.000E+04 -1.387E-01
   1    9   29     2     2    5.2775E+04 -3.1088E+03   5.5884E+04  0.000E+00  0.000E+00  0.000E+00  3.99968E+01  1.218E-01  2.000E+01  2.000E+04 -1.554E-01
   1    9   28     2     3    5.5884E+04 -3.4952E+03   5.9379E+04  0.000E+00  0.000E+00  0.000E+00  3.97512E+01  1.262E-01  2.000E+01  2.000E+04 -1.748E-01
   1    9   27     2     4    5.9379E+04 -6.2505E+03   6.5629E+04  0.000E+00  0.000E+00  0.000E+00  3.95075E+01  1.325E-01  2.000E+01  2.000E+04 -3.125E-01
   1   10   26     2     5    6.5629E+04 -3.8583E+03   6.9488E+04  0.000E+00  0.000E+00  0.000E+00  3.92638E+01  1.388E-01  2.000E+01  2.000E+04 -1.929E-01
   1   11   25     2     6    6.9488E+04 -2.7963E+03   7.2284E+04  0.000E+00  0.000E+00  0.000E+00  3.90179E+01  1.429E-01  2.000E+01  2.000E+04 -1.398E-01
   1   12   24     2     7    7.2284E+04 -1.9199E+03   7.4204E+04  0.000E+00  0.000E+00  0.000E+00  3.87707E+01  1.457E-01  2.000E+01  2.000E+04 -9.599E-02
   1   13   23     2     8    7.4204E+04 -1.0228E+03   7.5227E+04  0.000E+00  0.000E+00  0.000E+00  3.85224E+01  1.474E-01  2.000E+01  2.000E+04 -5.114E-02
   1   14   22     2     9    7.5227E+04  2.5984E+03   7.2628E+04  0.000E+00  0.000E+00  0.000E+00  3.82715E+01  1.465E-01  2.000E+01  2.000E+04  1.299E-01
   1   14   22     3     1    2.3635E+05 -7.6594E+03   2.4401E+05  0.000E+00  0.000E+00  0.000E+00  3.77586E+01  2.031E-01  2.000E+01  2.000E+04 -3.830E-01
   1   15   23     3     2    2.4401E+05  6.6070E+03   2.3740E+05  0.000E+00  0.000E+00  0.000E+00  3.68700E+01  2.033E-01  2.000E+01  2.000E+04  3.303E-01
   1   15   24     3     3    2.3740E+05  6.1616E+03   2.3124E+05  0.000E+00  0.000E+00  0.000E+00  3.59779E+01  2.001E-01  2.000E+01  2.000E+04  3.081E-01
   1   15   25     3     4    2.3124E+05  5.0972E+03   2.2614E+05  0.000E+00  0.000E+00  0.000E+00  3.50861E+01  1.972E-01  2.000E+01  2.000E+04  2.549E-01
   1   15   26     3     5    2.2614E+05  2.5764E+03   2.2357E+05  0.000E+00  0.000E+00  0.000E+00  3.41952E+01  1.952E-01  2.000E+01  2.000E+04  1.288E-01
   1   16   27     3     6    2.2357E+05  8.4239E+03   2.1514E+05  0.000E+00  0.000E+00  0.000E+00  3.33034E+01  1.923E-01  2.000E+01  2.000E+04  4.212E-01
   1   17   28     3     7    2.1514E+05  1.1077E+04   2.0407E+05  0.000E+00  0.000E+00  0.000E+00  3.24094E+01  1.871E-01  2.000E+01  2.000E+04  5.538E-01
   1   18   29     3     8    2.0407E+05  1.0079E+04   1.9399E+05  0.000E+00  0.000E+00  0.000E+00  3.15147E+01  1.814E-01  2.000E+01  2.000E+04  5.040E-01
   1   18   30     3     9    1.9399E+05  1.0181E+03   1.9297E+05  0.000E+00  0.000E+00  0.000E+00  3.06228E+01  1.784E-01  2.000E+01  2.000E+04  5.090E-02



1
              HEAD IN LAYER   1 AT END OF TIME STEP   1 IN STRESS PERIOD    4
  ---------------------------------------------------------------------------

          1      2      3      4      5      6      7      8      9     10
         11     12     13     14     15     16     17     18     19     20
         21     22     23     24     25     26     27     28     29     30
 .........................................................................
   1  ****** ****** ****** ****** ****** ****** ****** ****** ****** ******
      ****** ****** ****** ****** ****** ****** ****** ****** ****** ******
      ****** ****** ****** ****** ****** ****** ****** ****** ****** ******
   2  ****** ****** ****** ****** ****** ****** ****** ****** ****** ******
      ****** ****** ****** ****** ****** ****** ****** ****** ****** ******
      ****** ****** ****** ****** ****** ****** ****** ****** ****** ******
   3  ****** ****** ****** ****** ****** ****** ****** ****** ****** ******
      ****** ****** ****** ****** ****** ****** ****** ****** ****** ******
      ****** ****** ****** ****** ****** ****** ****** ****** ****** ******
   4  ****** ****** ****** ****** ****** ****** ****** ****** ****** ******
      ****** ****** ****** ****** ****** ****** ****** ****** ****** ******
      ****** ****** ****** ****** ****** ****** ****** ****** ****** ******
   5  ****** ****** ****** ****** ****** ****** ****** ****** ****** ******
      ****** ****** ****** ****** ****** ****** ****** ****** ****** ******
      ****** ****** ****** ****** ****** ****** ****** ****** ****** ******
   6  ****** ****** ****** ****** ****** ****** ****** ****** ****** ******
      ****** ****** ****** ****** ****** ****** ****** ****** ****** ******
      ****** ****** ****** ****** ****** ****** ****** ****** ****** ******
   7  ****** ****** ****** ****** ****** ****** ****** ****** ****** ******
      ****** ****** ****** ****** ****** ****** ****** ****** ****** ******
      ****** ****** ****** ****** ****** ****** ****** ****** ****** ******
   8  ****** ****** ****** ****** ****** ****** ****** ****** ****** ******
      ****** ****** ****** ****** ****** ****** ****** ****** ****** ******
      ****** ****** ****** ****** ****** ****** ****** ****** ****** ******
   9  ****** ****** ****** ****** ****** ****** ****** ****** ****** ******
      ****** ****** ****** ****** ****** ****** ****** ****** ****** ******
      ****** ****** ****** ****** ****** ****** ****** ****** ****** ******
  10  ****** ****** ****** ****** ****** ****** ****** ****** ****** ******
      ****** ****** ****** ****** ****** ****** ****** ****** ****** ******
      ****** ****** ****** ****** ****** ****** ****** ****** ****** ******
  11  ****** ****** ****** ****** ****** ****** ****** ****** ****** ******
      ****** ****** ****** ****** ****** ****** ****** ****** ****** ******
      ****** ****** ****** ****** ****** ****** ****** ****** ****** ******
  12  ****** ****** ****** ****** ****** ****** ****** ****** ****** ******
      ****** ****** ****** ****** ****** ****** ****** ****** ****** ******
      ****** ****** ****** ****** ****** ****** ****** ****** ****** ******
  13  ****** ****** ****** ****** ****** ****** ****** ****** ****** ******
      ****** ****** ****** ****** ****** ****** ****** ****** ****** ******
      ****** ****** ****** ****** ****** ****** ****** ****** ****** ******
  14  ****** ****** ****** ****** ****** ****** ****** ****** ****** ******
      ****** ****** ****** ****** ****** ****** ****** ****** ****** ******
      ****** ****** ****** ****** ****** ****** ****** ****** ****** ******
  15  ****** ****** ****** ****** ****** ****** ****** ****** ****** ******
      ****** ****** ****** ****** ****** ****** ****** ****** ****** ******
      ****** ****** ****** ****** ****** ****** ****** ****** ****** ******
  16  ****** ****** ****** ****** ****** ****** ****** ****** ****** ******
      ****** ****** ****** ****** ****** ****** ****** ****** ****** ******
      ****** ****** ****** ****** ****** ****** ****** ****** ****** ******
  17  ****** ****** ****** ****** ****** ****** ****** ****** ****** ******
      ****** ****** ****** ****** ****** ****** ****** ****** ****** ******
      ****** ****** ****** ****** ****** ****** ****** ****** ****** ******
  18  ****** ****** ****** ****** ****** ****** ****** ****** ****** ******
      ****** ****** ****** ****** ****** ****** ****** ****** ****** ******
      ****** ****** ****** ****** ****** ****** ****** ****** ****** ******
  19  ****** ****** ****** ****** ****** ****** ****** ****** ****** ******
      ****** ****** ****** ****** ****** ****** ****** ****** ****** ******
      ****** ****** ****** ****** ****** ****** ****** ****** ****** ******
  20  ****** ****** ****** ****** ****** ****** ****** ****** ****** ******
      ****** ****** ****** ****** ****** ****** ****** ****** ****** ******
      ****** ****** ****** ****** ****** ****** ****** ****** ****** ******
  21  ****** ****** ****** ****** ****** ****** ****** ****** ****** ******
      ****** ****** ****** ****** ****** ****** ****** ****** ****** ******
      ****** ****** ****** ****** ****** ****** ****** ****** ****** ******
  22  ****** ****** ****** ****** ****** ****** ****** ****** ****** ******
      ****** ****** ****** ****** ****** ****** ****** ****** ****** ******
      ****** ****** ****** ****** ****** ****** ****** ****** ****** ******
  23  ****** ****** ****** ****** ****** ****** ****** ****** ****** ******
      ****** ****** ****** ****** ****** ****** ****** ****** ****** ******
      ****** ****** ****** ****** ****** ****** ****** ****** ****** ******
  24  ****** ****** ****** ****** ****** ****** ****** ****** ****** ******
      ****** ****** ****** ****** ****** ****** ****** ****** ****** ******
      ****** ****** ****** ****** ****** ****** ****** ****** ****** ******
  25  ****** ****** ****** ****** ****** ****** ****** ****** ****** ******
      ****** ****** ****** ****** ****** ****** ****** ****** ****** ******
      ****** ****** ****** ****** ****** ****** ****** ****** ****** ******

 HEAD WILL BE SAVED ON UNIT   51 AT END OF TIME STEP    1, STRESS PERIOD    4
1
  VOLUMETRIC BUDGET FOR ENTIRE MODEL AT END OF TIME STEP    1, STRESS PERIOD   4
  ------------------------------------------------------------------------------

     CUMULATIVE VOLUMES      L**3       RATES FOR THIS TIME STEP      L**3/T
     ------------------                 ------------------------

           IN:                                      IN:
           ---                                      ---
             STORAGE =    25767918.8328               STORAGE =        2053.3392
       CONSTANT HEAD =    53669392.5888         CONSTANT HEAD =      166066.4215
               WELLS =           0.0000                 WELLS =           0.0000
            RECHARGE =     8804400.0000              RECHARGE =       27600.0000
      STREAM LEAKAGE =    17426608.4045        STREAM LEAKAGE =       60821.5999

            TOTAL IN =   105668319.8261              TOTAL IN =      256541.3607

          OUT:                                     OUT:
          ----                                     ----
             STORAGE =       22695.2366               STORAGE =         249.3982
       CONSTANT HEAD =           0.0000         CONSTANT HEAD =           0.0000
               WELLS =    55662773.7500                 WELLS =      152500.7500
            RECHARGE =           0.0000              RECHARGE =           0.0000
      STREAM LEAKAGE =    49982851.5018        STREAM LEAKAGE =      103791.2106

           TOTAL OUT =   105668320.4884             TOTAL OUT =      256541.3588

            IN - OUT =          -0.6624              IN - OUT =       1.8926E-03

 PERCENT DISCREPANCY =          -0.00     PERCENT DISCREPANCY =           0.00






         TIME SUMMARY AT END OF TIME STEP    1 IN STRESS PERIOD    4
                    SECONDS     MINUTES      HOURS       DAYS        YEARS
                    -----------------------------------------------------------
   TIME STEP LENGTH 7.86240E+06 1.31040E+05  2184.0      91.000     0.24914    
 STRESS PERIOD TIME 7.86240E+06 1.31040E+05  2184.0      91.000     0.24914    
         TOTAL TIME 3.15360E+07 5.25600E+05  8760.0      365.00     0.99932    
1
1
                            STRESS PERIOD NO.    5, LENGTH =   92.00000    
                            -----------------------------------------------

                              NUMBER OF TIME STEPS =     1

                               MULTIPLIER FOR DELT =     1.500

                            INITIAL TIME STEP SIZE =   92.00000    

 WELL NO.  LAYER   ROW   COL   STRESS RATE         
 --------------------------------------------------
      1      1     18     24     -0.5000E+05
      2      1     19     27     -0.5000E+05
      3      1     21     24     -0.5250E+05

      3 WELLS

                 RECHARGE =  5.000000E-04

 REUSING STREAM SEGMENT DATA FROM LAST STRESS PERIOD
 
 SOLVING FOR HEAD 


     6 CALLS TO PCG ROUTINE FOR TIME STEP   1 IN STRESS PERIOD    5
    23 TOTAL ITERATIONS

 OUTPUT CONTROL FOR STRESS PERIOD    5   TIME STEP    1
    SAVE BUDGET
    SAVE HEAD FOR ALL LAYERS
    PRINT HEAD FOR ALL LAYERS
 UBDSV2 SAVING "STREAMFLOW OUT  " ON UNIT  50 AT TIME STEP  1, STRESS PERIOD   5



 STREAM LISTING     PERIOD      5   STEP        1

 LAYER ROW COL. STREAM  RCH.  FLOW INTO     FLOW TO   FLOW OUT OF   OVRLND.     DIRECT     STREAM       STREAM     STREAM     STREAM   STREAMBED  STREAMBED
                SEG.NO.  NO.  STRM. RCH.    AQUIFER    STRM. RCH.    RUNOFF     PRECIP       ET          HEAD       DEPTH      WIDTH   CONDCTNC.   GRADIENT

   1   13    1     1     1    1.0000E+05 -2.7910E+03   1.0279E+05  0.000E+00  0.000E+00  0.000E+00  4.84072E+01  1.459E-01  2.000E+01  2.000E+04 -1.396E-01
   1   13    2     1     2    1.0279E+05 -4.7108E+03   1.0750E+05  0.000E+00  0.000E+00  0.000E+00  4.79332E+01  1.491E-01  2.000E+01  2.000E+04 -2.355E-01
   1   14    3     1     3    1.0750E+05 -3.7536E+03   1.1126E+05  0.000E+00  0.000E+00  0.000E+00  4.74595E+01  1.526E-01  2.000E+01  2.000E+04 -1.877E-01
   1   15    4     1     4    1.1126E+05 -3.6478E+03   1.1490E+05  0.000E+00  0.000E+00  0.000E+00  4.69853E+01  1.557E-01  2.000E+01  2.000E+04 -1.824E-01
   1   16    5     1     5    1.1490E+05 -3.9617E+03   1.1886E+05  0.000E+00  0.000E+00  0.000E+00  4.65111E+01  1.588E-01  2.000E+01  2.000E+04 -1.981E-01
   1   16    6     1     6    1.1886E+05 -3.1306E+03   1.2200E+05  0.000E+00  0.000E+00  0.000E+00  4.60367E+01  1.617E-01  2.000E+01  2.000E+04 -1.565E-01
   1   16    7     1     7    1.2200E+05 -3.1869E+03   1.2518E+05  0.000E+00  0.000E+00  0.000E+00  4.55620E+01  1.643E-01  2.000E+01  2.000E+04 -1.593E-01
   1   16    8     1     8    1.2518E+05 -3.2068E+03   1.2839E+05  0.000E+00  0.000E+00  0.000E+00  4.50872E+01  1.668E-01  2.000E+01  2.000E+04 -1.603E-01
   1   16    9     1     9    1.2839E+05 -3.1740E+03   1.3156E+05  0.000E+00  0.000E+00  0.000E+00  4.46125E+01  1.693E-01  2.000E+01  2.000E+04 -1.587E-01
   1   16   10     1    10    1.3156E+05 -3.0843E+03   1.3465E+05  0.000E+00  0.000E+00  0.000E+00  4.41376E+01  1.717E-01  2.000E+01  2.000E+04 -1.542E-01
   1   16   11     1    11    1.3465E+05 -2.9394E+03   1.3759E+05  0.000E+00  0.000E+00  0.000E+00  4.36627E+01  1.740E-01  2.000E+01  2.000E+04 -1.470E-01
   1   16   12     1    12    1.3759E+05 -3.4339E+03   1.4102E+05  0.000E+00  0.000E+00  0.000E+00  4.31878E+01  1.765E-01  2.000E+01  2.000E+04 -1.717E-01
   1   15   13     1    13    1.4102E+05 -3.0772E+03   1.4410E+05  0.000E+00  0.000E+00  0.000E+00  4.27130E+01  1.789E-01  2.000E+01  2.000E+04 -1.539E-01
   1   14   14     1    14    1.4410E+05 -3.1115E+03   1.4721E+05  0.000E+00  0.000E+00  0.000E+00  4.22381E+01  1.813E-01  2.000E+01  2.000E+04 -1.556E-01
   1   13   15     1    15    1.4721E+05 -3.5027E+03   1.5071E+05  0.000E+00  0.000E+00  0.000E+00  4.17633E+01  1.837E-01  2.000E+01  2.000E+04 -1.751E-01
   1   12   16     1    16    1.5071E+05 -5.0663E+03   1.5578E+05  0.000E+00  0.000E+00  0.000E+00  4.12892E+01  1.869E-01  2.000E+01  2.000E+04 -2.533E-01
   1   12   17     1    17    1.5578E+05 -3.0556E+03   1.5883E+05  0.000E+00  0.000E+00  0.000E+00  4.08148E+01  1.898E-01  2.000E+01  2.000E+04 -1.528E-01
   1   12   18     1    18    1.5883E+05 -2.8432E+03   1.6168E+05  0.000E+00  0.000E+00  0.000E+00  4.03397E+01  1.920E-01  2.000E+01  2.000E+04 -1.422E-01
   1   12   19     1    19    1.6168E+05 -3.9515E+03   1.6563E+05  0.000E+00  0.000E+00  0.000E+00  3.98648E+01  1.944E-01  2.000E+01  2.000E+04 -1.976E-01
   1   13   20     1    20    1.6563E+05 -1.4097E+03   1.6704E+05  0.000E+00  0.000E+00  0.000E+00  3.93895E+01  1.963E-01  2.000E+01  2.000E+04 -7.048E-02
   1   14   21     1    21    1.6704E+05  1.4977E+03   1.6554E+05  0.000E+00  0.000E+00  0.000E+00  3.89122E+01  1.963E-01  2.000E+01  2.000E+04  7.489E-02
   1   14   22     1    22    1.6554E+05  5.9009E+03   1.5964E+05  0.000E+00  0.000E+00  0.000E+00  3.84323E+01  1.936E-01  2.000E+01  2.000E+04  2.950E-01
   1    9   30     2     1    5.0000E+04 -2.6591E+03   5.2659E+04  0.000E+00  0.000E+00  0.000E+00  4.02427E+01  1.177E-01  2.000E+01  2.000E+04 -1.330E-01
   1    9   29     2     2    5.2659E+04 -2.9935E+03   5.5653E+04  0.000E+00  0.000E+00  0.000E+00  3.99966E+01  1.216E-01  2.000E+01  2.000E+04 -1.497E-01
   1    9   28     2     3    5.5653E+04 -3.3792E+03   5.9032E+04  0.000E+00  0.000E+00  0.000E+00  3.97508E+01  1.258E-01  2.000E+01  2.000E+04 -1.690E-01
   1    9   27     2     4    5.9032E+04 -6.0893E+03   6.5121E+04  0.000E+00  0.000E+00  0.000E+00  3.95069E+01  1.319E-01  2.000E+01  2.000E+04 -3.045E-01
   1   10   26     2     5    6.5121E+04 -3.6921E+03   6.8813E+04  0.000E+00  0.000E+00  0.000E+00  3.92631E+01  1.381E-01  2.000E+01  2.000E+04 -1.846E-01
   1   11   25     2     6    6.8813E+04 -2.6364E+03   7.1450E+04  0.000E+00  0.000E+00  0.000E+00  3.90169E+01  1.419E-01  2.000E+01  2.000E+04 -1.318E-01
   1   12   24     2     7    7.1450E+04 -1.7776E+03   7.3227E+04  0.000E+00  0.000E+00  0.000E+00  3.87696E+01  1.446E-01  2.000E+01  2.000E+04 -8.888E-02
   1   13   23     2     8    7.3227E+04 -9.1098E+02   7.4138E+04  0.000E+00  0.000E+00  0.000E+00  3.85212E+01  1.462E-01  2.000E+01  2.000E+04 -4.555E-02
   1   14   22     2     9    7.4138E+04  2.6590E+03   7.1479E+04  0.000E+00  0.000E+00  0.000E+00  3.82702E+01  1.452E-01  2.000E+01  2.000E+04  1.329E-01
   1   14   22     3     1    2.3112E+05 -7.6257E+03   2.3874E+05  0.000E+00  0.000E+00  0.000E+00  3.77559E+01  2.004E-01  2.000E+01  2.000E+04 -3.813E-01
   1   15   23     3     2    2.3874E+05  6.7888E+03   2.3196E+05  0.000E+00  0.000E+00  0.000E+00  3.68673E+01  2.006E-01  2.000E+01  2.000E+04  3.394E-01
   1   15   24     3     3    2.3196E+05  6.2831E+03   2.2567E+05  0.000E+00  0.000E+00  0.000E+00  3.59750E+01  1.972E-01  2.000E+01  2.000E+04  3.142E-01
   1   15   25     3     4    2.2567E+05  5.2116E+03   2.2046E+05  0.000E+00  0.000E+00  0.000E+00  3.50831E+01  1.943E-01  2.000E+01  2.000E+04  2.606E-01
   1   15   26     3     5    2.2046E+05  2.7083E+03   2.1775E+05  0.000E+00  0.000E+00  0.000E+00  3.41922E+01  1.922E-01  2.000E+01  2.000E+04  1.354E-01
   1   16   27     3     6    2.1775E+05  8.6025E+03   2.0915E+05  0.000E+00  0.000E+00  0.000E+00  3.33003E+01  1.892E-01  2.000E+01  2.000E+04  4.301E-01
   1   17   28     3     7    2.0915E+05  1.1263E+04   1.9789E+05  0.000E+00  0.000E+00  0.000E+00  3.24061E+01  1.838E-01  2.000E+01  2.000E+04  5.631E-01
   1   18   29     3     8    1.9789E+05  1.0263E+04   1.8762E+05  0.000E+00  0.000E+00  0.000E+00  3.15113E+01  1.780E-01  2.000E+01  2.000E+04  5.132E-01
   1   18   30     3     9    1.8762E+05  1.1465E+03   1.8648E+05  0.000E+00  0.000E+00  0.000E+00  3.06192E+01  1.748E-01  2.000E+01  2.000E+04  5.733E-02



1
              HEAD IN LAYER   1 AT END OF TIME STEP   1 IN STRESS PERIOD    5
  ---------------------------------------------------------------------------

          1      2      3      4      5      6      7      8      9     10
         11     12     13     14     15     16     17     18     19     20
         21     22     23     24     25     26     27     28     29     30
 .........................................................................
   1  ****** ****** ****** ****** ****** ****** ****** ****** ****** ******
      ****** ****** ****** ****** ****** ****** ****** ****** ****** ******
      ****** ****** ****** ****** ****** ****** ****** ****** ****** ******
   2  ****** ****** ****** ****** ****** ****** ****** ****** ****** ******
      ****** ****** ****** ****** ****** ****** ****** ****** ****** ******
      ****** ****** ****** ****** ****** ****** ****** ****** ****** ******
   3  ****** ****** ****** ****** ****** ****** ****** ****** ****** ******
      ****** ****** ****** ****** ****** ****** ****** ****** ****** ******
      ****** ****** ****** ****** ****** ****** ****** ****** ****** ******
   4  ****** ****** ****** ****** ****** ****** ****** ****** ****** ******
      ****** ****** ****** ****** ****** ****** ****** ****** ****** ******
      ****** ****** ****** ****** ****** ****** ****** ****** ****** ******
   5  ****** ****** ****** ****** ****** ****** ****** ****** ****** ******
      ****** ****** ****** ****** ****** ****** ****** ****** ****** ******
      ****** ****** ****** ****** ****** ****** ****** ****** ****** ******
   6  ****** ****** ****** ****** ****** ****** ****** ****** ****** ******
      ****** ****** ****** ****** ****** ****** ****** ****** ****** ******
      ****** ****** ****** ****** ****** ****** ****** ****** ****** ******
   7  ****** ****** ****** ****** ****** ****** ****** ****** ****** ******
      ****** ****** ****** ****** ****** ****** ****** ****** ****** ******
      ****** ****** ****** ****** ****** ****** ****** ****** ****** ******
   8  ****** ****** ****** ****** ****** ****** ****** ****** ****** ******
      ****** ****** ****** ****** ****** ****** ****** ****** ****** ******
      ****** ****** ****** ****** ****** ****** ****** ****** ****** ******
   9  ****** ****** ****** ****** ****** ****** ****** ****** ****** ******
      ****** ****** ****** ****** ****** ****** ****** ****** ****** ******
      ****** ****** ****** ****** ****** ****** ****** ****** ****** ******
  10  ****** ****** ****** ****** ****** ****** ****** ****** ****** ******
      ****** ****** ****** ****** ****** ****** ****** ****** ****** ******
      ****** ****** ****** ****** ****** ****** ****** ****** ****** ******
  11  ****** ****** ****** ****** ****** ****** ****** ****** ****** ******
      ****** ****** ****** ****** ****** ****** ****** ****** ****** ******
      ****** ****** ****** ****** ****** ****** ****** ****** ****** ******
  12  ****** ****** ****** ****** ****** ****** ****** ****** ****** ******
      ****** ****** ****** ****** ****** ****** ****** ****** ****** ******
      ****** ****** ****** ****** ****** ****** ****** ****** ****** ******
  13  ****** ****** ****** ****** ****** ****** ****** ****** ****** ******
      ****** ****** ****** ****** ****** ****** ****** ****** ****** ******
      ****** ****** ****** ****** ****** ****** ****** ****** ****** ******
  14  ****** ****** ****** ****** ****** ****** ****** ****** ****** ******
      ****** ****** ****** ****** ****** ****** ****** ****** ****** ******
      ****** ****** ****** ****** ****** ****** ****** ****** ****** ******
  15  ****** ****** ****** ****** ****** ****** ****** ****** ****** ******
      ****** ****** ****** ****** ****** ****** ****** ****** ****** ******
      ****** ****** ****** ****** ****** ****** ****** ****** ****** ******
  16  ****** ****** ****** ****** ****** ****** ****** ****** ****** ******
      ****** ****** ****** ****** ****** ****** ****** ****** ****** ******
      ****** ****** ****** ****** ****** ****** ****** ****** ****** ******
  17  ****** ****** ****** ****** ****** ****** ****** ****** ****** ******
      ****** ****** ****** ****** ****** ****** ****** ****** ****** ******
      ****** ****** ****** ****** ****** ****** ****** ****** ****** ******
  18  ****** ****** ****** ****** ****** ****** ****** ****** ****** ******
      ****** ****** ****** ****** ****** ****** ****** ****** ****** ******
      ****** ****** ****** ****** ****** ****** ****** ****** ****** ******
  19  ****** ****** ****** ****** ****** ****** ****** ****** ****** ******
      ****** ****** ****** ****** ****** ****** ****** ****** ****** ******
      ****** ****** ****** ****** ****** ****** ****** ****** ****** ******
  20  ****** ****** ****** ****** ****** ****** ****** ****** ****** ******
      ****** ****** ****** ****** ****** ****** ****** ****** ****** ******
      ****** ****** ****** ****** ****** .74032 ****** ****** ****** ******
  21  ****** ****** ****** ****** ****** ****** ****** ****** ****** ******
      ****** ****** ****** ****** ****** ****** ****** ****** ****** ******
      ****** ****** ****** ****** ****** ****** ****** ****** ****** ******
  22  ****** ****** ****** ****** ****** ****** ****** ****** ****** ******
      ****** ****** ****** ****** ****** ****** ****** ****** ****** ******
      ****** ****** ****** ****** ****** ****** ****** ****** ****** ******
  23  ****** ****** ****** ****** ****** ****** ****** ****** ****** ******
      ****** ****** ****** ****** ****** ****** ****** ****** ****** ******
      ****** ****** ****** ****** ****** ****** ****** ****** ****** ******
  24  ****** ****** ****** ****** ****** ****** ****** ****** ****** ******
      ****** ****** ****** ****** ****** ****** ****** ****** ****** ******
      ****** ****** ****** ****** ****** ****** ****** ****** ****** ******
  25  ****** ****** ****** ****** ****** ****** ****** ****** ****** ******
      ****** ****** ****** ****** ****** ****** ****** ****** ****** ******
      ****** ****** ****** ****** ****** ****** ****** ****** ****** ******

 HEAD WILL BE SAVED ON UNIT   51 AT END OF TIME STEP    1, STRESS PERIOD    5
1
  VOLUMETRIC BUDGET FOR ENTIRE MODEL AT END OF TIME STEP    1, STRESS PERIOD   5
  ------------------------------------------------------------------------------

     CUMULATIVE VOLUMES      L**3       RATES FOR THIS TIME STEP      L**3/T
     ------------------                 ------------------------

           IN:                                      IN:
           ---                                      ---
             STORAGE =    26192124.6372               STORAGE =        4610.9327
       CONSTANT HEAD =    69361612.5922         CONSTANT HEAD =      170567.6087
               WELLS =           0.0000                 WELLS =           0.0000
            RECHARGE =    10074000.0000              RECHARGE =       13800.0000
      STREAM LEAKAGE =    23160473.7446        STREAM LEAKAGE =       62324.6233

            TOTAL IN =   128788210.9740              TOTAL IN =      251303.1647

          OUT:                                     OUT:
          ----                                     ----
             STORAGE =       22695.2366               STORAGE =           0.0000
       CONSTANT HEAD =           0.0000         CONSTANT HEAD =           0.0000
               WELLS =    69692842.7500                 WELLS =      152500.7500
            RECHARGE =           0.0000              RECHARGE =           0.0000
      STREAM LEAKAGE =    59072673.7216        STREAM LEAKAGE =       98802.4154

           TOTAL OUT =   128788211.7082             TOTAL OUT =      251303.1654

            IN - OUT =          -0.7343              IN - OUT =      -7.8169E-04

 PERCENT DISCREPANCY =          -0.00     PERCENT DISCREPANCY =          -0.00






         TIME SUMMARY AT END OF TIME STEP    1 IN STRESS PERIOD    5
                    SECONDS     MINUTES      HOURS       DAYS        YEARS
                    -----------------------------------------------------------
   TIME STEP LENGTH 7.94880E+06 1.32480E+05  2208.0      92.000     0.25188    
 STRESS PERIOD TIME 7.94880E+06 1.32480E+05  2208.0      92.000     0.25188    
         TOTAL TIME 3.94848E+07 6.58080E+05  10968.      457.00      1.2512    
1
1
                            STRESS PERIOD NO.    6, LENGTH =   91.00000    
                            -----------------------------------------------

                              NUMBER OF TIME STEPS =     1

                               MULTIPLIER FOR DELT =     1.500

                            INITIAL TIME STEP SIZE =   91.00000    

 WELL NO.  LAYER   ROW   COL   STRESS RATE         
 --------------------------------------------------
      1      1     18     24     -0.5000E+05
      2      1     19     27     -0.5000E+05
      3      1     21     24     -0.5250E+05

      3 WELLS

                 RECHARGE =  2.000000E-03

 REUSING STREAM SEGMENT DATA FROM LAST STRESS PERIOD
 
 SOLVING FOR HEAD 


     7 CALLS TO PCG ROUTINE FOR TIME STEP   1 IN STRESS PERIOD    6
    26 TOTAL ITERATIONS

 OUTPUT CONTROL FOR STRESS PERIOD    6   TIME STEP    1
    SAVE BUDGET
    SAVE HEAD FOR ALL LAYERS
    PRINT HEAD FOR ALL LAYERS
 UBDSV2 SAVING "STREAMFLOW OUT  " ON UNIT  50 AT TIME STEP  1, STRESS PERIOD   6



 STREAM LISTING     PERIOD      6   STEP        1

 LAYER ROW COL. STREAM  RCH.  FLOW INTO     FLOW TO   FLOW OUT OF   OVRLND.     DIRECT     STREAM       STREAM     STREAM     STREAM   STREAMBED  STREAMBED
                SEG.NO.  NO.  STRM. RCH.    AQUIFER    STRM. RCH.    RUNOFF     PRECIP       ET          HEAD       DEPTH      WIDTH   CONDCTNC.   GRADIENT

   1   13    1     1     1    1.0000E+05 -3.1906E+03   1.0319E+05  0.000E+00  0.000E+00  0.000E+00  4.84074E+01  1.460E-01  2.000E+01  2.000E+04 -1.595E-01
   1   13    2     1     2    1.0319E+05 -5.2364E+03   1.0843E+05  0.000E+00  0.000E+00  0.000E+00  4.79337E+01  1.496E-01  2.000E+01  2.000E+04 -2.618E-01
   1   14    3     1     3    1.0843E+05 -4.2930E+03   1.1272E+05  0.000E+00  0.000E+00  0.000E+00  4.74605E+01  1.536E-01  2.000E+01  2.000E+04 -2.147E-01
   1   15    4     1     4    1.1272E+05 -4.1845E+03   1.1690E+05  0.000E+00  0.000E+00  0.000E+00  4.69867E+01  1.572E-01  2.000E+01  2.000E+04 -2.092E-01
   1   16    5     1     5    1.1690E+05 -4.4599E+03   1.2136E+05  0.000E+00  0.000E+00  0.000E+00  4.65129E+01  1.607E-01  2.000E+01  2.000E+04 -2.230E-01
   1   16    6     1     6    1.2136E+05 -3.5221E+03   1.2489E+05  0.000E+00  0.000E+00  0.000E+00  4.60389E+01  1.639E-01  2.000E+01  2.000E+04 -1.761E-01
   1   16    7     1     7    1.2489E+05 -3.5838E+03   1.2847E+05  0.000E+00  0.000E+00  0.000E+00  4.55644E+01  1.667E-01  2.000E+01  2.000E+04 -1.792E-01
   1   16    8     1     8    1.2847E+05 -3.6068E+03   1.3208E+05  0.000E+00  0.000E+00  0.000E+00  4.50900E+01  1.695E-01  2.000E+01  2.000E+04 -1.803E-01
   1   16    9     1     9    1.3208E+05 -3.5735E+03   1.3565E+05  0.000E+00  0.000E+00  0.000E+00  4.46155E+01  1.723E-01  2.000E+01  2.000E+04 -1.787E-01
   1   16   10     1    10    1.3565E+05 -3.4798E+03   1.3913E+05  0.000E+00  0.000E+00  0.000E+00  4.41409E+01  1.750E-01  2.000E+01  2.000E+04 -1.740E-01
   1   16   11     1    11    1.3913E+05 -3.3291E+03   1.4246E+05  0.000E+00  0.000E+00  0.000E+00  4.36663E+01  1.776E-01  2.000E+01  2.000E+04 -1.665E-01
   1   16   12     1    12    1.4246E+05 -3.9332E+03   1.4639E+05  0.000E+00  0.000E+00  0.000E+00  4.31917E+01  1.803E-01  2.000E+01  2.000E+04 -1.967E-01
   1   15   13     1    13    1.4639E+05 -3.6194E+03   1.5001E+05  0.000E+00  0.000E+00  0.000E+00  4.27173E+01  1.832E-01  2.000E+01  2.000E+04 -1.810E-01
   1   14   14     1    14    1.5001E+05 -3.6634E+03   1.5368E+05  0.000E+00  0.000E+00  0.000E+00  4.22427E+01  1.859E-01  2.000E+01  2.000E+04 -1.832E-01
   1   13   15     1    15    1.5368E+05 -4.0459E+03   1.5772E+05  0.000E+00  0.000E+00  0.000E+00  4.17682E+01  1.887E-01  2.000E+01  2.000E+04 -2.023E-01
   1   12   16     1    16    1.5772E+05 -5.5869E+03   1.6331E+05  0.000E+00  0.000E+00  0.000E+00  4.12944E+01  1.921E-01  2.000E+01  2.000E+04 -2.793E-01
   1   12   17     1    17    1.6331E+05 -3.4441E+03   1.6675E+05  0.000E+00  0.000E+00  0.000E+00  4.08204E+01  1.954E-01  2.000E+01  2.000E+04 -1.722E-01
   1   12   18     1    18    1.6675E+05 -3.2256E+03   1.6998E+05  0.000E+00  0.000E+00  0.000E+00  4.03455E+01  1.977E-01  2.000E+01  2.000E+04 -1.613E-01
   1   12   19     1    19    1.6998E+05 -4.4193E+03   1.7440E+05  0.000E+00  0.000E+00  0.000E+00  3.98709E+01  2.004E-01  2.000E+01  2.000E+04 -2.210E-01
   1   13   20     1    20    1.7440E+05 -1.8641E+03   1.7626E+05  0.000E+00  0.000E+00  0.000E+00  3.93958E+01  2.026E-01  2.000E+01  2.000E+04 -9.320E-02
   1   14   21     1    21    1.7626E+05  1.0834E+03   1.7518E+05  0.000E+00  0.000E+00  0.000E+00  3.89188E+01  2.029E-01  2.000E+01  2.000E+04  5.417E-02
   1   14   22     1    22    1.7518E+05  5.8220E+03   1.6936E+05  0.000E+00  0.000E+00  0.000E+00  3.84391E+01  2.005E-01  2.000E+01  2.000E+04  2.911E-01
   1    9   30     2     1    5.0000E+04 -3.0161E+03   5.3016E+04  0.000E+00  0.000E+00  0.000E+00  4.02429E+01  1.179E-01  2.000E+01  2.000E+04 -1.508E-01
   1    9   29     2     2    5.3016E+04 -3.3477E+03   5.6364E+04  0.000E+00  0.000E+00  0.000E+00  3.99973E+01  1.223E-01  2.000E+01  2.000E+04 -1.674E-01
   1    9   28     2     3    5.6364E+04 -3.7312E+03   6.0095E+04  0.000E+00  0.000E+00  0.000E+00  3.97520E+01  1.270E-01  2.000E+01  2.000E+04 -1.866E-01
   1    9   27     2     4    6.0095E+04 -6.5588E+03   6.6654E+04  0.000E+00  0.000E+00  0.000E+00  3.95086E+01  1.336E-01  2.000E+01  2.000E+04 -3.279E-01
   1   10   26     2     5    6.6654E+04 -4.1781E+03   7.0832E+04  0.000E+00  0.000E+00  0.000E+00  3.92653E+01  1.403E-01  2.000E+01  2.000E+04 -2.089E-01
   1   11   25     2     6    7.0832E+04 -3.1013E+03   7.3933E+04  0.000E+00  0.000E+00  0.000E+00  3.90197E+01  1.447E-01  2.000E+01  2.000E+04 -1.551E-01
   1   12   24     2     7    7.3933E+04 -2.1886E+03   7.6122E+04  0.000E+00  0.000E+00  0.000E+00  3.87728E+01  1.478E-01  2.000E+01  2.000E+04 -1.094E-01
   1   13   23     2     8    7.6122E+04 -1.2315E+03   7.7353E+04  0.000E+00  0.000E+00  0.000E+00  3.85248E+01  1.498E-01  2.000E+01  2.000E+04 -6.157E-02
   1   14   22     2     9    7.7353E+04  2.5212E+03   7.4832E+04  0.000E+00  0.000E+00  0.000E+00  3.82741E+01  1.491E-01  2.000E+01  2.000E+04  1.261E-01
   1   14   22     3     1    2.4419E+05 -7.7086E+03   2.5190E+05  0.000E+00  0.000E+00  0.000E+00  3.77626E+01  2.070E-01  2.000E+01  2.000E+04 -3.854E-01
   1   15   23     3     2    2.5190E+05  6.4038E+03   2.4549E+05  0.000E+00  0.000E+00  0.000E+00  3.68740E+01  2.073E-01  2.000E+01  2.000E+04  3.202E-01
   1   15   24     3     3    2.4549E+05  6.0023E+03   2.3949E+05  0.000E+00  0.000E+00  0.000E+00  3.59820E+01  2.042E-01  2.000E+01  2.000E+04  3.001E-01
   1   15   25     3     4    2.3949E+05  4.9286E+03   2.3456E+05  0.000E+00  0.000E+00  0.000E+00  3.50903E+01  2.015E-01  2.000E+01  2.000E+04  2.464E-01
   1   15   26     3     5    2.3456E+05  2.3404E+03   2.3222E+05  0.000E+00  0.000E+00  0.000E+00  3.41996E+01  1.996E-01  2.000E+01  2.000E+04  1.170E-01
   1   16   27     3     6    2.3222E+05  8.1438E+03   2.2408E+05  0.000E+00  0.000E+00  0.000E+00  3.33080E+01  1.969E-01  2.000E+01  2.000E+04  4.072E-01
   1   17   28     3     7    2.2408E+05  1.0796E+04   2.1328E+05  0.000E+00  0.000E+00  0.000E+00  3.24142E+01  1.919E-01  2.000E+01  2.000E+04  5.398E-01
   1   18   29     3     8    2.1328E+05  9.8269E+03   2.0346E+05  0.000E+00  0.000E+00  0.000E+00  3.15198E+01  1.865E-01  2.000E+01  2.000E+04  4.913E-01
   1   18   30     3     9    2.0346E+05  8.1546E+02   2.0264E+05  0.000E+00  0.000E+00  0.000E+00  3.06280E+01  1.836E-01  2.000E+01  2.000E+04  4.077E-02



1
              HEAD IN LAYER   1 AT END OF TIME STEP   1 IN STRESS PERIOD    6
  ---------------------------------------------------------------------------

          1      2      3      4      5      6      7      8      9     10
         11     12     13     14     15     16     17     18     19     20
         21     22     23     24     25     26     27     28     29     30
 .........................................................................
   1  ****** ****** ****** ****** ****** ****** ****** ****** ****** ******
      ****** ****** ****** ****** ****** ****** ****** ****** ****** ******
      ****** ****** ****** ****** ****** ****** ****** ****** ****** ******
   2  ****** ****** ****** ****** ****** ****** ****** ****** ****** ******
      ****** ****** ****** ****** ****** ****** ****** ****** ****** ******
      ****** ****** ****** ****** ****** ****** ****** ****** ****** ******
   3  ****** ****** ****** ****** ****** ****** ****** ****** ****** ******
      ****** ****** ****** ****** ****** ****** ****** ****** ****** ******
      ****** ****** ****** ****** ****** ****** ****** ****** ****** ******
   4  ****** ****** ****** ****** ****** ****** ****** ****** ****** ******
      ****** ****** ****** ****** ****** ****** ****** ****** ****** ******
      ****** ****** ****** ****** ****** ****** ****** ****** ****** ******
   5  ****** ****** ****** ****** ****** ****** ****** ****** ****** ******
      ****** ****** ****** ****** ****** ****** ****** ****** ****** ******
      ****** ****** ****** ****** ****** ****** ****** ****** ****** ******
   6  ****** ****** ****** ****** ****** ****** ****** ****** ****** ******
      ****** ****** ****** ****** ****** ****** ****** ****** ****** ******
      ****** ****** ****** ****** ****** ****** ****** ****** ****** ******
   7  ****** ****** ****** ****** ****** ****** ****** ****** ****** ******
      ****** ****** ****** ****** ****** ****** ****** ****** ****** ******
      ****** ****** ****** ****** ****** ****** ****** ****** ****** ******
   8  ****** ****** ****** ****** ****** ****** ****** ****** ****** ******
      ****** ****** ****** ****** ****** ****** ****** ****** ****** ******
      ****** ****** ****** ****** ****** ****** ****** ****** ****** ******
   9  ****** ****** ****** ****** ****** ****** ****** ****** ****** ******
      ****** ****** ****** ****** ****** ****** ****** ****** ****** ******
      ****** ****** ****** ****** ****** ****** ****** ****** ****** ******
  10  ****** ****** ****** ****** ****** ****** ****** ****** ****** ******
      ****** ****** ****** ****** ****** ****** ****** ****** ****** ******
      ****** ****** ****** ****** ****** ****** ****** ****** ****** ******
  11  ****** ****** ****** ****** ****** ****** ****** ****** ****** ******
      ****** ****** ****** ****** ****** ****** ****** ****** ****** ******
      ****** ****** ****** ****** ****** ****** ****** ****** ****** ******
  12  ****** ****** ****** ****** ****** ****** ****** ****** ****** ******
      ****** ****** ****** ****** ****** ****** ****** ****** ****** ******
      ****** ****** ****** ****** ****** ****** ****** ****** ****** ******
  13  ****** ****** ****** ****** ****** ****** ****** ****** ****** ******
      ****** ****** ****** ****** ****** ****** ****** ****** ****** ******
      ****** ****** ****** ****** ****** ****** ****** ****** ****** ******
  14  ****** ****** ****** ****** ****** ****** ****** ****** ****** ******
      ****** ****** ****** ****** ****** ****** ****** ****** ****** ******
      ****** ****** ****** ****** ****** ****** ****** ****** ****** ******
  15  ****** ****** ****** ****** ****** ****** ****** ****** ****** ******
      ****** ****** ****** ****** ****** ****** ****** ****** ****** ******
      ****** ****** ****** ****** ****** ****** ****** ****** ****** ******
  16  ****** ****** ****** ****** ****** ****** ****** ****** ****** ******
      ****** ****** ****** ****** ****** ****** ****** ****** ****** ******
      ****** ****** ****** ****** ****** ****** ****** ****** ****** ******
  17  ****** ****** ****** ****** ****** ****** ****** ****** ****** ******
      ****** ****** ****** ****** ****** ****** ****** ****** ****** ******
      ****** ****** ****** ****** ****** ****** ****** ****** ****** ******
  18  ****** ****** ****** ****** ****** ****** ****** ****** ****** ******
      ****** ****** ****** ****** ****** ****** ****** ****** ****** ******
      ****** ****** ****** ****** ****** ****** ****** ****** ****** ******
  19  ****** ****** ****** ****** ****** ****** ****** ****** ****** ******
      ****** ****** ****** ****** ****** ****** ****** ****** ****** ******
      ****** ****** ****** ****** ****** ****** ****** ****** ****** ******
  20  ****** ****** ****** ****** ****** ****** ****** ****** ****** ******
      ****** ****** ****** ****** ****** ****** ****** ****** ****** ******
      ****** ****** ****** ****** ****** ****** ****** ****** ****** ******
  21  ****** ****** ****** ****** ****** ****** ****** ****** ****** ******
      ****** ****** ****** ****** ****** ****** ****** ****** ****** ******
      ****** ****** ****** ****** ****** ****** ****** ****** ****** ******
  22  ****** ****** ****** ****** ****** ****** ****** ****** ****** ******
      ****** ****** ****** ****** ****** ****** ****** ****** ****** ******
      ****** ****** ****** ****** ****** ****** ****** ****** ****** ******
  23  ****** ****** ****** ****** ****** ****** ****** ****** ****** ******
      ****** ****** ****** ****** ****** ****** ****** ****** ****** ******
      ****** ****** ****** ****** ****** ****** ****** ****** ****** ******
  24  ****** ****** ****** ****** ****** ****** ****** ****** ****** ******
      ****** ****** ****** ****** ****** ****** ****** ****** ****** ******
      ****** ****** ****** ****** ****** ****** ****** ****** ****** ******
  25  ****** ****** ****** ****** ****** ****** ****** ****** ****** ******
      ****** ****** ****** ****** ****** ****** ****** ****** ****** ******
      ****** ****** ****** ****** ****** ****** ****** ****** ****** ******

 HEAD WILL BE SAVED ON UNIT   51 AT END OF TIME STEP    1, STRESS PERIOD    6
1
  VOLUMETRIC BUDGET FOR ENTIRE MODEL AT END OF TIME STEP    1, STRESS PERIOD   6
  ------------------------------------------------------------------------------

     CUMULATIVE VOLUMES      L**3       RATES FOR THIS TIME STEP      L**3/T
     ------------------                 ------------------------

           IN:                                      IN:
           ---                                      ---
             STORAGE =    26192124.6372               STORAGE =           0.0000
       CONSTANT HEAD =    83920422.8675         CONSTANT HEAD =      159986.9261
               WELLS =           0.0000                 WELLS =           0.0000
            RECHARGE =    15097200.0000              RECHARGE =       55200.0000
      STREAM LEAKAGE =    28500662.4431        STREAM LEAKAGE =       58683.3923

            TOTAL IN =   153710409.9477              TOTAL IN =      273870.3184

          OUT:                                     OUT:
          ----                                     ----
             STORAGE =      936897.4868               STORAGE =       10046.1786
       CONSTANT HEAD =           0.0000         CONSTANT HEAD =           0.0000
               WELLS =    83570411.0000                 WELLS =      152500.7500
            RECHARGE =           0.0000              RECHARGE =           0.0000
      STREAM LEAKAGE =    69203102.0431        STREAM LEAKAGE =      111323.3881

           TOTAL OUT =   153710410.5299             TOTAL OUT =      273870.3167

            IN - OUT =          -0.5822              IN - OUT =       1.6712E-03

 PERCENT DISCREPANCY =          -0.00     PERCENT DISCREPANCY =           0.00






         TIME SUMMARY AT END OF TIME STEP    1 IN STRESS PERIOD    6
                    SECONDS     MINUTES      HOURS       DAYS        YEARS
                    -----------------------------------------------------------
   TIME STEP LENGTH 7.86240E+06 1.31040E+05  2184.0      91.000     0.24914    
 STRESS PERIOD TIME 7.86240E+06 1.31040E+05  2184.0      91.000     0.24914    
         TOTAL TIME 4.73472E+07 7.89120E+05  13152.      548.00      1.5003    
1
1
                            STRESS PERIOD NO.    7, LENGTH =   91.00000    
                            -----------------------------------------------

                              NUMBER OF TIME STEPS =     1

                               MULTIPLIER FOR DELT =     1.500

                            INITIAL TIME STEP SIZE =   91.00000    

 WELL NO.  LAYER   ROW   COL   STRESS RATE         
 --------------------------------------------------
      1      1     18     24     -0.1890E+05
      2      1     19     27     -0.5000E+05
      3      1     21     24     -0.5000E+05

      3 WELLS

                 RECHARGE =   0.00000    

 REUSING STREAM SEGMENT DATA FROM LAST STRESS PERIOD
 
 SOLVING FOR HEAD 


     7 CALLS TO PCG ROUTINE FOR TIME STEP   1 IN STRESS PERIOD    7
    26 TOTAL ITERATIONS

 OUTPUT CONTROL FOR STRESS PERIOD    7   TIME STEP    1
    SAVE BUDGET
    SAVE HEAD FOR ALL LAYERS
    PRINT HEAD FOR ALL LAYERS
 UBDSV2 SAVING "STREAMFLOW OUT  " ON UNIT  50 AT TIME STEP  1, STRESS PERIOD   7



 STREAM LISTING     PERIOD      7   STEP        1

 LAYER ROW COL. STREAM  RCH.  FLOW INTO     FLOW TO   FLOW OUT OF   OVRLND.     DIRECT     STREAM       STREAM     STREAM     STREAM   STREAMBED  STREAMBED
                SEG.NO.  NO.  STRM. RCH.    AQUIFER    STRM. RCH.    RUNOFF     PRECIP       ET          HEAD       DEPTH      WIDTH   CONDCTNC.   GRADIENT

   1   13    1     1     1    1.0000E+05 -2.6969E+03   1.0270E+05  0.000E+00  0.000E+00  0.000E+00  4.84072E+01  1.458E-01  2.000E+01  2.000E+04 -1.348E-01
   1   13    2     1     2    1.0270E+05 -4.5882E+03   1.0729E+05  0.000E+00  0.000E+00  0.000E+00  4.79330E+01  1.489E-01  2.000E+01  2.000E+04 -2.294E-01
   1   14    3     1     3    1.0729E+05 -3.6277E+03   1.1091E+05  0.000E+00  0.000E+00  0.000E+00  4.74592E+01  1.524E-01  2.000E+01  2.000E+04 -1.814E-01
   1   15    4     1     4    1.1091E+05 -3.5250E+03   1.1444E+05  0.000E+00  0.000E+00  0.000E+00  4.69849E+01  1.554E-01  2.000E+01  2.000E+04 -1.762E-01
   1   16    5     1     5    1.1444E+05 -3.8551E+03   1.1829E+05  0.000E+00  0.000E+00  0.000E+00  4.65107E+01  1.584E-01  2.000E+01  2.000E+04 -1.928E-01
   1   16    6     1     6    1.1829E+05 -3.0435E+03   1.2134E+05  0.000E+00  0.000E+00  0.000E+00  4.60362E+01  1.612E-01  2.000E+01  2.000E+04 -1.522E-01
   1   16    7     1     7    1.2134E+05 -3.0994E+03   1.2444E+05  0.000E+00  0.000E+00  0.000E+00  4.55614E+01  1.637E-01  2.000E+01  2.000E+04 -1.550E-01
   1   16    8     1     8    1.2444E+05 -3.1206E+03   1.2756E+05  0.000E+00  0.000E+00  0.000E+00  4.50866E+01  1.662E-01  2.000E+01  2.000E+04 -1.560E-01
   1   16    9     1     9    1.2756E+05 -3.0916E+03   1.3065E+05  0.000E+00  0.000E+00  0.000E+00  4.46118E+01  1.686E-01  2.000E+01  2.000E+04 -1.546E-01
   1   16   10     1    10    1.3065E+05 -3.0090E+03   1.3366E+05  0.000E+00  0.000E+00  0.000E+00  4.41369E+01  1.710E-01  2.000E+01  2.000E+04 -1.505E-01
   1   16   11     1    11    1.3366E+05 -2.8779E+03   1.3653E+05  0.000E+00  0.000E+00  0.000E+00  4.36619E+01  1.733E-01  2.000E+01  2.000E+04 -1.439E-01
   1   16   12     1    12    1.3653E+05 -3.4173E+03   1.3995E+05  0.000E+00  0.000E+00  0.000E+00  4.31870E+01  1.757E-01  2.000E+01  2.000E+04 -1.709E-01
   1   15   13     1    13    1.3995E+05 -3.0602E+03   1.4301E+05  0.000E+00  0.000E+00  0.000E+00  4.27122E+01  1.781E-01  2.000E+01  2.000E+04 -1.530E-01
   1   14   14     1    14    1.4301E+05 -3.1034E+03   1.4612E+05  0.000E+00  0.000E+00  0.000E+00  4.22373E+01  1.805E-01  2.000E+01  2.000E+04 -1.552E-01
   1   13   15     1    15    1.4612E+05 -3.4880E+03   1.4960E+05  0.000E+00  0.000E+00  0.000E+00  4.17625E+01  1.829E-01  2.000E+01  2.000E+04 -1.744E-01
   1   12   16     1    16    1.4960E+05 -5.0025E+03   1.5461E+05  0.000E+00  0.000E+00  0.000E+00  4.12883E+01  1.860E-01  2.000E+01  2.000E+04 -2.501E-01
   1   12   17     1    17    1.5461E+05 -3.0488E+03   1.5765E+05  0.000E+00  0.000E+00  0.000E+00  4.08140E+01  1.890E-01  2.000E+01  2.000E+04 -1.524E-01
   1   12   18     1    18    1.5765E+05 -2.8552E+03   1.6051E+05  0.000E+00  0.000E+00  0.000E+00  4.03388E+01  1.911E-01  2.000E+01  2.000E+04 -1.428E-01
   1   12   19     1    19    1.6051E+05 -3.9387E+03   1.6445E+05  0.000E+00  0.000E+00  0.000E+00  3.98640E+01  1.936E-01  2.000E+01  2.000E+04 -1.969E-01
   1   13   20     1    20    1.6445E+05 -1.6049E+03   1.6605E+05  0.000E+00  0.000E+00  0.000E+00  3.93887E+01  1.955E-01  2.000E+01  2.000E+04 -8.025E-02
   1   14   21     1    21    1.6605E+05  7.5402E+02   1.6530E+05  0.000E+00  0.000E+00  0.000E+00  3.89117E+01  1.958E-01  2.000E+01  2.000E+04  3.770E-02
   1   14   22     1    22    1.6530E+05  5.6996E+03   1.5960E+05  0.000E+00  0.000E+00  0.000E+00  3.84322E+01  1.935E-01  2.000E+01  2.000E+04  2.850E-01
   1    9   30     2     1    5.0000E+04 -2.5770E+03   5.2577E+04  0.000E+00  0.000E+00  0.000E+00  4.02426E+01  1.176E-01  2.000E+01  2.000E+04 -1.289E-01
   1    9   29     2     2    5.2577E+04 -2.9122E+03   5.5489E+04  0.000E+00  0.000E+00  0.000E+00  3.99964E+01  1.214E-01  2.000E+01  2.000E+04 -1.456E-01
   1    9   28     2     3    5.5489E+04 -3.2986E+03   5.8788E+04  0.000E+00  0.000E+00  0.000E+00  3.97505E+01  1.255E-01  2.000E+01  2.000E+04 -1.649E-01
   1    9   27     2     4    5.8788E+04 -5.9863E+03   6.4774E+04  0.000E+00  0.000E+00  0.000E+00  3.95065E+01  1.315E-01  2.000E+01  2.000E+04 -2.993E-01
   1   10   26     2     5    6.4774E+04 -3.5838E+03   6.8358E+04  0.000E+00  0.000E+00  0.000E+00  3.92626E+01  1.376E-01  2.000E+01  2.000E+04 -1.792E-01
   1   11   25     2     6    6.8358E+04 -2.5351E+03   7.0893E+04  0.000E+00  0.000E+00  0.000E+00  3.90163E+01  1.413E-01  2.000E+01  2.000E+04 -1.268E-01
   1   12   24     2     7    7.0893E+04 -1.6957E+03   7.2589E+04  0.000E+00  0.000E+00  0.000E+00  3.87689E+01  1.439E-01  2.000E+01  2.000E+04 -8.478E-02
   1   13   23     2     8    7.2589E+04 -8.7113E+02   7.3460E+04  0.000E+00  0.000E+00  0.000E+00  3.85204E+01  1.454E-01  2.000E+01  2.000E+04 -4.356E-02
   1   14   22     2     9    7.3460E+04  2.4459E+03   7.1014E+04  0.000E+00  0.000E+00  0.000E+00  3.82695E+01  1.445E-01  2.000E+01  2.000E+04  1.223E-01
   1   14   22     3     1    2.3061E+05 -7.8292E+03   2.3844E+05  0.000E+00  0.000E+00  0.000E+00  3.77557E+01  2.002E-01  2.000E+01  2.000E+04 -3.915E-01
   1   15   23     3     2    2.3844E+05  4.0263E+03   2.3442E+05  0.000E+00  0.000E+00  0.000E+00  3.68678E+01  2.012E-01  2.000E+01  2.000E+04  2.013E-01
   1   15   24     3     3    2.3442E+05  3.6824E+03   2.3073E+05  0.000E+00  0.000E+00  0.000E+00  3.59770E+01  1.992E-01  2.000E+01  2.000E+04  1.841E-01
   1   15   25     3     4    2.3073E+05  3.2319E+03   2.2750E+05  0.000E+00  0.000E+00  0.000E+00  3.50863E+01  1.974E-01  2.000E+01  2.000E+04  1.616E-01
   1   15   26     3     5    2.2750E+05  1.6102E+03   2.2589E+05  0.000E+00  0.000E+00  0.000E+00  3.41961E+01  1.961E-01  2.000E+01  2.000E+04  8.051E-02
   1   16   27     3     6    2.2589E+05  6.5026E+03   2.1939E+05  0.000E+00  0.000E+00  0.000E+00  3.33051E+01  1.940E-01  2.000E+01  2.000E+04  3.251E-01
   1   17   28     3     7    2.1939E+05  9.5391E+03   2.0985E+05  0.000E+00  0.000E+00  0.000E+00  3.24120E+01  1.898E-01  2.000E+01  2.000E+04  4.770E-01
   1   18   29     3     8    2.0985E+05  9.0603E+03   2.0079E+05  0.000E+00  0.000E+00  0.000E+00  3.15182E+01  1.848E-01  2.000E+01  2.000E+04  4.530E-01
   1   18   30     3     9    2.0079E+05  8.0211E+02   1.9999E+05  0.000E+00  0.000E+00  0.000E+00  3.06266E+01  1.821E-01  2.000E+01  2.000E+04  4.011E-02



1
              HEAD IN LAYER   1 AT END OF TIME STEP   1 IN STRESS PERIOD    7
  ---------------------------------------------------------------------------

          1      2      3      4      5      6      7      8      9     10
         11     12     13     14     15     16     17     18     19     20
         21     22     23     24     25     26     27     28     29     30
 .........................................................................
   1  ****** ****** ****** ****** ****** ****** ****** ****** ****** ******
      ****** ****** ****** ****** ****** ****** ****** ****** ****** ******
      ****** ****** ****** ****** ****** ****** ****** ****** ****** ******
   2  ****** ****** ****** ****** ****** ****** ****** ****** ****** ******
      ****** ****** ****** ****** ****** ****** ****** ****** ****** ******
      ****** ****** ****** ****** ****** ****** ****** ****** ****** ******
   3  ****** ****** ****** ****** ****** ****** ****** ****** ****** ******
      ****** ****** ****** ****** ****** ****** ****** ****** ****** ******
      ****** ****** ****** ****** ****** ****** ****** ****** ****** ******
   4  ****** ****** ****** ****** ****** ****** ****** ****** ****** ******
      ****** ****** ****** ****** ****** ****** ****** ****** ****** ******
      ****** ****** ****** ****** ****** ****** ****** ****** ****** ******
   5  ****** ****** ****** ****** ****** ****** ****** ****** ****** ******
      ****** ****** ****** ****** ****** ****** ****** ****** ****** ******
      ****** ****** ****** ****** ****** ****** ****** ****** ****** ******
   6  ****** ****** ****** ****** ****** ****** ****** ****** ****** ******
      ****** ****** ****** ****** ****** ****** ****** ****** ****** ******
      ****** ****** ****** ****** ****** ****** ****** ****** ****** ******
   7  ****** ****** ****** ****** ****** ****** ****** ****** ****** ******
      ****** ****** ****** ****** ****** ****** ****** ****** ****** ******
      ****** ****** ****** ****** ****** ****** ****** ****** ****** ******
   8  ****** ****** ****** ****** ****** ****** ****** ****** ****** ******
      ****** ****** ****** ****** ****** ****** ****** ****** ****** ******
      ****** ****** ****** ****** ****** ****** ****** ****** ****** ******
   9  ****** ****** ****** ****** ****** ****** ****** ****** ****** ******
      ****** ****** ****** ****** ****** ****** ****** ****** ****** ******
      ****** ****** ****** ****** ****** ****** ****** ****** ****** ******
  10  ****** ****** ****** ****** ****** ****** ****** ****** ****** ******
      ****** ****** ****** ****** ****** ****** ****** ****** ****** ******
      ****** ****** ****** ****** ****** ****** ****** ****** ****** ******
  11  ****** ****** ****** ****** ****** ****** ****** ****** ****** ******
      ****** ****** ****** ****** ****** ****** ****** ****** ****** ******
      ****** ****** ****** ****** ****** ****** ****** ****** ****** ******
  12  ****** ****** ****** ****** ****** ****** ****** ****** ****** ******
      ****** ****** ****** ****** ****** ****** ****** ****** ****** ******
      ****** ****** ****** ****** ****** ****** ****** ****** ****** ******
  13  ****** ****** ****** ****** ****** ****** ****** ****** ****** ******
      ****** ****** ****** ****** ****** ****** ****** ****** ****** ******
      ****** ****** ****** ****** ****** ****** ****** ****** ****** ******
  14  ****** ****** ****** ****** ****** ****** ****** ****** ****** ******
      ****** ****** ****** ****** ****** ****** ****** ****** ****** ******
      ****** ****** ****** ****** ****** ****** ****** ****** ****** ******
  15  ****** ****** ****** ****** ****** ****** ****** ****** ****** ******
      ****** ****** ****** ****** ****** ****** ****** ****** ****** ******
      ****** ****** ****** ****** ****** ****** ****** ****** ****** ******
  16  ****** ****** ****** ****** ****** ****** ****** ****** ****** ******
      ****** ****** ****** ****** ****** ****** ****** ****** ****** ******
      ****** ****** ****** ****** ****** ****** ****** ****** ****** ******
  17  ****** ****** ****** ****** ****** ****** ****** ****** ****** ******
      ****** ****** ****** ****** ****** ****** ****** ****** ****** ******
      ****** ****** ****** ****** ****** ****** ****** ****** ****** ******
  18  ****** ****** ****** ****** ****** ****** ****** ****** ****** ******
      ****** ****** ****** ****** ****** ****** ****** ****** ****** ******
      ****** ****** ****** ****** ****** ****** ****** ****** ****** ******
  19  ****** ****** ****** ****** ****** ****** ****** ****** ****** ******
      ****** ****** ****** ****** ****** ****** ****** ****** ****** ******
      ****** ****** ****** ****** ****** .25942 ****** ****** ****** ******
  20  ****** ****** ****** ****** ****** ****** ****** ****** ****** ******
      ****** ****** ****** ****** ****** ****** ****** ****** ****** ******
      ****** ****** ****** ****** ****** ****** ****** ****** ****** ******
  21  ****** ****** ****** ****** ****** ****** ****** ****** ****** ******
      ****** ****** ****** ****** ****** ****** ****** ****** ****** ******
      ****** ****** ****** ****** ****** ****** ****** ****** ****** ******
  22  ****** ****** ****** ****** ****** ****** ****** ****** ****** ******
      ****** ****** ****** ****** ****** ****** ****** ****** ****** ******
      ****** ****** ****** ****** ****** ****** ****** ****** ****** ******
  23  ****** ****** ****** ****** ****** ****** ****** ****** ****** ******
      ****** ****** ****** ****** ****** ****** ****** ****** ****** ******
      ****** ****** ****** ****** ****** ****** ****** ****** ****** ******
  24  ****** ****** ****** ****** ****** ****** ****** ****** ****** ******
      ****** ****** ****** ****** ****** ****** ****** ****** ****** ******
      ****** ****** ****** ****** ****** ****** ****** ****** ****** ******
  25  ****** ****** ****** ****** ****** ****** ****** ****** ****** ******
      ****** ****** ****** ****** ****** ****** ****** ****** ****** ******
      ****** ****** ****** ****** ****** ****** ****** ****** ****** ******

 HEAD WILL BE SAVED ON UNIT   51 AT END OF TIME STEP    1, STRESS PERIOD    7
1
  VOLUMETRIC BUDGET FOR ENTIRE MODEL AT END OF TIME STEP    1, STRESS PERIOD   7
  ------------------------------------------------------------------------------

     CUMULATIVE VOLUMES      L**3       RATES FOR THIS TIME STEP      L**3/T
     ------------------                 ------------------------

           IN:                                      IN:
           ---                                      ---
             STORAGE =    27049432.0651               STORAGE =        9420.9607
       CONSTANT HEAD =    99125139.9083         CONSTANT HEAD =      167084.8026
               WELLS =           0.0000                 WELLS =           0.0000
            RECHARGE =    15097200.0000              RECHARGE =           0.0000
      STREAM LEAKAGE =    32809906.9928        STREAM LEAKAGE =       47354.3357

            TOTAL IN =   174081678.9662              TOTAL IN =      223860.0991

          OUT:                                     OUT:
          ----                                     ----
             STORAGE =     1630516.2357               STORAGE =        7622.1841
       CONSTANT HEAD =           0.0000         CONSTANT HEAD =           0.0000
               WELLS =    94389875.0304                 WELLS =      118895.2091
            RECHARGE =           0.0000              RECHARGE =           0.0000
      STREAM LEAKAGE =    78061288.4754        STREAM LEAKAGE =       97342.7080

           TOTAL OUT =   174081679.7415             TOTAL OUT =      223860.1012

            IN - OUT =          -0.7753              IN - OUT =      -2.1222E-03

 PERCENT DISCREPANCY =          -0.00     PERCENT DISCREPANCY =          -0.00






         TIME SUMMARY AT END OF TIME STEP    1 IN STRESS PERIOD    7
                    SECONDS     MINUTES      HOURS       DAYS        YEARS
                    -----------------------------------------------------------
   TIME STEP LENGTH 7.86240E+06 1.31040E+05  2184.0      91.000     0.24914    
 STRESS PERIOD TIME 7.86240E+06 1.31040E+05  2184.0      91.000     0.24914    
         TOTAL TIME 5.52096E+07 9.20160E+05  15336.      639.00      1.7495    
1
1
                            STRESS PERIOD NO.    8, LENGTH =   91.00000    
                            -----------------------------------------------

                              NUMBER OF TIME STEPS =     1

                               MULTIPLIER FOR DELT =     1.500

                            INITIAL TIME STEP SIZE =   91.00000    

 WELL NO.  LAYER   ROW   COL   STRESS RATE         
 --------------------------------------------------
      1      1     18     24     -0.1890E+05
      2      1     19     27     -0.5000E+05
      3      1     21     24     -0.5000E+05

      3 WELLS

                 RECHARGE =  1.000000E-03

 REUSING STREAM SEGMENT DATA FROM LAST STRESS PERIOD
 
 SOLVING FOR HEAD 


     6 CALLS TO PCG ROUTINE FOR TIME STEP   1 IN STRESS PERIOD    8
    23 TOTAL ITERATIONS

 OUTPUT CONTROL FOR STRESS PERIOD    8   TIME STEP    1
    SAVE BUDGET
    SAVE HEAD FOR ALL LAYERS
    PRINT HEAD FOR ALL LAYERS
 UBDSV2 SAVING "STREAMFLOW OUT  " ON UNIT  50 AT TIME STEP  1, STRESS PERIOD   8



 STREAM LISTING     PERIOD      8   STEP        1

 LAYER ROW COL. STREAM  RCH.  FLOW INTO     FLOW TO   FLOW OUT OF   OVRLND.     DIRECT     STREAM       STREAM     STREAM     STREAM   STREAMBED  STREAMBED
                SEG.NO.  NO.  STRM. RCH.    AQUIFER    STRM. RCH.    RUNOFF     PRECIP       ET          HEAD       DEPTH      WIDTH   CONDCTNC.   GRADIENT

   1   13    1     1     1    1.0000E+05 -2.8667E+03   1.0287E+05  0.000E+00  0.000E+00  0.000E+00  4.84073E+01  1.459E-01  2.000E+01  2.000E+04 -1.433E-01
   1   13    2     1     2    1.0287E+05 -4.8001E+03   1.0767E+05  0.000E+00  0.000E+00  0.000E+00  4.79333E+01  1.492E-01  2.000E+01  2.000E+04 -2.400E-01
   1   14    3     1     3    1.0767E+05 -3.8630E+03   1.1153E+05  0.000E+00  0.000E+00  0.000E+00  4.74596E+01  1.528E-01  2.000E+01  2.000E+04 -1.932E-01
   1   15    4     1     4    1.1153E+05 -3.7641E+03   1.1529E+05  0.000E+00  0.000E+00  0.000E+00  4.69855E+01  1.560E-01  2.000E+01  2.000E+04 -1.882E-01
   1   16    5     1     5    1.1529E+05 -4.0792E+03   1.1937E+05  0.000E+00  0.000E+00  0.000E+00  4.65115E+01  1.592E-01  2.000E+01  2.000E+04 -2.040E-01
   1   16    6     1     6    1.1937E+05 -3.2223E+03   1.2260E+05  0.000E+00  0.000E+00  0.000E+00  4.60372E+01  1.622E-01  2.000E+01  2.000E+04 -1.611E-01
   1   16    7     1     7    1.2260E+05 -3.2814E+03   1.2588E+05  0.000E+00  0.000E+00  0.000E+00  4.55625E+01  1.648E-01  2.000E+01  2.000E+04 -1.641E-01
   1   16    8     1     8    1.2588E+05 -3.3061E+03   1.2918E+05  0.000E+00  0.000E+00  0.000E+00  4.50878E+01  1.674E-01  2.000E+01  2.000E+04 -1.653E-01
   1   16    9     1     9    1.2918E+05 -3.2807E+03   1.3246E+05  0.000E+00  0.000E+00  0.000E+00  4.46131E+01  1.700E-01  2.000E+01  2.000E+04 -1.640E-01
   1   16   10     1    10    1.3246E+05 -3.2029E+03   1.3567E+05  0.000E+00  0.000E+00  0.000E+00  4.41384E+01  1.725E-01  2.000E+01  2.000E+04 -1.601E-01
   1   16   11     1    11    1.3567E+05 -3.0804E+03   1.3875E+05  0.000E+00  0.000E+00  0.000E+00  4.36635E+01  1.749E-01  2.000E+01  2.000E+04 -1.540E-01
   1   16   12     1    12    1.3875E+05 -3.7190E+03   1.4247E+05  0.000E+00  0.000E+00  0.000E+00  4.31888E+01  1.775E-01  2.000E+01  2.000E+04 -1.859E-01
   1   15   13     1    13    1.4247E+05 -3.3844E+03   1.4585E+05  0.000E+00  0.000E+00  0.000E+00  4.27142E+01  1.801E-01  2.000E+01  2.000E+04 -1.692E-01
   1   14   14     1    14    1.4585E+05 -3.4322E+03   1.4928E+05  0.000E+00  0.000E+00  0.000E+00  4.22395E+01  1.827E-01  2.000E+01  2.000E+04 -1.716E-01
   1   13   15     1    15    1.4928E+05 -3.8004E+03   1.5308E+05  0.000E+00  0.000E+00  0.000E+00  4.17649E+01  1.854E-01  2.000E+01  2.000E+04 -1.900E-01
   1   12   16     1    16    1.5308E+05 -5.2526E+03   1.5834E+05  0.000E+00  0.000E+00  0.000E+00  4.12909E+01  1.887E-01  2.000E+01  2.000E+04 -2.626E-01
   1   12   17     1    17    1.5834E+05 -3.2714E+03   1.6161E+05  0.000E+00  0.000E+00  0.000E+00  4.08168E+01  1.918E-01  2.000E+01  2.000E+04 -1.636E-01
   1   12   18     1    18    1.6161E+05 -3.0845E+03   1.6469E+05  0.000E+00  0.000E+00  0.000E+00  4.03418E+01  1.940E-01  2.000E+01  2.000E+04 -1.542E-01
   1   12   19     1    19    1.6469E+05 -4.1981E+03   1.6889E+05  0.000E+00  0.000E+00  0.000E+00  3.98671E+01  1.966E-01  2.000E+01  2.000E+04 -2.099E-01
   1   13   20     1    20    1.6889E+05 -1.9666E+03   1.7086E+05  0.000E+00  0.000E+00  0.000E+00  3.93920E+01  1.988E-01  2.000E+01  2.000E+04 -9.833E-02
   1   14   21     1    21    1.7086E+05  2.4698E+02   1.7061E+05  0.000E+00  0.000E+00  0.000E+00  3.89153E+01  1.994E-01  2.000E+01  2.000E+04  1.235E-02
   1   14   22     1    22    1.7061E+05  5.5943E+03   1.6501E+05  0.000E+00  0.000E+00  0.000E+00  3.84360E+01  1.973E-01  2.000E+01  2.000E+04  2.797E-01
   1    9   30     2     1    5.0000E+04 -2.7580E+03   5.2758E+04  0.000E+00  0.000E+00  0.000E+00  4.02428E+01  1.178E-01  2.000E+01  2.000E+04 -1.379E-01
   1    9   29     2     2    5.2758E+04 -3.0913E+03   5.5849E+04  0.000E+00  0.000E+00  0.000E+00  3.99968E+01  1.218E-01  2.000E+01  2.000E+04 -1.546E-01
   1    9   28     2     3    5.5849E+04 -3.4748E+03   5.9324E+04  0.000E+00  0.000E+00  0.000E+00  3.97511E+01  1.261E-01  2.000E+01  2.000E+04 -1.737E-01
   1    9   27     2     4    5.9324E+04 -6.2070E+03   6.5531E+04  0.000E+00  0.000E+00  0.000E+00  3.95074E+01  1.324E-01  2.000E+01  2.000E+04 -3.104E-01
   1   10   26     2     5    6.5531E+04 -3.8231E+03   6.9354E+04  0.000E+00  0.000E+00  0.000E+00  3.92637E+01  1.387E-01  2.000E+01  2.000E+04 -1.912E-01
   1   11   25     2     6    6.9354E+04 -2.7693E+03   7.2124E+04  0.000E+00  0.000E+00  0.000E+00  3.90177E+01  1.427E-01  2.000E+01  2.000E+04 -1.385E-01
   1   12   24     2     7    7.2124E+04 -1.9107E+03   7.4034E+04  0.000E+00  0.000E+00  0.000E+00  3.87705E+01  1.455E-01  2.000E+01  2.000E+04 -9.554E-02
   1   13   23     2     8    7.4034E+04 -1.0526E+03   7.5087E+04  0.000E+00  0.000E+00  0.000E+00  3.85223E+01  1.473E-01  2.000E+01  2.000E+04 -5.263E-02
   1   14   22     2     9    7.5087E+04  2.3051E+03   7.2782E+04  0.000E+00  0.000E+00  0.000E+00  3.82715E+01  1.465E-01  2.000E+01  2.000E+04  1.153E-01
   1   14   22     3     1    2.3780E+05 -7.9369E+03   2.4573E+05  0.000E+00  0.000E+00  0.000E+00  3.77594E+01  2.039E-01  2.000E+01  2.000E+04 -3.968E-01
   1   15   23     3     2    2.4573E+05  3.2217E+03   2.4251E+05  0.000E+00  0.000E+00  0.000E+00  3.68717E+01  2.051E-01  2.000E+01  2.000E+04  1.611E-01
   1   15   24     3     3    2.4251E+05  3.0913E+03   2.3942E+05  0.000E+00  0.000E+00  0.000E+00  3.59812E+01  2.035E-01  2.000E+01  2.000E+04  1.546E-01
   1   15   25     3     4    2.3942E+05  2.7161E+03   2.3670E+05  0.000E+00  0.000E+00  0.000E+00  3.50909E+01  2.020E-01  2.000E+01  2.000E+04  1.358E-01
   1   15   26     3     5    2.3670E+05  1.1754E+03   2.3553E+05  0.000E+00  0.000E+00  0.000E+00  3.42010E+01  2.010E-01  2.000E+01  2.000E+04  5.877E-02
   1   16   27     3     6    2.3553E+05  5.7941E+03   2.2973E+05  0.000E+00  0.000E+00  0.000E+00  3.33103E+01  1.992E-01  2.000E+01  2.000E+04  2.897E-01
   1   17   28     3     7    2.2973E+05  8.8373E+03   2.2090E+05  0.000E+00  0.000E+00  0.000E+00  3.24176E+01  1.954E-01  2.000E+01  2.000E+04  4.419E-01
   1   18   29     3     8    2.2090E+05  8.4097E+03   2.1249E+05  0.000E+00  0.000E+00  0.000E+00  3.15242E+01  1.909E-01  2.000E+01  2.000E+04  4.205E-01
   1   18   30     3     9    2.1249E+05  4.4674E+02   2.1204E+05  0.000E+00  0.000E+00  0.000E+00  3.06330E+01  1.885E-01  2.000E+01  2.000E+04  2.234E-02



1
              HEAD IN LAYER   1 AT END OF TIME STEP   1 IN STRESS PERIOD    8
  ---------------------------------------------------------------------------

          1      2      3      4      5      6      7      8      9     10
         11     12     13     14     15     16     17     18     19     20
         21     22     23     24     25     26     27     28     29     30
 .........................................................................
   1  ****** ****** ****** ****** ****** ****** ****** ****** ****** ******
      ****** ****** ****** ****** ****** ****** ****** ****** ****** ******
      ****** ****** ****** ****** ****** ****** ****** ****** ****** ******
   2  ****** ****** ****** ****** ****** ****** ****** ****** ****** ******
      ****** ****** ****** ****** ****** ****** ****** ****** ****** ******
      ****** ****** ****** ****** ****** ****** ****** ****** ****** ******
   3  ****** ****** ****** ****** ****** ****** ****** ****** ****** ******
      ****** ****** ****** ****** ****** ****** ****** ****** ****** ******
      ****** ****** ****** ****** ****** ****** ****** ****** ****** ******
   4  ****** ****** ****** ****** ****** ****** ****** ****** ****** ******
      ****** ****** ****** ****** ****** ****** ****** ****** ****** ******
      ****** ****** ****** ****** ****** ****** ****** ****** ****** ******
   5  ****** ****** ****** ****** ****** ****** ****** ****** ****** ******
      ****** ****** ****** ****** ****** ****** ****** ****** ****** ******
      ****** ****** ****** ****** ****** ****** ****** ****** ****** ******
   6  ****** ****** ****** ****** ****** ****** ****** ****** ****** ******
      ****** ****** ****** ****** ****** ****** ****** ****** ****** ******
      ****** ****** ****** ****** ****** ****** ****** ****** ****** ******
   7  ****** ****** ****** ****** ****** ****** ****** ****** ****** ******
      ****** ****** ****** ****** ****** ****** ****** ****** ****** ******
      ****** ****** ****** ****** ****** ****** ****** ****** ****** ******
   8  ****** ****** ****** ****** ****** ****** ****** ****** ****** ******
      ****** ****** ****** ****** ****** ****** ****** ****** ****** ******
      ****** ****** ****** ****** ****** ****** ****** ****** ****** ******
   9  ****** ****** ****** ****** ****** ****** ****** ****** ****** ******
      ****** ****** ****** ****** ****** ****** ****** ****** ****** ******
      ****** ****** ****** ****** ****** ****** ****** ****** ****** ******
  10  ****** ****** ****** ****** ****** ****** ****** ****** ****** ******
      ****** ****** ****** ****** ****** ****** ****** ****** ****** ******
      ****** ****** ****** ****** ****** ****** ****** ****** ****** ******
  11  ****** ****** ****** ****** ****** ****** ****** ****** ****** ******
      ****** ****** ****** ****** ****** ****** ****** ****** ****** ******
      ****** ****** ****** ****** ****** ****** ****** ****** ****** ******
  12  ****** ****** ****** ****** ****** ****** ****** ****** ****** ******
      ****** ****** ****** ****** ****** ****** ****** ****** ****** ******
      ****** ****** ****** ****** ****** ****** ****** ****** ****** ******
  13  ****** ****** ****** ****** ****** ****** ****** ****** ****** ******
      ****** ****** ****** ****** ****** ****** ****** ****** ****** ******
      ****** ****** ****** ****** ****** ****** ****** ****** ****** ******
  14  ****** ****** ****** ****** ****** ****** ****** ****** ****** ******
      ****** ****** ****** ****** ****** ****** ****** ****** ****** ******
      ****** ****** ****** ****** ****** ****** ****** ****** ****** ******
  15  ****** ****** ****** ****** ****** ****** ****** ****** ****** ******
      ****** ****** ****** ****** ****** ****** ****** ****** ****** ******
      ****** ****** ****** ****** ****** ****** ****** ****** ****** ******
  16  ****** ****** ****** ****** ****** ****** ****** ****** ****** ******
      ****** ****** ****** ****** ****** ****** ****** ****** ****** ******
      ****** ****** ****** ****** ****** ****** ****** ****** ****** ******
  17  ****** ****** ****** ****** ****** ****** ****** ****** ****** ******
      ****** ****** ****** ****** ****** ****** ****** ****** ****** ******
      ****** ****** ****** ****** ****** ****** ****** ****** ****** ******
  18  ****** ****** ****** ****** ****** ****** ****** ****** ****** ******
      ****** ****** ****** ****** ****** ****** ****** ****** ****** ******
      ****** ****** ****** ****** ****** ****** ****** ****** ****** ******
  19  ****** ****** ****** ****** ****** ****** ****** ****** ****** ******
      ****** ****** ****** ****** ****** ****** ****** ****** ****** ******
      ****** ****** ****** ****** ****** ****** ****** ****** ****** ******
  20  ****** ****** ****** ****** ****** ****** ****** ****** ****** ******
      ****** ****** ****** ****** ****** ****** ****** ****** ****** ******
      ****** ****** ****** ****** ****** ****** ****** ****** ****** ******
  21  ****** ****** ****** ****** ****** ****** ****** ****** ****** ******
      ****** ****** ****** ****** ****** ****** ****** ****** ****** ******
      ****** ****** ****** ****** ****** ****** ****** ****** ****** ******
  22  ****** ****** ****** ****** ****** ****** ****** ****** ****** ******
      ****** ****** ****** ****** ****** ****** ****** ****** ****** ******
      ****** ****** ****** ****** ****** ****** ****** ****** ****** ******
  23  ****** ****** ****** ****** ****** ****** ****** ****** ****** ******
      ****** ****** ****** ****** ****** ****** ****** ****** ****** ******
      ****** ****** ****** ****** ****** ****** ****** ****** ****** ******
  24  ****** ****** ****** ****** ****** ****** ****** ****** ****** ******
      ****** ****** ****** ****** ****** ****** ****** ****** ****** ******
      ****** ****** ****** ****** ****** ****** ****** ****** ****** ******
  25  ****** ****** ****** ****** ****** ****** ****** ****** ****** ******
      ****** ****** ****** ****** ****** ****** ****** ****** ****** ******
      ****** ****** ****** ****** ****** ****** ****** ****** ****** ******

 HEAD WILL BE SAVED ON UNIT   51 AT END OF TIME STEP    1, STRESS PERIOD    8
1
  VOLUMETRIC BUDGET FOR ENTIRE MODEL AT END OF TIME STEP    1, STRESS PERIOD   8
  ------------------------------------------------------------------------------

     CUMULATIVE VOLUMES      L**3       RATES FOR THIS TIME STEP      L**3/T
     ------------------                 ------------------------

           IN:                                      IN:
           ---                                      ---
             STORAGE =    27049432.0651               STORAGE =           0.0000
       CONSTANT HEAD =   113688269.5714         CONSTANT HEAD =      160034.3919
               WELLS =           0.0000                 WELLS =           0.0000
            RECHARGE =    17608800.0000              RECHARGE =       27600.0000
      STREAM LEAKAGE =    36617223.6092        STREAM LEAKAGE =       41838.6441

            TOTAL IN =   194963725.2457              TOTAL IN =      229473.0360

          OUT:                                     OUT:
          ----                                     ----
             STORAGE =     2240045.5176               STORAGE =        6698.1240
       CONSTANT HEAD =           0.0000         CONSTANT HEAD =           0.0000
               WELLS =   105209339.0608                 WELLS =      118895.2091
            RECHARGE =           0.0000              RECHARGE =           0.0000
      STREAM LEAKAGE =    87514341.3618        STREAM LEAKAGE =      103879.7020

           TOTAL OUT =   194963725.9402             TOTAL OUT =      229473.0352

            IN - OUT =          -0.6945              IN - OUT =       8.8816E-04

 PERCENT DISCREPANCY =          -0.00     PERCENT DISCREPANCY =           0.00






         TIME SUMMARY AT END OF TIME STEP    1 IN STRESS PERIOD    8
                    SECONDS     MINUTES      HOURS       DAYS        YEARS
                    -----------------------------------------------------------
   TIME STEP LENGTH 7.86240E+06 1.31040E+05  2184.0      91.000     0.24914    
 STRESS PERIOD TIME 7.86240E+06 1.31040E+05  2184.0      91.000     0.24914    
         TOTAL TIME 6.30720E+07 1.05120E+06  17520.      730.00      1.9986    
1
1
                            STRESS PERIOD NO.    9, LENGTH =   92.00000    
                            -----------------------------------------------

                              NUMBER OF TIME STEPS =     1

                               MULTIPLIER FOR DELT =     1.500

                            INITIAL TIME STEP SIZE =   92.00000    

 WELL NO.  LAYER   ROW   COL   STRESS RATE         
 --------------------------------------------------
      1      1     18     24     -0.1890E+05
      2      1     19     27     -0.5000E+05
      3      1     21     24     -0.5000E+05

      3 WELLS

                 RECHARGE =  5.000000E-04

 REUSING STREAM SEGMENT DATA FROM LAST STRESS PERIOD
 
 SOLVING FOR HEAD 


     6 CALLS TO PCG ROUTINE FOR TIME STEP   1 IN STRESS PERIOD    9
    22 TOTAL ITERATIONS

 OUTPUT CONTROL FOR STRESS PERIOD    9   TIME STEP    1
    SAVE BUDGET
    SAVE HEAD FOR ALL LAYERS
    PRINT HEAD FOR ALL LAYERS
 UBDSV2 SAVING "STREAMFLOW OUT  " ON UNIT  50 AT TIME STEP  1, STRESS PERIOD   9



 STREAM LISTING     PERIOD      9   STEP        1

 LAYER ROW COL. STREAM  RCH.  FLOW INTO     FLOW TO   FLOW OUT OF   OVRLND.     DIRECT     STREAM       STREAM     STREAM     STREAM   STREAMBED  STREAMBED
                SEG.NO.  NO.  STRM. RCH.    AQUIFER    STRM. RCH.    RUNOFF     PRECIP       ET          HEAD       DEPTH      WIDTH   CONDCTNC.   GRADIENT

   1   13    1     1     1    1.0000E+05 -2.7515E+03   1.0275E+05  0.000E+00  0.000E+00  0.000E+00  4.84072E+01  1.458E-01  2.000E+01  2.000E+04 -1.376E-01
   1   13    2     1     2    1.0275E+05 -4.6484E+03   1.0740E+05  0.000E+00  0.000E+00  0.000E+00  4.79331E+01  1.490E-01  2.000E+01  2.000E+04 -2.324E-01
   1   14    3     1     3    1.0740E+05 -3.7095E+03   1.1111E+05  0.000E+00  0.000E+00  0.000E+00  4.74594E+01  1.525E-01  2.000E+01  2.000E+04 -1.855E-01
   1   15    4     1     4    1.1111E+05 -3.6136E+03   1.1472E+05  0.000E+00  0.000E+00  0.000E+00  4.69851E+01  1.556E-01  2.000E+01  2.000E+04 -1.807E-01
   1   16    5     1     5    1.1472E+05 -3.9447E+03   1.1867E+05  0.000E+00  0.000E+00  0.000E+00  4.65110E+01  1.587E-01  2.000E+01  2.000E+04 -1.972E-01
   1   16    6     1     6    1.1867E+05 -3.1148E+03   1.2178E+05  0.000E+00  0.000E+00  0.000E+00  4.60366E+01  1.616E-01  2.000E+01  2.000E+04 -1.557E-01
   1   16    7     1     7    1.2178E+05 -3.1729E+03   1.2496E+05  0.000E+00  0.000E+00  0.000E+00  4.55618E+01  1.641E-01  2.000E+01  2.000E+04 -1.586E-01
   1   16    8     1     8    1.2496E+05 -3.1980E+03   1.2815E+05  0.000E+00  0.000E+00  0.000E+00  4.50871E+01  1.666E-01  2.000E+01  2.000E+04 -1.599E-01
   1   16    9     1     9    1.2815E+05 -3.1747E+03   1.3133E+05  0.000E+00  0.000E+00  0.000E+00  4.46123E+01  1.691E-01  2.000E+01  2.000E+04 -1.587E-01
   1   16   10     1    10    1.3133E+05 -3.1009E+03   1.3443E+05  0.000E+00  0.000E+00  0.000E+00  4.41375E+01  1.716E-01  2.000E+01  2.000E+04 -1.550E-01
   1   16   11     1    11    1.3443E+05 -2.9851E+03   1.3741E+05  0.000E+00  0.000E+00  0.000E+00  4.36625E+01  1.739E-01  2.000E+01  2.000E+04 -1.493E-01
   1   16   12     1    12    1.3741E+05 -3.6201E+03   1.4103E+05  0.000E+00  0.000E+00  0.000E+00  4.31878E+01  1.764E-01  2.000E+01  2.000E+04 -1.810E-01
   1   15   13     1    13    1.4103E+05 -3.2698E+03   1.4430E+05  0.000E+00  0.000E+00  0.000E+00  4.27131E+01  1.790E-01  2.000E+01  2.000E+04 -1.635E-01
   1   14   14     1    14    1.4430E+05 -3.3135E+03   1.4762E+05  0.000E+00  0.000E+00  0.000E+00  4.22383E+01  1.815E-01  2.000E+01  2.000E+04 -1.657E-01
   1   13   15     1    15    1.4762E+05 -3.6778E+03   1.5130E+05  0.000E+00  0.000E+00  0.000E+00  4.17636E+01  1.841E-01  2.000E+01  2.000E+04 -1.839E-01
   1   12   16     1    16    1.5130E+05 -5.1197E+03   1.5642E+05  0.000E+00  0.000E+00  0.000E+00  4.12896E+01  1.873E-01  2.000E+01  2.000E+04 -2.560E-01
   1   12   17     1    17    1.5642E+05 -3.1818E+03   1.5960E+05  0.000E+00  0.000E+00  0.000E+00  4.08153E+01  1.903E-01  2.000E+01  2.000E+04 -1.591E-01
   1   12   18     1    18    1.5960E+05 -2.9987E+03   1.6260E+05  0.000E+00  0.000E+00  0.000E+00  4.03403E+01  1.926E-01  2.000E+01  2.000E+04 -1.499E-01
   1   12   19     1    19    1.6260E+05 -4.0854E+03   1.6668E+05  0.000E+00  0.000E+00  0.000E+00  3.98655E+01  1.951E-01  2.000E+01  2.000E+04 -2.043E-01
   1   13   20     1    20    1.6668E+05 -1.8870E+03   1.6857E+05  0.000E+00  0.000E+00  0.000E+00  3.93904E+01  1.972E-01  2.000E+01  2.000E+04 -9.435E-02
   1   14   21     1    21    1.6857E+05  2.7094E+02   1.6830E+05  0.000E+00  0.000E+00  0.000E+00  3.89137E+01  1.978E-01  2.000E+01  2.000E+04  1.355E-02
   1   14   22     1    22    1.6830E+05  5.6026E+03   1.6269E+05  0.000E+00  0.000E+00  0.000E+00  3.84343E+01  1.957E-01  2.000E+01  2.000E+04  2.801E-01
   1    9   30     2     1    5.0000E+04 -2.6592E+03   5.2659E+04  0.000E+00  0.000E+00  0.000E+00  4.02427E+01  1.177E-01  2.000E+01  2.000E+04 -1.330E-01
   1    9   29     2     2    5.2659E+04 -2.9930E+03   5.5652E+04  0.000E+00  0.000E+00  0.000E+00  3.99966E+01  1.216E-01  2.000E+01  2.000E+04 -1.497E-01
   1    9   28     2     3    5.5652E+04 -3.3771E+03   5.9029E+04  0.000E+00  0.000E+00  0.000E+00  3.97508E+01  1.258E-01  2.000E+01  2.000E+04 -1.689E-01
   1    9   27     2     4    5.9029E+04 -6.0782E+03   6.5107E+04  0.000E+00  0.000E+00  0.000E+00  3.95069E+01  1.319E-01  2.000E+01  2.000E+04 -3.039E-01
   1   10   26     2     5    6.5107E+04 -3.6882E+03   6.8796E+04  0.000E+00  0.000E+00  0.000E+00  3.92630E+01  1.380E-01  2.000E+01  2.000E+04 -1.844E-01
   1   11   25     2     6    6.8796E+04 -2.6392E+03   7.1435E+04  0.000E+00  0.000E+00  0.000E+00  3.90169E+01  1.419E-01  2.000E+01  2.000E+04 -1.320E-01
   1   12   24     2     7    7.1435E+04 -1.7943E+03   7.3229E+04  0.000E+00  0.000E+00  0.000E+00  3.87696E+01  1.446E-01  2.000E+01  2.000E+04 -8.972E-02
   1   13   23     2     8    7.3229E+04 -9.6123E+02   7.4190E+04  0.000E+00  0.000E+00  0.000E+00  3.85212E+01  1.462E-01  2.000E+01  2.000E+04 -4.806E-02
   1   14   22     2     9    7.4190E+04  2.3245E+03   7.1866E+04  0.000E+00  0.000E+00  0.000E+00  3.82704E+01  1.454E-01  2.000E+01  2.000E+04  1.162E-01
   1   14   22     3     1    2.3456E+05 -7.9287E+03   2.4249E+05  0.000E+00  0.000E+00  0.000E+00  3.77578E+01  2.022E-01  2.000E+01  2.000E+04 -3.964E-01
   1   15   23     3     2    2.4249E+05  3.1909E+03   2.3930E+05  0.000E+00  0.000E+00  0.000E+00  3.68701E+01  2.034E-01  2.000E+01  2.000E+04  1.595E-01
   1   15   24     3     3    2.3930E+05  3.0856E+03   2.3621E+05  0.000E+00  0.000E+00  0.000E+00  3.59796E+01  2.018E-01  2.000E+01  2.000E+04  1.543E-01
   1   15   25     3     4    2.3621E+05  2.7276E+03   2.3349E+05  0.000E+00  0.000E+00  0.000E+00  3.50892E+01  2.003E-01  2.000E+01  2.000E+04  1.364E-01
   1   15   26     3     5    2.3349E+05  1.2327E+03   2.3225E+05  0.000E+00  0.000E+00  0.000E+00  3.41993E+01  1.993E-01  2.000E+01  2.000E+04  6.164E-02
   1   16   27     3     6    2.3225E+05  5.8253E+03   2.2643E+05  0.000E+00  0.000E+00  0.000E+00  3.33086E+01  1.975E-01  2.000E+01  2.000E+04  2.913E-01
   1   17   28     3     7    2.2643E+05  8.8622E+03   2.1757E+05  0.000E+00  0.000E+00  0.000E+00  3.24159E+01  1.937E-01  2.000E+01  2.000E+04  4.431E-01
   1   18   29     3     8    2.1757E+05  8.4154E+03   2.0915E+05  0.000E+00  0.000E+00  0.000E+00  3.15225E+01  1.891E-01  2.000E+01  2.000E+04  4.208E-01
   1   18   30     3     9    2.0915E+05  4.8408E+02   2.0867E+05  0.000E+00  0.000E+00  0.000E+00  3.06312E+01  1.868E-01  2.000E+01  2.000E+04  2.420E-02



1
              HEAD IN LAYER   1 AT END OF TIME STEP   1 IN STRESS PERIOD    9
  ---------------------------------------------------------------------------

          1      2      3      4      5      6      7      8      9     10
         11     12     13     14     15     16     17     18     19     20
         21     22     23     24     25     26     27     28     29     30
 .........................................................................
   1  ****** ****** ****** ****** ****** ****** ****** ****** ****** ******
      ****** ****** ****** ****** ****** ****** ****** ****** ****** ******
      ****** ****** ****** ****** ****** ****** ****** ****** ****** ******
   2  ****** ****** ****** ****** ****** ****** ****** ****** ****** ******
      ****** ****** ****** ****** ****** ****** ****** ****** ****** ******
      ****** ****** ****** ****** ****** ****** ****** ****** ****** ******
   3  ****** ****** ****** ****** ****** ****** ****** ****** ****** ******
      ****** ****** ****** ****** ****** ****** ****** ****** ****** ******
      ****** ****** ****** ****** ****** ****** ****** ****** ****** ******
   4  ****** ****** ****** ****** ****** ****** ****** ****** ****** ******
      ****** ****** ****** ****** ****** ****** ****** ****** ****** ******
      ****** ****** ****** ****** ****** ****** ****** ****** ****** ******
   5  ****** ****** ****** ****** ****** ****** ****** ****** ****** ******
      ****** ****** ****** ****** ****** ****** ****** ****** ****** ******
      ****** ****** ****** ****** ****** ****** ****** ****** ****** ******
   6  ****** ****** ****** ****** ****** ****** ****** ****** ****** ******
      ****** ****** ****** ****** ****** ****** ****** ****** ****** ******
      ****** ****** ****** ****** ****** ****** ****** ****** ****** ******
   7  ****** ****** ****** ****** ****** ****** ****** ****** ****** ******
      ****** ****** ****** ****** ****** ****** ****** ****** ****** ******
      ****** ****** ****** ****** ****** ****** ****** ****** ****** ******
   8  ****** ****** ****** ****** ****** ****** ****** ****** ****** ******
      ****** ****** ****** ****** ****** ****** ****** ****** ****** ******
      ****** ****** ****** ****** ****** ****** ****** ****** ****** ******
   9  ****** ****** ****** ****** ****** ****** ****** ****** ****** ******
      ****** ****** ****** ****** ****** ****** ****** ****** ****** ******
      ****** ****** ****** ****** ****** ****** ****** ****** ****** ******
  10  ****** ****** ****** ****** ****** ****** ****** ****** ****** ******
      ****** ****** ****** ****** ****** ****** ****** ****** ****** ******
      ****** ****** ****** ****** ****** ****** ****** ****** ****** ******
  11  ****** ****** ****** ****** ****** ****** ****** ****** ****** ******
      ****** ****** ****** ****** ****** ****** ****** ****** ****** ******
      ****** ****** ****** ****** ****** ****** ****** ****** ****** ******
  12  ****** ****** ****** ****** ****** ****** ****** ****** ****** ******
      ****** ****** ****** ****** ****** ****** ****** ****** ****** ******
      ****** ****** ****** ****** ****** ****** ****** ****** ****** ******
  13  ****** ****** ****** ****** ****** ****** ****** ****** ****** ******
      ****** ****** ****** ****** ****** ****** ****** ****** ****** ******
      ****** ****** ****** ****** ****** ****** ****** ****** ****** ******
  14  ****** ****** ****** ****** ****** ****** ****** ****** ****** ******
      ****** ****** ****** ****** ****** ****** ****** ****** ****** ******
      ****** ****** ****** ****** ****** ****** ****** ****** ****** ******
  15  ****** ****** ****** ****** ****** ****** ****** ****** ****** ******
      ****** ****** ****** ****** ****** ****** ****** ****** ****** ******
      ****** ****** ****** ****** ****** ****** ****** ****** ****** ******
  16  ****** ****** ****** ****** ****** ****** ****** ****** ****** ******
      ****** ****** ****** ****** ****** ****** ****** ****** ****** ******
      ****** ****** ****** ****** ****** ****** ****** ****** ****** ******
  17  ****** ****** ****** ****** ****** ****** ****** ****** ****** ******
      ****** ****** ****** ****** ****** ****** ****** ****** ****** ******
      ****** ****** ****** ****** ****** ****** ****** ****** ****** ******
  18  ****** ****** ****** ****** ****** ****** ****** ****** ****** ******
      ****** ****** ****** ****** ****** ****** ****** ****** ****** ******
      ****** ****** ****** ****** ****** ****** ****** ****** ****** ******
  19  ****** ****** ****** ****** ****** ****** ****** ****** ****** ******
      ****** ****** ****** ****** ****** ****** ****** ****** ****** ******
      ****** ****** ****** ****** ****** ****** ****** ****** ****** ******
  20  ****** ****** ****** ****** ****** ****** ****** ****** ****** ******
      ****** ****** ****** ****** ****** ****** ****** ****** ****** ******
      ****** ****** ****** ****** ****** ****** ****** ****** ****** ******
  21  ****** ****** ****** ****** ****** ****** ****** ****** ****** ******
      ****** ****** ****** ****** ****** ****** ****** ****** ****** ******
      ****** ****** ****** ****** ****** ****** ****** ****** ****** ******
  22  ****** ****** ****** ****** ****** ****** ****** ****** ****** ******
      ****** ****** ****** ****** ****** ****** ****** ****** ****** ******
      ****** ****** ****** ****** ****** ****** ****** ****** ****** ******
  23  ****** ****** ****** ****** ****** ****** ****** ****** ****** ******
      ****** ****** ****** ****** ****** ****** ****** ****** ****** ******
      ****** ****** ****** ****** ****** ****** ****** ****** ****** ******
  24  ****** ****** ****** ****** ****** ****** ****** ****** ****** ******
      ****** ****** ****** ****** ****** ****** ****** ****** ****** ******
      ****** ****** ****** ****** ****** ****** ****** ****** ****** ******
  25  ****** ****** ****** ****** ****** ****** ****** ****** ****** ******
      ****** ****** ****** ****** ****** ****** ****** ****** ****** ******
      ****** ****** ****** ****** ****** ****** ****** ****** ****** ******

 HEAD WILL BE SAVED ON UNIT   51 AT END OF TIME STEP    1, STRESS PERIOD    9
1
  VOLUMETRIC BUDGET FOR ENTIRE MODEL AT END OF TIME STEP    1, STRESS PERIOD   9
  ------------------------------------------------------------------------------

     CUMULATIVE VOLUMES      L**3       RATES FOR THIS TIME STEP      L**3/T
     ------------------                 ------------------------

           IN:                                      IN:
           ---                                      ---
             STORAGE =    27237168.2651               STORAGE =        2040.6109
       CONSTANT HEAD =   128592253.6821         CONSTANT HEAD =      161999.8273
               WELLS =           0.0000                 WELLS =           0.0000
            RECHARGE =    18878400.0000              RECHARGE =       13800.0000
      STREAM LEAKAGE =    40483224.5075        STREAM LEAKAGE =       42021.7489

            TOTAL IN =   215191046.4547              TOTAL IN =      219862.1871

          OUT:                                     OUT:
          ----                                     ----
             STORAGE =     2265767.6993               STORAGE =         279.5889
       CONSTANT HEAD =           0.0000         CONSTANT HEAD =           0.0000
               WELLS =   116147698.3004                 WELLS =      118895.2091
            RECHARGE =           0.0000              RECHARGE =           0.0000
      STREAM LEAKAGE =    96777581.4122        STREAM LEAKAGE =      100687.3919

           TOTAL OUT =   215191047.4119             TOTAL OUT =      219862.1899

            IN - OUT =          -0.9571              IN - OUT =      -2.8549E-03

 PERCENT DISCREPANCY =          -0.00     PERCENT DISCREPANCY =          -0.00






         TIME SUMMARY AT END OF TIME STEP    1 IN STRESS PERIOD    9
                    SECONDS     MINUTES      HOURS       DAYS        YEARS
                    -----------------------------------------------------------
   TIME STEP LENGTH 7.94880E+06 1.32480E+05  2208.0      92.000     0.25188    
 STRESS PERIOD TIME 7.94880E+06 1.32480E+05  2208.0      92.000     0.25188    
         TOTAL TIME 7.10208E+07 1.18368E+06  19728.      822.00      2.2505    
1
1
                            STRESS PERIOD NO.   10, LENGTH =   91.00000    
                            -----------------------------------------------

                              NUMBER OF TIME STEPS =     1

                               MULTIPLIER FOR DELT =     1.500

                            INITIAL TIME STEP SIZE =   91.00000    

 WELL NO.  LAYER   ROW   COL   STRESS RATE         
 --------------------------------------------------
      1      1     18     24     -0.1890E+05
      2      1     19     27     -0.5000E+05
      3      1     21     24     -0.5000E+05

      3 WELLS

                 RECHARGE =  2.000000E-03

 REUSING STREAM SEGMENT DATA FROM LAST STRESS PERIOD
 
 SOLVING FOR HEAD 


     7 CALLS TO PCG ROUTINE FOR TIME STEP   1 IN STRESS PERIOD   10
    26 TOTAL ITERATIONS

 OUTPUT CONTROL FOR STRESS PERIOD   10   TIME STEP    1
    SAVE BUDGET
    SAVE HEAD FOR ALL LAYERS
    PRINT HEAD FOR ALL LAYERS
 UBDSV2 SAVING "STREAMFLOW OUT  " ON UNIT  50 AT TIME STEP  1, STRESS PERIOD  10



 STREAM LISTING     PERIOD     10   STEP        1

 LAYER ROW COL. STREAM  RCH.  FLOW INTO     FLOW TO   FLOW OUT OF   OVRLND.     DIRECT     STREAM       STREAM     STREAM     STREAM   STREAMBED  STREAMBED
                SEG.NO.  NO.  STRM. RCH.    AQUIFER    STRM. RCH.    RUNOFF     PRECIP       ET          HEAD       DEPTH      WIDTH   CONDCTNC.   GRADIENT

   1   13    1     1     1    1.0000E+05 -3.1750E+03   1.0317E+05  0.000E+00  0.000E+00  0.000E+00  4.84074E+01  1.460E-01  2.000E+01  2.000E+04 -1.587E-01
   1   13    2     1     2    1.0317E+05 -5.2108E+03   1.0839E+05  0.000E+00  0.000E+00  0.000E+00  4.79337E+01  1.496E-01  2.000E+01  2.000E+04 -2.605E-01
   1   14    3     1     3    1.0839E+05 -4.2768E+03   1.1266E+05  0.000E+00  0.000E+00  0.000E+00  4.74604E+01  1.536E-01  2.000E+01  2.000E+04 -2.138E-01
   1   15    4     1     4    1.1266E+05 -4.1742E+03   1.1684E+05  0.000E+00  0.000E+00  0.000E+00  4.69866E+01  1.571E-01  2.000E+01  2.000E+04 -2.087E-01
   1   16    5     1     5    1.1684E+05 -4.4615E+03   1.2130E+05  0.000E+00  0.000E+00  0.000E+00  4.65129E+01  1.606E-01  2.000E+01  2.000E+04 -2.231E-01
   1   16    6     1     6    1.2130E+05 -3.5237E+03   1.2482E+05  0.000E+00  0.000E+00  0.000E+00  4.60388E+01  1.638E-01  2.000E+01  2.000E+04 -1.762E-01
   1   16    7     1     7    1.2482E+05 -3.5889E+03   1.2841E+05  0.000E+00  0.000E+00  0.000E+00  4.55644E+01  1.667E-01  2.000E+01  2.000E+04 -1.794E-01
   1   16    8     1     8    1.2841E+05 -3.6185E+03   1.3203E+05  0.000E+00  0.000E+00  0.000E+00  4.50899E+01  1.695E-01  2.000E+01  2.000E+04 -1.809E-01
   1   16    9     1     9    1.3203E+05 -3.5959E+03   1.3563E+05  0.000E+00  0.000E+00  0.000E+00  4.46155E+01  1.723E-01  2.000E+01  2.000E+04 -1.798E-01
   1   16   10     1    10    1.3563E+05 -3.5194E+03   1.3914E+05  0.000E+00  0.000E+00  0.000E+00  4.41409E+01  1.750E-01  2.000E+01  2.000E+04 -1.760E-01
   1   16   11     1    11    1.3914E+05 -3.3998E+03   1.4254E+05  0.000E+00  0.000E+00  0.000E+00  4.36663E+01  1.777E-01  2.000E+01  2.000E+04 -1.700E-01
   1   16   12     1    12    1.4254E+05 -4.1611E+03   1.4671E+05  0.000E+00  0.000E+00  0.000E+00  4.31919E+01  1.805E-01  2.000E+01  2.000E+04 -2.081E-01
   1   15   13     1    13    1.4671E+05 -3.8570E+03   1.5056E+05  0.000E+00  0.000E+00  0.000E+00  4.27176E+01  1.835E-01  2.000E+01  2.000E+04 -1.928E-01
   1   14   14     1    14    1.5056E+05 -3.9113E+03   1.5447E+05  0.000E+00  0.000E+00  0.000E+00  4.22432E+01  1.863E-01  2.000E+01  2.000E+04 -1.956E-01
   1   13   15     1    15    1.5447E+05 -4.2642E+03   1.5874E+05  0.000E+00  0.000E+00  0.000E+00  4.17689E+01  1.893E-01  2.000E+01  2.000E+04 -2.132E-01
   1   12   16     1    16    1.5874E+05 -5.6774E+03   1.6442E+05  0.000E+00  0.000E+00  0.000E+00  4.12952E+01  1.929E-01  2.000E+01  2.000E+04 -2.839E-01
   1   12   17     1    17    1.6442E+05 -3.5975E+03   1.6801E+05  0.000E+00  0.000E+00  0.000E+00  4.08212E+01  1.962E-01  2.000E+01  2.000E+04 -1.799E-01
   1   12   18     1    18    1.6801E+05 -3.4069E+03   1.7142E+05  0.000E+00  0.000E+00  0.000E+00  4.03464E+01  1.987E-01  2.000E+01  2.000E+04 -1.703E-01
   1   12   19     1    19    1.7142E+05 -4.5793E+03   1.7600E+05  0.000E+00  0.000E+00  0.000E+00  3.98719E+01  2.015E-01  2.000E+01  2.000E+04 -2.290E-01
   1   13   20     1    20    1.7600E+05 -2.3757E+03   1.7837E+05  0.000E+00  0.000E+00  0.000E+00  3.93971E+01  2.039E-01  2.000E+01  2.000E+04 -1.188E-01
   1   14   21     1    21    1.7837E+05 -1.9200E+02   1.7857E+05  0.000E+00  0.000E+00  0.000E+00  3.89207E+01  2.048E-01  2.000E+01  2.000E+04 -9.600E-03
   1   14   22     1    22    1.7857E+05  5.5179E+03   1.7305E+05  0.000E+00  0.000E+00  0.000E+00  3.84416E+01  2.029E-01  2.000E+01  2.000E+04  2.759E-01
   1    9   30     2     1    5.0000E+04 -3.0207E+03   5.3021E+04  0.000E+00  0.000E+00  0.000E+00  4.02430E+01  1.180E-01  2.000E+01  2.000E+04 -1.510E-01
   1    9   29     2     2    5.3021E+04 -3.3519E+03   5.6373E+04  0.000E+00  0.000E+00  0.000E+00  3.99973E+01  1.223E-01  2.000E+01  2.000E+04 -1.676E-01
   1    9   28     2     3    5.6373E+04 -3.7343E+03   6.0107E+04  0.000E+00  0.000E+00  0.000E+00  3.97520E+01  1.270E-01  2.000E+01  2.000E+04 -1.867E-01
   1    9   27     2     4    6.0107E+04 -6.5580E+03   6.6665E+04  0.000E+00  0.000E+00  0.000E+00  3.95086E+01  1.336E-01  2.000E+01  2.000E+04 -3.279E-01
   1   10   26     2     5    6.6665E+04 -4.1838E+03   7.0849E+04  0.000E+00  0.000E+00  0.000E+00  3.92653E+01  1.403E-01  2.000E+01  2.000E+04 -2.092E-01
   1   11   25     2     6    7.0849E+04 -3.1135E+03   7.3962E+04  0.000E+00  0.000E+00  0.000E+00  3.90197E+01  1.447E-01  2.000E+01  2.000E+04 -1.557E-01
   1   12   24     2     7    7.3962E+04 -2.2136E+03   7.6176E+04  0.000E+00  0.000E+00  0.000E+00  3.87729E+01  1.479E-01  2.000E+01  2.000E+04 -1.107E-01
   1   13   23     2     8    7.6176E+04 -1.2883E+03   7.7464E+04  0.000E+00  0.000E+00  0.000E+00  3.85249E+01  1.499E-01  2.000E+01  2.000E+04 -6.442E-02
   1   14   22     2     9    7.7464E+04  2.1746E+03   7.5290E+04  0.000E+00  0.000E+00  0.000E+00  3.82744E+01  1.494E-01  2.000E+01  2.000E+04  1.087E-01
   1   14   22     3     1    2.4834E+05 -8.0189E+03   2.5636E+05  0.000E+00  0.000E+00  0.000E+00  3.77647E+01  2.092E-01  2.000E+01  2.000E+04 -4.009E-01
   1   15   23     3     2    2.5636E+05  2.7489E+03   2.5361E+05  0.000E+00  0.000E+00  0.000E+00  3.68771E+01  2.105E-01  2.000E+01  2.000E+04  1.374E-01
   1   15   24     3     3    2.5361E+05  2.7728E+03   2.5084E+05  0.000E+00  0.000E+00  0.000E+00  3.59869E+01  2.091E-01  2.000E+01  2.000E+04  1.386E-01
   1   15   25     3     4    2.5084E+05  2.4194E+03   2.4842E+05  0.000E+00  0.000E+00  0.000E+00  3.50967E+01  2.078E-01  2.000E+01  2.000E+04  1.210E-01
   1   15   26     3     5    2.4842E+05  8.4699E+02   2.4757E+05  0.000E+00  0.000E+00  0.000E+00  3.42070E+01  2.070E-01  2.000E+01  2.000E+04  4.235E-02
   1   16   27     3     6    2.4757E+05  5.3306E+03   2.4224E+05  0.000E+00  0.000E+00  0.000E+00  3.33166E+01  2.054E-01  2.000E+01  2.000E+04  2.665E-01
   1   17   28     3     7    2.4224E+05  8.3543E+03   2.3388E+05  0.000E+00  0.000E+00  0.000E+00  3.24242E+01  2.020E-01  2.000E+01  2.000E+04  4.177E-01
   1   18   29     3     8    2.3388E+05  7.9322E+03   2.2595E+05  0.000E+00  0.000E+00  0.000E+00  3.15311E+01  1.978E-01  2.000E+01  2.000E+04  3.966E-01
   1   18   30     3     9    2.2595E+05  1.2840E+02   2.2582E+05  0.000E+00  0.000E+00  0.000E+00  3.06402E+01  1.957E-01  2.000E+01  2.000E+04  6.420E-03



1
              HEAD IN LAYER   1 AT END OF TIME STEP   1 IN STRESS PERIOD   10
  ---------------------------------------------------------------------------

          1      2      3      4      5      6      7      8      9     10
         11     12     13     14     15     16     17     18     19     20
         21     22     23     24     25     26     27     28     29     30
 .........................................................................
   1  ****** ****** ****** ****** ****** ****** ****** ****** ****** ******
      ****** ****** ****** ****** ****** ****** ****** ****** ****** ******
      ****** ****** ****** ****** ****** ****** ****** ****** ****** ******
   2  ****** ****** ****** ****** ****** ****** ****** ****** ****** ******
      ****** ****** ****** ****** ****** ****** ****** ****** ****** ******
      ****** ****** ****** ****** ****** ****** ****** ****** ****** ******
   3  ****** ****** ****** ****** ****** ****** ****** ****** ****** ******
      ****** ****** ****** ****** ****** ****** ****** ****** ****** ******
      ****** ****** ****** ****** ****** ****** ****** ****** ****** ******
   4  ****** ****** ****** ****** ****** ****** ****** ****** ****** ******
      ****** ****** ****** ****** ****** ****** ****** ****** ****** ******
      ****** ****** ****** ****** ****** ****** ****** ****** ****** ******
   5  ****** ****** ****** ****** ****** ****** ****** ****** ****** ******
      ****** ****** ****** ****** ****** ****** ****** ****** ****** ******
      ****** ****** ****** ****** ****** ****** ****** ****** ****** ******
   6  ****** ****** ****** ****** ****** ****** ****** ****** ****** ******
      ****** ****** ****** ****** ****** ****** ****** ****** ****** ******
      ****** ****** ****** ****** ****** ****** ****** ****** ****** ******
   7  ****** ****** ****** ****** ****** ****** ****** ****** ****** ******
      ****** ****** ****** ****** ****** ****** ****** ****** ****** ******
      ****** ****** ****** ****** ****** ****** ****** ****** ****** ******
   8  ****** ****** ****** ****** ****** ****** ****** ****** ****** ******
      ****** ****** ****** ****** ****** ****** ****** ****** ****** ******
      ****** ****** ****** ****** ****** ****** ****** ****** ****** ******
   9  ****** ****** ****** ****** ****** ****** ****** ****** ****** ******
      ****** ****** ****** ****** ****** ****** ****** ****** ****** ******
      ****** ****** ****** ****** ****** ****** ****** ****** ****** ******
  10  ****** ****** ****** ****** ****** ****** ****** ****** ****** ******
      ****** ****** ****** ****** ****** ****** ****** ****** ****** ******
      ****** ****** ****** ****** ****** ****** ****** ****** ****** ******
  11  ****** ****** ****** ****** ****** ****** ****** ****** ****** ******
      ****** ****** ****** ****** ****** ****** ****** ****** ****** ******
      ****** ****** ****** ****** ****** ****** ****** ****** ****** ******
  12  ****** ****** ****** ****** ****** ****** ****** ****** ****** ******
      ****** ****** ****** ****** ****** ****** ****** ****** ****** ******
      ****** ****** ****** ****** ****** ****** ****** ****** ****** ******
  13  ****** ****** ****** ****** ****** ****** ****** ****** ****** ******
      ****** ****** ****** ****** ****** ****** ****** ****** ****** ******
      ****** ****** ****** ****** ****** ****** ****** ****** ****** ******
  14  ****** ****** ****** ****** ****** ****** ****** ****** ****** ******
      ****** ****** ****** ****** ****** ****** ****** ****** ****** ******
      ****** ****** ****** ****** ****** ****** ****** ****** ****** ******
  15  ****** ****** ****** ****** ****** ****** ****** ****** ****** ******
      ****** ****** ****** ****** ****** ****** ****** ****** ****** ******
      ****** ****** ****** ****** ****** ****** ****** ****** ****** ******
  16  ****** ****** ****** ****** ****** ****** ****** ****** ****** ******
      ****** ****** ****** ****** ****** ****** ****** ****** ****** ******
      ****** ****** ****** ****** ****** ****** ****** ****** ****** ******
  17  ****** ****** ****** ****** ****** ****** ****** ****** ****** ******
      ****** ****** ****** ****** ****** ****** ****** ****** ****** ******
      ****** ****** ****** ****** ****** ****** ****** ****** ****** ******
  18  ****** ****** ****** ****** ****** ****** ****** ****** ****** ******
      ****** ****** ****** ****** ****** ****** ****** ****** ****** ******
      ****** ****** ****** ****** ****** ****** ****** ****** ****** ******
  19  ****** ****** ****** ****** ****** ****** ****** ****** ****** ******
      ****** ****** ****** ****** ****** ****** ****** ****** ****** ******
      ****** ****** ****** ****** ****** ****** ****** ****** ****** ******
  20  ****** ****** ****** ****** ****** ****** ****** ****** ****** ******
      ****** ****** ****** ****** ****** ****** ****** ****** ****** ******
      ****** ****** ****** ****** ****** ****** ****** ****** ****** ******
  21  ****** ****** ****** ****** ****** ****** ****** ****** ****** ******
      ****** ****** ****** ****** ****** ****** ****** ****** ****** ******
      ****** ****** ****** ****** ****** ****** ****** ****** ****** ******
  22  ****** ****** ****** ****** ****** ****** ****** ****** ****** ******
      ****** ****** ****** ****** ****** ****** ****** ****** ****** ******
      ****** ****** ****** ****** ****** ****** ****** ****** ****** ******
  23  ****** ****** ****** ****** ****** ****** ****** ****** ****** ******
      ****** ****** ****** ****** ****** ****** ****** ****** ****** ******
      ****** ****** ****** ****** ****** ****** ****** ****** ****** ******
  24  ****** ****** ****** ****** ****** ****** ****** ****** ****** ******
      ****** ****** ****** ****** ****** ****** ****** ****** ****** ******
      ****** ****** ****** ****** ****** ****** ****** ****** ****** ******
  25  ****** ****** ****** ****** ****** ****** ****** ****** ****** ******
      ****** ****** ****** ****** ****** ****** ****** ****** ****** ******
      ****** ****** ****** ****** ****** ****** ****** ****** ****** ******

 HEAD WILL BE SAVED ON UNIT   51 AT END OF TIME STEP    1, STRESS PERIOD   10
1
  VOLUMETRIC BUDGET FOR ENTIRE MODEL AT END OF TIME STEP    1, STRESS PERIOD  10
  ------------------------------------------------------------------------------

     CUMULATIVE VOLUMES      L**3       RATES FOR THIS TIME STEP      L**3/T
     ------------------                 ------------------------

           IN:                                      IN:
           ---                                      ---
             STORAGE =    27237168.2651               STORAGE =           0.0000
       CONSTANT HEAD =   142293160.3368         CONSTANT HEAD =      150559.4138
               WELLS =           0.0000                 WELLS =           0.0000
            RECHARGE =    23901600.0000              RECHARGE =       55200.0000
      STREAM LEAKAGE =    43961795.7528        STREAM LEAKAGE =       38226.0576

            TOTAL IN =   237393724.3547              TOTAL IN =      243985.4714

          OUT:                                     OUT:
          ----                                     ----
             STORAGE =     3270430.2095               STORAGE =       11040.2474
       CONSTANT HEAD =           0.0000         CONSTANT HEAD =           0.0000
               WELLS =   126967162.3308                 WELLS =      118895.2091
            RECHARGE =           0.0000              RECHARGE =           0.0000
      STREAM LEAKAGE =   107156132.6157        STREAM LEAKAGE =      114050.0132

           TOTAL OUT =   237393725.1560             TOTAL OUT =      243985.4697

            IN - OUT =          -0.8013              IN - OUT =       1.7129E-03

 PERCENT DISCREPANCY =          -0.00     PERCENT DISCREPANCY =           0.00






         TIME SUMMARY AT END OF TIME STEP    1 IN STRESS PERIOD   10
                    SECONDS     MINUTES      HOURS       DAYS        YEARS
                    -----------------------------------------------------------
   TIME STEP LENGTH 7.86240E+06 1.31040E+05  2184.0      91.000     0.24914    
 STRESS PERIOD TIME 7.86240E+06 1.31040E+05  2184.0      91.000     0.24914    
         TOTAL TIME 7.88832E+07 1.31472E+06  21912.      913.00      2.4997    
1
1
                            STRESS PERIOD NO.   11, LENGTH =   91.00000    
                            -----------------------------------------------

                              NUMBER OF TIME STEPS =     1

                               MULTIPLIER FOR DELT =     1.500

                            INITIAL TIME STEP SIZE =   91.00000    

 WELL NO.  LAYER   ROW   COL   STRESS RATE         
 --------------------------------------------------
      1      1     18     24     -0.1890E+05
      2      1     19     27     -0.5000E+05
      3      1     21     24     -0.5000E+05

      3 WELLS

                 RECHARGE =   0.00000    

 REUSING STREAM SEGMENT DATA FROM LAST STRESS PERIOD
 
 SOLVING FOR HEAD 


     7 CALLS TO PCG ROUTINE FOR TIME STEP   1 IN STRESS PERIOD   11
    26 TOTAL ITERATIONS

 OUTPUT CONTROL FOR STRESS PERIOD   11   TIME STEP    1
    SAVE BUDGET
    SAVE HEAD FOR ALL LAYERS
    PRINT HEAD FOR ALL LAYERS
 UBDSV2 SAVING "STREAMFLOW OUT  " ON UNIT  50 AT TIME STEP  1, STRESS PERIOD  11



 STREAM LISTING     PERIOD     11   STEP        1

 LAYER ROW COL. STREAM  RCH.  FLOW INTO     FLOW TO   FLOW OUT OF   OVRLND.     DIRECT     STREAM       STREAM     STREAM     STREAM   STREAMBED  STREAMBED
                SEG.NO.  NO.  STRM. RCH.    AQUIFER    STRM. RCH.    RUNOFF     PRECIP       ET          HEAD       DEPTH      WIDTH   CONDCTNC.   GRADIENT

   1   13    1     1     1    1.0000E+05 -2.6909E+03   1.0269E+05  0.000E+00  0.000E+00  0.000E+00  4.84072E+01  1.458E-01  2.000E+01  2.000E+04 -1.345E-01
   1   13    2     1     2    1.0269E+05 -4.5780E+03   1.0727E+05  0.000E+00  0.000E+00  0.000E+00  4.79330E+01  1.489E-01  2.000E+01  2.000E+04 -2.289E-01
   1   14    3     1     3    1.0727E+05 -3.6222E+03   1.1089E+05  0.000E+00  0.000E+00  0.000E+00  4.74592E+01  1.524E-01  2.000E+01  2.000E+04 -1.811E-01
   1   15    4     1     4    1.1089E+05 -3.5230E+03   1.1441E+05  0.000E+00  0.000E+00  0.000E+00  4.69849E+01  1.554E-01  2.000E+01  2.000E+04 -1.761E-01
   1   16    5     1     5    1.1441E+05 -3.8606E+03   1.1827E+05  0.000E+00  0.000E+00  0.000E+00  4.65107E+01  1.584E-01  2.000E+01  2.000E+04 -1.930E-01
   1   16    6     1     6    1.1827E+05 -3.0485E+03   1.2132E+05  0.000E+00  0.000E+00  0.000E+00  4.60362E+01  1.612E-01  2.000E+01  2.000E+04 -1.524E-01
   1   16    7     1     7    1.2132E+05 -3.1070E+03   1.2443E+05  0.000E+00  0.000E+00  0.000E+00  4.55614E+01  1.637E-01  2.000E+01  2.000E+04 -1.554E-01
   1   16    8     1     8    1.2443E+05 -3.1328E+03   1.2756E+05  0.000E+00  0.000E+00  0.000E+00  4.50866E+01  1.662E-01  2.000E+01  2.000E+04 -1.566E-01
   1   16    9     1     9    1.2756E+05 -3.1106E+03   1.3067E+05  0.000E+00  0.000E+00  0.000E+00  4.46118E+01  1.686E-01  2.000E+01  2.000E+04 -1.555E-01
   1   16   10     1    10    1.3067E+05 -3.0387E+03   1.3371E+05  0.000E+00  0.000E+00  0.000E+00  4.41369E+01  1.710E-01  2.000E+01  2.000E+04 -1.519E-01
   1   16   11     1    11    1.3371E+05 -2.9260E+03   1.3664E+05  0.000E+00  0.000E+00  0.000E+00  4.36620E+01  1.733E-01  2.000E+01  2.000E+04 -1.463E-01
   1   16   12     1    12    1.3664E+05 -3.5574E+03   1.4020E+05  0.000E+00  0.000E+00  0.000E+00  4.31872E+01  1.758E-01  2.000E+01  2.000E+04 -1.779E-01
   1   15   13     1    13    1.4020E+05 -3.1985E+03   1.4339E+05  0.000E+00  0.000E+00  0.000E+00  4.27125E+01  1.784E-01  2.000E+01  2.000E+04 -1.599E-01
   1   14   14     1    14    1.4339E+05 -3.2413E+03   1.4664E+05  0.000E+00  0.000E+00  0.000E+00  4.22376E+01  1.808E-01  2.000E+01  2.000E+04 -1.621E-01
   1   13   15     1    15    1.4664E+05 -3.6052E+03   1.5024E+05  0.000E+00  0.000E+00  0.000E+00  4.17629E+01  1.833E-01  2.000E+01  2.000E+04 -1.803E-01
   1   12   16     1    16    1.5024E+05 -5.0516E+03   1.5529E+05  0.000E+00  0.000E+00  0.000E+00  4.12888E+01  1.865E-01  2.000E+01  2.000E+04 -2.526E-01
   1   12   17     1    17    1.5529E+05 -3.1264E+03   1.5842E+05  0.000E+00  0.000E+00  0.000E+00  4.08145E+01  1.895E-01  2.000E+01  2.000E+04 -1.563E-01
   1   12   18     1    18    1.5842E+05 -2.9426E+03   1.6136E+05  0.000E+00  0.000E+00  0.000E+00  4.03394E+01  1.917E-01  2.000E+01  2.000E+04 -1.471E-01
   1   12   19     1    19    1.6136E+05 -4.0121E+03   1.6537E+05  0.000E+00  0.000E+00  0.000E+00  3.98646E+01  1.942E-01  2.000E+01  2.000E+04 -2.006E-01
   1   13   20     1    20    1.6537E+05 -1.8176E+03   1.6719E+05  0.000E+00  0.000E+00  0.000E+00  3.93894E+01  1.963E-01  2.000E+01  2.000E+04 -9.088E-02
   1   14   21     1    21    1.6719E+05  3.1510E+02   1.6688E+05  0.000E+00  0.000E+00  0.000E+00  3.89127E+01  1.968E-01  2.000E+01  2.000E+04  1.576E-02
   1   14   22     1    22    1.6688E+05  5.6183E+03   1.6126E+05  0.000E+00  0.000E+00  0.000E+00  3.84333E+01  1.947E-01  2.000E+01  2.000E+04  2.809E-01
   1    9   30     2     1    5.0000E+04 -2.5793E+03   5.2579E+04  0.000E+00  0.000E+00  0.000E+00  4.02426E+01  1.176E-01  2.000E+01  2.000E+04 -1.290E-01
   1    9   29     2     2    5.2579E+04 -2.9143E+03   5.5494E+04  0.000E+00  0.000E+00  0.000E+00  3.99964E+01  1.214E-01  2.000E+01  2.000E+04 -1.457E-01
   1    9   28     2     3    5.5494E+04 -3.3002E+03   5.8794E+04  0.000E+00  0.000E+00  0.000E+00  3.97505E+01  1.255E-01  2.000E+01  2.000E+04 -1.650E-01
   1    9   27     2     4    5.8794E+04 -5.9863E+03   6.4780E+04  0.000E+00  0.000E+00  0.000E+00  3.95066E+01  1.316E-01  2.000E+01  2.000E+04 -2.993E-01
   1   10   26     2     5    6.4780E+04 -3.5863E+03   6.8366E+04  0.000E+00  0.000E+00  0.000E+00  3.92626E+01  1.376E-01  2.000E+01  2.000E+04 -1.793E-01
   1   11   25     2     6    6.8366E+04 -2.5392E+03   7.0906E+04  0.000E+00  0.000E+00  0.000E+00  3.90163E+01  1.413E-01  2.000E+01  2.000E+04 -1.270E-01
   1   12   24     2     7    7.0906E+04 -1.7025E+03   7.2608E+04  0.000E+00  0.000E+00  0.000E+00  3.87689E+01  1.439E-01  2.000E+01  2.000E+04 -8.512E-02
   1   13   23     2     8    7.2608E+04 -8.8565E+02   7.3494E+04  0.000E+00  0.000E+00  0.000E+00  3.85205E+01  1.455E-01  2.000E+01  2.000E+04 -4.428E-02
   1   14   22     2     9    7.3494E+04  2.3436E+03   7.1150E+04  0.000E+00  0.000E+00  0.000E+00  3.82696E+01  1.446E-01  2.000E+01  2.000E+04  1.172E-01
   1   14   22     3     1    2.3241E+05 -7.9147E+03   2.4032E+05  0.000E+00  0.000E+00  0.000E+00  3.77567E+01  2.011E-01  2.000E+01  2.000E+04 -3.957E-01
   1   15   23     3     2    2.4032E+05  3.2207E+03   2.3710E+05  0.000E+00  0.000E+00  0.000E+00  3.68690E+01  2.023E-01  2.000E+01  2.000E+04  1.610E-01
   1   15   24     3     3    2.3710E+05  3.1224E+03   2.3398E+05  0.000E+00  0.000E+00  0.000E+00  3.59785E+01  2.007E-01  2.000E+01  2.000E+04  1.561E-01
   1   15   25     3     4    2.3398E+05  2.7739E+03   2.3121E+05  0.000E+00  0.000E+00  0.000E+00  3.50881E+01  1.992E-01  2.000E+01  2.000E+04  1.387E-01
   1   15   26     3     5    2.3121E+05  1.3084E+03   2.2990E+05  0.000E+00  0.000E+00  0.000E+00  3.41981E+01  1.981E-01  2.000E+01  2.000E+04  6.542E-02
   1   16   27     3     6    2.2990E+05  5.9008E+03   2.2400E+05  0.000E+00  0.000E+00  0.000E+00  3.33074E+01  1.963E-01  2.000E+01  2.000E+04  2.950E-01
   1   17   28     3     7    2.2400E+05  8.9341E+03   2.1506E+05  0.000E+00  0.000E+00  0.000E+00  3.24146E+01  1.924E-01  2.000E+01  2.000E+04  4.467E-01
   1   18   29     3     8    2.1506E+05  8.4708E+03   2.0659E+05  0.000E+00  0.000E+00  0.000E+00  3.15211E+01  1.878E-01  2.000E+01  2.000E+04  4.235E-01
   1   18   30     3     9    2.0659E+05  5.4086E+02   2.0605E+05  0.000E+00  0.000E+00  0.000E+00  3.06298E+01  1.854E-01  2.000E+01  2.000E+04  2.704E-02



1
              HEAD IN LAYER   1 AT END OF TIME STEP   1 IN STRESS PERIOD   11
  ---------------------------------------------------------------------------

          1      2      3      4      5      6      7      8      9     10
         11     12     13     14     15     16     17     18     19     20
         21     22     23     24     25     26     27     28     29     30
 .........................................................................
   1  ****** ****** ****** ****** ****** ****** ****** ****** ****** ******
      ****** ****** ****** ****** ****** ****** ****** ****** ****** ******
      ****** ****** ****** ****** ****** ****** ****** ****** ****** ******
   2  ****** ****** ****** ****** ****** ****** ****** ****** ****** ******
      ****** ****** ****** ****** ****** ****** ****** ****** ****** ******
      ****** ****** ****** ****** ****** ****** ****** ****** ****** ******
   3  ****** ****** ****** ****** ****** ****** ****** ****** ****** ******
      ****** ****** ****** ****** ****** ****** ****** ****** ****** ******
      ****** ****** ****** ****** ****** ****** ****** ****** ****** ******
   4  ****** ****** ****** ****** ****** ****** ****** ****** ****** ******
      ****** ****** ****** ****** ****** ****** ****** ****** ****** ******
      ****** ****** ****** ****** ****** ****** ****** ****** ****** ******
   5  ****** ****** ****** ****** ****** ****** ****** ****** ****** ******
      ****** ****** ****** ****** ****** ****** ****** ****** ****** ******
      ****** ****** ****** ****** ****** ****** ****** ****** ****** ******
   6  ****** ****** ****** ****** ****** ****** ****** ****** ****** ******
      ****** ****** ****** ****** ****** ****** ****** ****** ****** ******
      ****** ****** ****** ****** ****** ****** ****** ****** ****** ******
   7  ****** ****** ****** ****** ****** ****** ****** ****** ****** ******
      ****** ****** ****** ****** ****** ****** ****** ****** ****** ******
      ****** ****** ****** ****** ****** ****** ****** ****** ****** ******
   8  ****** ****** ****** ****** ****** ****** ****** ****** ****** ******
      ****** ****** ****** ****** ****** ****** ****** ****** ****** ******
      ****** ****** ****** ****** ****** ****** ****** ****** ****** ******
   9  ****** ****** ****** ****** ****** ****** ****** ****** ****** ******
      ****** ****** ****** ****** ****** ****** ****** ****** ****** ******
      ****** ****** ****** ****** ****** ****** ****** ****** ****** ******
  10  ****** ****** ****** ****** ****** ****** ****** ****** ****** ******
      ****** ****** ****** ****** ****** ****** ****** ****** ****** ******
      ****** ****** ****** ****** ****** ****** ****** ****** ****** ******
  11  ****** ****** ****** ****** ****** ****** ****** ****** ****** ******
      ****** ****** ****** ****** ****** ****** ****** ****** ****** ******
      ****** ****** ****** ****** ****** ****** ****** ****** ****** ******
  12  ****** ****** ****** ****** ****** ****** ****** ****** ****** ******
      ****** ****** ****** ****** ****** ****** ****** ****** ****** ******
      ****** ****** ****** ****** ****** ****** ****** ****** ****** ******
  13  ****** ****** ****** ****** ****** ****** ****** ****** ****** ******
      ****** ****** ****** ****** ****** ****** ****** ****** ****** ******
      ****** ****** ****** ****** ****** ****** ****** ****** ****** ******
  14  ****** ****** ****** ****** ****** ****** ****** ****** ****** ******
      ****** ****** ****** ****** ****** ****** ****** ****** ****** ******
      ****** ****** ****** ****** ****** ****** ****** ****** ****** ******
  15  ****** ****** ****** ****** ****** ****** ****** ****** ****** ******
      ****** ****** ****** ****** ****** ****** ****** ****** ****** ******
      ****** ****** ****** ****** ****** ****** ****** ****** ****** ******
  16  ****** ****** ****** ****** ****** ****** ****** ****** ****** ******
      ****** ****** ****** ****** ****** ****** ****** ****** ****** ******
      ****** ****** ****** ****** ****** ****** ****** ****** ****** ******
  17  ****** ****** ****** ****** ****** ****** ****** ****** ****** ******
      ****** ****** ****** ****** ****** ****** ****** ****** ****** ******
      ****** ****** ****** ****** ****** ****** ****** ****** ****** ******
  18  ****** ****** ****** ****** ****** ****** ****** ****** ****** ******
      ****** ****** ****** ****** ****** ****** ****** ****** ****** ******
      ****** ****** ****** ****** ****** ****** ****** ****** ****** ******
  19  ****** ****** ****** ****** ****** ****** ****** ****** ****** ******
      ****** ****** ****** ****** ****** ****** ****** ****** ****** ******
      ****** ****** ****** ****** ****** ****** ****** ****** ****** ******
  20  ****** ****** ****** ****** ****** ****** ****** ****** ****** ******
      ****** ****** ****** ****** ****** ****** ****** ****** ****** ******
      ****** ****** ****** ****** ****** ****** ****** ****** ****** ******
  21  ****** ****** ****** ****** ****** ****** ****** ****** ****** ******
      ****** ****** ****** ****** ****** ****** ****** ****** ****** ******
      ****** ****** ****** ****** ****** ****** ****** ****** ****** ******
  22  ****** ****** ****** ****** ****** ****** ****** ****** ****** ******
      ****** ****** ****** ****** ****** ****** ****** ****** ****** ******
      ****** ****** ****** ****** ****** ****** ****** ****** ****** ******
  23  ****** ****** ****** ****** ****** ****** ****** ****** ****** ******
      ****** ****** ****** ****** ****** ****** ****** ****** ****** ******
      ****** ****** ****** ****** ****** ****** ****** ****** ****** ******
  24  ****** ****** ****** ****** ****** ****** ****** ****** ****** ******
      ****** ****** ****** ****** ****** ****** ****** ****** ****** ******
      ****** ****** ****** ****** ****** ****** ****** ****** ****** ******
  25  ****** ****** ****** ****** ****** ****** ****** ****** ****** ******
      ****** ****** ****** ****** ****** ****** ****** ****** ****** ******
      ****** ****** ****** ****** ****** ****** ****** ****** ****** ******

 HEAD WILL BE SAVED ON UNIT   51 AT END OF TIME STEP    1, STRESS PERIOD   11
1
  VOLUMETRIC BUDGET FOR ENTIRE MODEL AT END OF TIME STEP    1, STRESS PERIOD  11
  ------------------------------------------------------------------------------

     CUMULATIVE VOLUMES      L**3       RATES FOR THIS TIME STEP      L**3/T
     ------------------                 ------------------------

           IN:                                      IN:
           ---                                      ---
             STORAGE =    28307569.4508               STORAGE =       11762.6504
       CONSTANT HEAD =   157142859.0407         CONSTANT HEAD =      163183.5022
               WELLS =           0.0000                 WELLS =           0.0000
            RECHARGE =    23901600.0000              RECHARGE =           0.0000
      STREAM LEAKAGE =    47833744.8663        STREAM LEAKAGE =       42548.8914

            TOTAL IN =   257185773.3579              TOTAL IN =      217495.0440

          OUT:                                     OUT:
          ----                                     ----
             STORAGE =     3270430.2095               STORAGE =           0.0000
       CONSTANT HEAD =           0.0000         CONSTANT HEAD =           0.0000
               WELLS =   137786626.3612                 WELLS =      118895.2091
            RECHARGE =           0.0000              RECHARGE =           0.0000
      STREAM LEAKAGE =   116128717.7789        STREAM LEAKAGE =       98599.8370

           TOTAL OUT =   257185774.3496             TOTAL OUT =      217495.0461

            IN - OUT =          -0.9918              IN - OUT =      -2.0935E-03

 PERCENT DISCREPANCY =          -0.00     PERCENT DISCREPANCY =          -0.00






         TIME SUMMARY AT END OF TIME STEP    1 IN STRESS PERIOD   11
                    SECONDS     MINUTES      HOURS       DAYS        YEARS
                    -----------------------------------------------------------
   TIME STEP LENGTH 7.86240E+06 1.31040E+05  2184.0      91.000     0.24914    
 STRESS PERIOD TIME 7.86240E+06 1.31040E+05  2184.0      91.000     0.24914    
         TOTAL TIME 8.67456E+07 1.44576E+06  24096.      1004.0      2.7488    
1
1
                            STRESS PERIOD NO.   12, LENGTH =   91.00000    
                            -----------------------------------------------

                              NUMBER OF TIME STEPS =     1

                               MULTIPLIER FOR DELT =     1.500

                            INITIAL TIME STEP SIZE =   91.00000    

 WELL NO.  LAYER   ROW   COL   STRESS RATE         
 --------------------------------------------------
      1      1     18     24     -0.1890E+05
      2      1     19     27     -0.5000E+05
      3      1     21     24     -0.5000E+05

      3 WELLS

                 RECHARGE =  1.000000E-03

 REUSING STREAM SEGMENT DATA FROM LAST STRESS PERIOD
 
 SOLVING FOR HEAD 


     6 CALLS TO PCG ROUTINE FOR TIME STEP   1 IN STRESS PERIOD   12
    23 TOTAL ITERATIONS

 OUTPUT CONTROL FOR STRESS PERIOD   12   TIME STEP    1
    SAVE BUDGET
    SAVE HEAD FOR ALL LAYERS
    PRINT HEAD FOR ALL LAYERS
 UBDSV2 SAVING "STREAMFLOW OUT  " ON UNIT  50 AT TIME STEP  1, STRESS PERIOD  12



 STREAM LISTING     PERIOD     12   STEP        1

 LAYER ROW COL. STREAM  RCH.  FLOW INTO     FLOW TO   FLOW OUT OF   OVRLND.     DIRECT     STREAM       STREAM     STREAM     STREAM   STREAMBED  STREAMBED
                SEG.NO.  NO.  STRM. RCH.    AQUIFER    STRM. RCH.    RUNOFF     PRECIP       ET          HEAD       DEPTH      WIDTH   CONDCTNC.   GRADIENT

   1   13    1     1     1    1.0000E+05 -2.8645E+03   1.0286E+05  0.000E+00  0.000E+00  0.000E+00  4.84073E+01  1.459E-01  2.000E+01  2.000E+04 -1.432E-01
   1   13    2     1     2    1.0286E+05 -4.7961E+03   1.0766E+05  0.000E+00  0.000E+00  0.000E+00  4.79333E+01  1.492E-01  2.000E+01  2.000E+04 -2.398E-01
   1   14    3     1     3    1.0766E+05 -3.8614E+03   1.1152E+05  0.000E+00  0.000E+00  0.000E+00  4.74596E+01  1.528E-01  2.000E+01  2.000E+04 -1.931E-01
   1   15    4     1     4    1.1152E+05 -3.7643E+03   1.1529E+05  0.000E+00  0.000E+00  0.000E+00  4.69855E+01  1.560E-01  2.000E+01  2.000E+04 -1.882E-01
   1   16    5     1     5    1.1529E+05 -4.0835E+03   1.1937E+05  0.000E+00  0.000E+00  0.000E+00  4.65115E+01  1.592E-01  2.000E+01  2.000E+04 -2.042E-01
   1   16    6     1     6    1.1937E+05 -3.2260E+03   1.2260E+05  0.000E+00  0.000E+00  0.000E+00  4.60372E+01  1.622E-01  2.000E+01  2.000E+04 -1.613E-01
   1   16    7     1     7    1.2260E+05 -3.2864E+03   1.2588E+05  0.000E+00  0.000E+00  0.000E+00  4.55625E+01  1.648E-01  2.000E+01  2.000E+04 -1.643E-01
   1   16    8     1     8    1.2588E+05 -3.3133E+03   1.2920E+05  0.000E+00  0.000E+00  0.000E+00  4.50878E+01  1.674E-01  2.000E+01  2.000E+04 -1.657E-01
   1   16    9     1     9    1.2920E+05 -3.2912E+03   1.3249E+05  0.000E+00  0.000E+00  0.000E+00  4.46132E+01  1.700E-01  2.000E+01  2.000E+04 -1.646E-01
   1   16   10     1    10    1.3249E+05 -3.2182E+03   1.3570E+05  0.000E+00  0.000E+00  0.000E+00  4.41384E+01  1.725E-01  2.000E+01  2.000E+04 -1.609E-01
   1   16   11     1    11    1.3570E+05 -3.1038E+03   1.3881E+05  0.000E+00  0.000E+00  0.000E+00  4.36636E+01  1.749E-01  2.000E+01  2.000E+04 -1.552E-01
   1   16   12     1    12    1.3881E+05 -3.7823E+03   1.4259E+05  0.000E+00  0.000E+00  0.000E+00  4.31889E+01  1.775E-01  2.000E+01  2.000E+04 -1.891E-01
   1   15   13     1    13    1.4259E+05 -3.4437E+03   1.4603E+05  0.000E+00  0.000E+00  0.000E+00  4.27144E+01  1.803E-01  2.000E+01  2.000E+04 -1.722E-01
   1   14   14     1    14    1.4603E+05 -3.4890E+03   1.4952E+05  0.000E+00  0.000E+00  0.000E+00  4.22397E+01  1.828E-01  2.000E+01  2.000E+04 -1.744E-01
   1   13   15     1    15    1.4952E+05 -3.8470E+03   1.5337E+05  0.000E+00  0.000E+00  0.000E+00  4.17651E+01  1.856E-01  2.000E+01  2.000E+04 -1.924E-01
   1   12   16     1    16    1.5337E+05 -5.2718E+03   1.5864E+05  0.000E+00  0.000E+00  0.000E+00  4.12912E+01  1.889E-01  2.000E+01  2.000E+04 -2.636E-01
   1   12   17     1    17    1.5864E+05 -3.3009E+03   1.6194E+05  0.000E+00  0.000E+00  0.000E+00  4.08170E+01  1.920E-01  2.000E+01  2.000E+04 -1.650E-01
   1   12   18     1    18    1.6194E+05 -3.1166E+03   1.6506E+05  0.000E+00  0.000E+00  0.000E+00  4.03420E+01  1.943E-01  2.000E+01  2.000E+04 -1.558E-01
   1   12   19     1    19    1.6506E+05 -4.2241E+03   1.6928E+05  0.000E+00  0.000E+00  0.000E+00  3.98673E+01  1.969E-01  2.000E+01  2.000E+04 -2.112E-01
   1   13   20     1    20    1.6928E+05 -2.0380E+03   1.7132E+05  0.000E+00  0.000E+00  0.000E+00  3.93923E+01  1.991E-01  2.000E+01  2.000E+04 -1.019E-01
   1   14   21     1    21    1.7132E+05  1.1572E+02   1.7121E+05  0.000E+00  0.000E+00  0.000E+00  3.89157E+01  1.998E-01  2.000E+01  2.000E+04  5.786E-03
   1   14   22     1    22    1.7121E+05  5.5740E+03   1.6563E+05  0.000E+00  0.000E+00  0.000E+00  3.84364E+01  1.978E-01  2.000E+01  2.000E+04  2.787E-01
   1    9   30     2     1    5.0000E+04 -2.7588E+03   5.2759E+04  0.000E+00  0.000E+00  0.000E+00  4.02428E+01  1.178E-01  2.000E+01  2.000E+04 -1.379E-01
   1    9   29     2     2    5.2759E+04 -3.0919E+03   5.5851E+04  0.000E+00  0.000E+00  0.000E+00  3.99968E+01  1.218E-01  2.000E+01  2.000E+04 -1.546E-01
   1    9   28     2     3    5.5851E+04 -3.4753E+03   5.9326E+04  0.000E+00  0.000E+00  0.000E+00  3.97511E+01  1.261E-01  2.000E+01  2.000E+04 -1.738E-01
   1    9   27     2     4    5.9326E+04 -6.2070E+03   6.5533E+04  0.000E+00  0.000E+00  0.000E+00  3.95074E+01  1.324E-01  2.000E+01  2.000E+04 -3.103E-01
   1   10   26     2     5    6.5533E+04 -3.8238E+03   6.9357E+04  0.000E+00  0.000E+00  0.000E+00  3.92637E+01  1.387E-01  2.000E+01  2.000E+04 -1.912E-01
   1   11   25     2     6    6.9357E+04 -2.7704E+03   7.2127E+04  0.000E+00  0.000E+00  0.000E+00  3.90177E+01  1.427E-01  2.000E+01  2.000E+04 -1.385E-01
   1   12   24     2     7    7.2127E+04 -1.9123E+03   7.4040E+04  0.000E+00  0.000E+00  0.000E+00  3.87705E+01  1.455E-01  2.000E+01  2.000E+04 -9.562E-02
   1   13   23     2     8    7.4040E+04 -1.0561E+03   7.5096E+04  0.000E+00  0.000E+00  0.000E+00  3.85223E+01  1.473E-01  2.000E+01  2.000E+04 -5.281E-02
   1   14   22     2     9    7.5096E+04  2.2767E+03   7.2819E+04  0.000E+00  0.000E+00  0.000E+00  3.82715E+01  1.465E-01  2.000E+01  2.000E+04  1.138E-01
   1   14   22     3     1    2.3845E+05 -7.9590E+03   2.4641E+05  0.000E+00  0.000E+00  0.000E+00  3.77598E+01  2.042E-01  2.000E+01  2.000E+04 -3.980E-01
   1   15   23     3     2    2.4641E+05  3.0332E+03   2.4338E+05  0.000E+00  0.000E+00  0.000E+00  3.68721E+01  2.054E-01  2.000E+01  2.000E+04  1.517E-01
   1   15   24     3     3    2.4338E+05  2.9765E+03   2.4040E+05  0.000E+00  0.000E+00  0.000E+00  3.59817E+01  2.039E-01  2.000E+01  2.000E+04  1.488E-01
   1   15   25     3     4    2.4040E+05  2.6235E+03   2.3778E+05  0.000E+00  0.000E+00  0.000E+00  3.50914E+01  2.025E-01  2.000E+01  2.000E+04  1.312E-01
   1   15   26     3     5    2.3778E+05  1.1126E+03   2.3666E+05  0.000E+00  0.000E+00  0.000E+00  3.42016E+01  2.016E-01  2.000E+01  2.000E+04  5.563E-02
   1   16   27     3     6    2.3666E+05  5.6647E+03   2.3100E+05  0.000E+00  0.000E+00  0.000E+00  3.33109E+01  1.998E-01  2.000E+01  2.000E+04  2.832E-01
   1   17   28     3     7    2.3100E+05  8.6953E+03   2.2230E+05  0.000E+00  0.000E+00  0.000E+00  3.24183E+01  1.961E-01  2.000E+01  2.000E+04  4.348E-01
   1   18   29     3     8    2.2230E+05  8.2521E+03   2.1405E+05  0.000E+00  0.000E+00  0.000E+00  3.15250E+01  1.917E-01  2.000E+01  2.000E+04  4.126E-01
   1   18   30     3     9    2.1405E+05  3.6913E+02   2.1368E+05  0.000E+00  0.000E+00  0.000E+00  3.06338E+01  1.894E-01  2.000E+01  2.000E+04  1.846E-02



1
              HEAD IN LAYER   1 AT END OF TIME STEP   1 IN STRESS PERIOD   12
  ---------------------------------------------------------------------------

          1      2      3      4      5      6      7      8      9     10
         11     12     13     14     15     16     17     18     19     20
         21     22     23     24     25     26     27     28     29     30
 .........................................................................
   1  ****** ****** ****** ****** ****** ****** ****** ****** ****** ******
      ****** ****** ****** ****** ****** ****** ****** ****** ****** ******
      ****** ****** ****** ****** ****** ****** ****** ****** ****** ******
   2  ****** ****** ****** ****** ****** ****** ****** ****** ****** ******
      ****** ****** ****** ****** ****** ****** ****** ****** ****** ******
      ****** ****** ****** ****** ****** ****** ****** ****** ****** ******
   3  ****** ****** ****** ****** ****** ****** ****** ****** ****** ******
      ****** ****** ****** ****** ****** ****** ****** ****** ****** ******
      ****** ****** ****** ****** ****** ****** ****** ****** ****** ******
   4  ****** ****** ****** ****** ****** ****** ****** ****** ****** ******
      ****** ****** ****** ****** ****** ****** ****** ****** ****** ******
      ****** ****** ****** ****** ****** ****** ****** ****** ****** ******
   5  ****** ****** ****** ****** ****** ****** ****** ****** ****** ******
      ****** ****** ****** ****** ****** ****** ****** ****** ****** ******
      ****** ****** ****** ****** ****** ****** ****** ****** ****** ******
   6  ****** ****** ****** ****** ****** ****** ****** ****** ****** ******
      ****** ****** ****** ****** ****** ****** ****** ****** ****** ******
      ****** ****** ****** ****** ****** ****** ****** ****** ****** ******
   7  ****** ****** ****** ****** ****** ****** ****** ****** ****** ******
      ****** ****** ****** ****** ****** ****** ****** ****** ****** ******
      ****** ****** ****** ****** ****** ****** ****** ****** ****** ******
   8  ****** ****** ****** ****** ****** ****** ****** ****** ****** ******
      ****** ****** ****** ****** ****** ****** ****** ****** ****** ******
      ****** ****** ****** ****** ****** ****** ****** ****** ****** ******
   9  ****** ****** ****** ****** ****** ****** ****** ****** ****** ******
      ****** ****** ****** ****** ****** ****** ****** ****** ****** ******
      ****** ****** ****** ****** ****** ****** ****** ****** ****** ******
  10  ****** ****** ****** ****** ****** ****** ****** ****** ****** ******
      ****** ****** ****** ****** ****** ****** ****** ****** ****** ******
      ****** ****** ****** ****** ****** ****** ****** ****** ****** ******
  11  ****** ****** ****** ****** ****** ****** ****** ****** ****** ******
      ****** ****** ****** ****** ****** ****** ****** ****** ****** ******
      ****** ****** ****** ****** ****** ****** ****** ****** ****** ******
  12  ****** ****** ****** ****** ****** ****** ****** ****** ****** ******
      ****** ****** ****** ****** ****** ****** ****** ****** ****** ******
      ****** ****** ****** ****** ****** ****** ****** ****** ****** ******
  13  ****** ****** ****** ****** ****** ****** ****** ****** ****** ******
      ****** ****** ****** ****** ****** ****** ****** ****** ****** ******
      ****** ****** ****** ****** ****** ****** ****** ****** ****** ******
  14  ****** ****** ****** ****** ****** ****** ****** ****** ****** ******
      ****** ****** ****** ****** ****** ****** ****** ****** ****** ******
      ****** ****** ****** ****** ****** ****** ****** ****** ****** ******
  15  ****** ****** ****** ****** ****** ****** ****** ****** ****** ******
      ****** ****** ****** ****** ****** ****** ****** ****** ****** ******
      ****** ****** ****** ****** ****** ****** ****** ****** ****** ******
  16  ****** ****** ****** ****** ****** ****** ****** ****** ****** ******
      ****** ****** ****** ****** ****** ****** ****** ****** ****** ******
      ****** ****** ****** ****** ****** ****** ****** ****** ****** ******
  17  ****** ****** ****** ****** ****** ****** ****** ****** ****** ******
      ****** ****** ****** ****** ****** ****** ****** ****** ****** ******
      ****** ****** ****** ****** ****** ****** ****** ****** ****** ******
  18  ****** ****** ****** ****** ****** ****** ****** ****** ****** ******
      ****** ****** ****** ****** ****** ****** ****** ****** ****** ******
      ****** ****** ****** ****** ****** ****** ****** ****** ****** ******
  19  ****** ****** ****** ****** ****** ****** ****** ****** ****** ******
      ****** ****** ****** ****** ****** ****** ****** ****** ****** ******
      ****** ****** ****** ****** ****** ****** ****** ****** ****** ******
  20  ****** ****** ****** ****** ****** ****** ****** ****** ****** ******
      ****** ****** ****** ****** ****** ****** ****** ****** ****** ******
      ****** ****** ****** ****** ****** ****** ****** ****** ****** ******
  21  ****** ****** ****** ****** ****** ****** ****** ****** ****** ******
      ****** ****** ****** ****** ****** ****** ****** ****** ****** ******
      ****** ****** ****** ****** ****** ****** ****** ****** ****** ******
  22  ****** ****** ****** ****** ****** ****** ****** ****** ****** ******
      ****** ****** ****** ****** ****** ****** ****** ****** ****** ******
      ****** ****** ****** ****** ****** ****** ****** ****** ****** ******
  23  ****** ****** ****** ****** ****** ****** ****** ****** ****** ******
      ****** ****** ****** ****** ****** ****** ****** ****** ****** ******
      ****** ****** ****** ****** ****** ****** ****** ****** ****** ******
  24  ****** ****** ****** ****** ****** ****** ****** ****** ****** ******
      ****** ****** ****** ****** ****** ****** ****** ****** ****** ******
      ****** ****** ****** ****** ****** ****** ****** ****** ****** ******
  25  ****** ****** ****** ****** ****** ****** ****** ****** ****** ******
      ****** ****** ****** ****** ****** ****** ****** ****** ****** ******
      ****** ****** ****** ****** ****** ****** ****** ****** ****** ******

 HEAD WILL BE SAVED ON UNIT   51 AT END OF TIME STEP    1, STRESS PERIOD   12
1
  VOLUMETRIC BUDGET FOR ENTIRE MODEL AT END OF TIME STEP    1, STRESS PERIOD  12
  ------------------------------------------------------------------------------

     CUMULATIVE VOLUMES      L**3       RATES FOR THIS TIME STEP      L**3/T
     ------------------                 ------------------------

           IN:                                      IN:
           ---                                      ---
             STORAGE =    28307569.4508               STORAGE =           0.0000
       CONSTANT HEAD =   171588151.3211         CONSTANT HEAD =      158739.4756
               WELLS =           0.0000                 WELLS =           0.0000
            RECHARGE =    26413200.0000              RECHARGE =       27600.0000
      STREAM LEAKAGE =    51536847.5792        STREAM LEAKAGE =       40693.4364

            TOTAL IN =   277845768.3511              TOTAL IN =      227032.9120

          OUT:                                     OUT:
          ----                                     ----
             STORAGE =     3612655.8968               STORAGE =        3760.7218
       CONSTANT HEAD =           0.0000         CONSTANT HEAD =           0.0000
               WELLS =   148606090.3917                 WELLS =      118895.2091
            RECHARGE =           0.0000              RECHARGE =           0.0000
      STREAM LEAKAGE =   125627022.9788        STREAM LEAKAGE =      104376.9802

           TOTAL OUT =   277845769.2673             TOTAL OUT =      227032.9112

            IN - OUT =          -0.9162              IN - OUT =       8.3078E-04

 PERCENT DISCREPANCY =          -0.00     PERCENT DISCREPANCY =           0.00






         TIME SUMMARY AT END OF TIME STEP    1 IN STRESS PERIOD   12
                    SECONDS     MINUTES      HOURS       DAYS        YEARS
                    -----------------------------------------------------------
   TIME STEP LENGTH 7.86240E+06 1.31040E+05  2184.0      91.000     0.24914    
 STRESS PERIOD TIME 7.86240E+06 1.31040E+05  2184.0      91.000     0.24914    
         TOTAL TIME 9.46080E+07 1.57680E+06  26280.      1095.0      2.9979    
1

 Run end date and time (yyyy/mm/dd hh:mm:ss): 2018/10/05 16:10:45
 Elapsed run time:  0.058 Seconds

