                                  MODFLOW-2005     
      U.S. GEOLOGICAL SURVEY MODULAR FINITE-DIFFERENCE GROUND-WATER FLOW MODEL
                            VERSION 1.11.00 8/8/2013

 LIST FILE: supply2.lst
                         UNIT   10

 OPENING ..\data\supply.dis
 FILE TYPE:DIS   UNIT   11   STATUS:OLD    
 FORMAT:FORMATTED              ACCESS:SEQUENTIAL          

 OPENING ..\data\supply.ba6
 FILE TYPE:BAS6   UNIT   12   STATUS:OLD    
 FORMAT:FORMATTED              ACCESS:SEQUENTIAL          

 OPENING ..\data\supply_het.bc6
 FILE TYPE:BCF6   UNIT   13   STATUS:OLD    
 FORMAT:FORMATTED              ACCESS:SEQUENTIAL          

 OPENING ..\data\supply.rch
 FILE TYPE:RCH   UNIT   15   STATUS:OLD    
 FORMAT:FORMATTED              ACCESS:SEQUENTIAL          

 OPENING ..\data\supply2.sfr
 FILE TYPE:SFR   UNIT   16   STATUS:OLD    
 FORMAT:FORMATTED              ACCESS:SEQUENTIAL          

 OPENING ..\data\supply.oc
 FILE TYPE:OC   UNIT   17   STATUS:OLD    
 FORMAT:FORMATTED              ACCESS:SEQUENTIAL          

 OPENING ..\data\supply.pcg
 FILE TYPE:PCG   UNIT   18   STATUS:OLD    
 FORMAT:FORMATTED              ACCESS:SEQUENTIAL          

 OPENING supply2.wel
 FILE TYPE:WEL   UNIT   19   STATUS:OLD    
 FORMAT:FORMATTED              ACCESS:SEQUENTIAL          

 OPENING supply2sf.cbc
 FILE TYPE:DATA(BINARY)   UNIT   50   STATUS:UNKNOWN
 FORMAT:BINARY                 ACCESS:SEQUENTIAL          

 OPENING supply2hd.bhd
 FILE TYPE:DATA(BINARY)   UNIT   51   STATUS:UNKNOWN
 FORMAT:BINARY                 ACCESS:SEQUENTIAL          

 BAS -- BASIC PACKAGE, VERSION 7, 5/2/2005 INPUT READ FROM UNIT   12
 
 MODFLOW was compiled using uniform precision
 Precision of REAL and DOUBLE PRECISION variables:          15

 DISCRETIZATION INPUT DATA READ FROM UNIT   11
    1 LAYERS        25 ROWS        30 COLUMNS
   12 STRESS PERIOD(S) IN SIMULATION
 MODEL TIME UNIT IS DAYS
 MODEL LENGTH UNIT IS UNDEFINED
  Confining bed flag for each layer:
   0

                     DELR =   200.000    

                     DELC =   200.000    

 TOP ELEVATION OF LAYER 1 =  100.0000    

   MODEL LAYER BOTTOM EL. =   0.00000     FOR LAYER   1


 STRESS PERIOD     LENGTH       TIME STEPS     MULTIPLIER FOR DELT    SS FLAG
 ----------------------------------------------------------------------------
        1         92.00000          1                    1.500         TR
        2         91.00000          1                    1.500         TR
        3         91.00000          1                    1.500         TR
        4         91.00000          1                    1.500         TR
        5         92.00000          1                    1.500         TR
        6         91.00000          1                    1.500         TR
        7         91.00000          1                    1.500         TR
        8         91.00000          1                    1.500         TR
        9         92.00000          1                    1.500         TR
       10         91.00000          1                    1.500         TR
       11         91.00000          1                    1.500         TR
       12         91.00000          1                    1.500         TR

 TRANSIENT SIMULATION



 
 #MODOFC transient water supply sample problem                                   
 #                                                                               
 THE FREE FORMAT OPTION HAS BEEN SELECTED



                     BOUNDARY ARRAY FOR LAYER   1
 READING ON UNIT   12 WITH FORMAT: (20I4)              

 AQUIFER HEAD WILL BE SET TO   0.0000     AT ALL NO-FLOW NODES (IBOUND=0).



                       INITIAL HEAD FOR LAYER   1
 READING ON UNIT   12 WITH FORMAT: (10F13.0)           

 OUTPUT CONTROL IS SPECIFIED ONLY AT TIME STEPS FOR WHICH OUTPUT IS DESIRED
 COMPACT CELL-BY-CELL BUDGET FILES WILL BE WRITTEN
 HEAD PRINT FORMAT CODE IS  18    DRAWDOWN PRINT FORMAT CODE IS   0
 HEADS WILL BE SAVED ON UNIT   51    DRAWDOWNS WILL BE SAVED ON UNIT    0

 BCF -- BLOCK-CENTERED FLOW PACKAGE, VERSION 7, 5/2/2005
         INPUT READ FROM UNIT 13
 TRANSIENT SIMULATION
 HEAD AT CELLS THAT CONVERT TO DRY=   0.0000    
 WETTING CAPABILITY IS NOT ACTIVE
      LAYER  LAYER-TYPE CODE     INTERBLOCK T
      --------------------------------------------
         1            0          0 -- HARMONIC    

 COLUMN TO ROW ANISOTROPY =  1.000000    

     PRIMARY STORAGE COEF =  5.000000E-02 FOR LAYER   1



               TRANSMIS. ALONG ROWS FOR LAYER   1
 READING ON UNIT   13 WITH FORMAT: (FREE)              

 WEL -- WELL PACKAGE, VERSION 7, 5/2/2005 INPUT READ FROM UNIT   19
 # Well package input file written by MMProc
 No named parameters
 MAXIMUM OF      4 ACTIVE WELLS AT ONE TIME


     0 Well parameters

 RCH -- RECHARGE PACKAGE, VERSION 7, 5/2/2005 INPUT READ FROM UNIT   15
 No named parameters
 OPTION 1 -- RECHARGE TO TOP LAYER


     0 Recharge parameters

 SFR7 -- STREAMFLOW ROUTING PACKAGE, VERSION 1.0.7, 2013-01-15
         INPUT READ FROM UNIT  16
 #  Supply2 test problem for GWM-VI
 #  The eighth entry in the first data line is ISTCB2 -
 #    Setting this to a negative number indicates that
 #    streamflows out of the reach will be saved to a
 #    binary file.  The absolute value of ISTCB2 is the
 #    unit to which unformatted flows will be written.
 #
 No named parameters
 Segment information will not be 
 read by reach
 No named parameters
 No specifed inflow files


 NUMBER OF STREAM REACHES IS   40

 NUMBER OF STREAM SEGMENTS IS    3

 NUMBER OF STREAM PARAMETERS IS    0

 NUMBER OF STREAM SEGMENTS DEFINED USING PARAMETERS IS              0

 MAXIMUM ERROR FOR STREAM LEAKAGE RATES IS  1.00E-04

 CONSTANT FOR MANNINGS EQUATION IS  1.2839E+05





   STREAM NETWORK DESCRIPTION: 

   LAYER    ROW    COL   SEGMENT   REACH     LENGTH
                          NUMBER   NUMBER    IN CELL        
   --------------------------------------------------
      1     13      1       1        1    2.0000E+02
      1     13      2       1        2    2.0000E+02
      1     14      3       1        3    2.0000E+02
      1     15      4       1        4    2.0000E+02
      1     16      5       1        5    2.0000E+02
      1     16      6       1        6    2.0000E+02
      1     16      7       1        7    2.0000E+02
      1     16      8       1        8    2.0000E+02
      1     16      9       1        9    2.0000E+02
      1     16     10       1       10    2.0000E+02
      1     16     11       1       11    2.0000E+02
      1     16     12       1       12    2.0000E+02
      1     15     13       1       13    2.0000E+02
      1     14     14       1       14    2.0000E+02
      1     13     15       1       15    2.0000E+02
      1     12     16       1       16    2.0000E+02
      1     12     17       1       17    2.0000E+02
      1     12     18       1       18    2.0000E+02
      1     12     19       1       19    2.0000E+02
      1     13     20       1       20    2.0000E+02
      1     14     21       1       21    2.0000E+02
      1     14     22       1       22    2.0000E+02
      1      9     30       2        1    2.0000E+02
      1      9     29       2        2    2.0000E+02
      1      9     28       2        3    2.0000E+02
      1      9     27       2        4    2.0000E+02
      1     10     26       2        5    2.0000E+02
      1     11     25       2        6    2.0000E+02
      1     12     24       2        7    2.0000E+02
      1     13     23       2        8    2.0000E+02
      1     14     22       2        9    2.0000E+02
      1     14     22       3        1    2.0000E+02
      1     15     23       3        2    2.0000E+02
      1     15     24       3        3    2.0000E+02
      1     15     25       3        4    2.0000E+02
      1     15     26       3        5    2.0000E+02
      1     16     27       3        6    2.0000E+02
      1     17     28       3        7    2.0000E+02
      1     18     29       3        8    2.0000E+02
      1     18     30       3        9    2.0000E+02




 PCG -- CONJUGATE-GRADIENT SOLUTION PACKAGE, VERSION 7, 5/2/2005
 MAXIMUM OF    500 CALLS OF SOLUTION ROUTINE
 MAXIMUM OF      5 INTERNAL ITERATIONS PER CALL TO SOLUTION ROUTINE
 MATRIX PRECONDITIONING TYPE :    1



                                    SOLUTION BY THE CONJUGATE-GRADIENT METHOD
                                   -------------------------------------------
                    MAXIMUM NUMBER OF CALLS TO PCG ROUTINE =      500
                        MAXIMUM ITERATIONS PER CALL TO PCG =        5
                               MATRIX PRECONDITIONING TYPE =        1
        RELAXATION FACTOR (ONLY USED WITH PRECOND. TYPE 1) =    0.10000E+01
 PARAMETER OF POLYNOMIAL PRECOND. = 2 (2) OR IS CALCULATED :        0
                         HEAD CHANGE CRITERION FOR CLOSURE =    0.10000E-05
                     RESIDUAL CHANGE CRITERION FOR CLOSURE =    0.10000E+01
            PCG HEAD AND RESIDUAL CHANGE PRINTOUT INTERVAL =        1
     PRINTING FROM SOLVER IS LIMITED(1) OR SUPPRESSED (>1) =        1
                            STEADY-STATE DAMPING PARAMETER =    0.10000E+01
                               TRANSIENT DAMPING PARAMETER =    0.10000E+01
1
                            STRESS PERIOD NO.    1, LENGTH =   92.00000    
                            -----------------------------------------------

                              NUMBER OF TIME STEPS =     1

                               MULTIPLIER FOR DELT =     1.500

                            INITIAL TIME STEP SIZE =   92.00000    

 WELL NO.  LAYER   ROW   COL   STRESS RATE         
 --------------------------------------------------
      1      1     22     27      -6314.    
      2      1     16     14     -0.1197E+05
      3      1     11      6      -1537.    
      4      1     17     21     -0.1363E+05

      4 WELLS

                 RECHARGE =  5.000000E-04



 CLASSIFICATION & COUNT OF STREAM SEGMENTS BASED ON SOURCE OF INFLOW:

                HEADWATER     DIVERSION     RECEIVES TRIBUTARY FLOW
                ---------     ---------     -----------------------
                     2              0               1



                    INPUT DATA FOR EACH STREAM SEGMENT
 ---------------------------------------------------------------------------------------------

 SEGMENT    SEG.     INFLOW   OVERLAND   STREAM    STREAM   ICALC  OUTFLOW  DIVERSION PRIORITY
    NO.    LENGTH     RATE     RUNOFF      ET       PPT.    METH.  TO SEG.  FROM SEG.    NO.

      1  4.400E+03 1.000E+05 0.000E+00 0.000E+00 0.000E+00    1        3        0        0
      2  1.800E+03 5.000E+04 0.000E+00 0.000E+00 0.000E+00    1        3        0        0
      3  1.800E+03 0.000E+00 0.000E+00 0.000E+00 0.000E+00    1        0        0        0


         STREAMBED PROPERTIES AND STREAM DIMENSIONS

 SEGMENT     BED HYD. COND.      BED THICKNESS     ELEV.-TOP OF BED     WIDTH OF STREAM     DEPTH OF STREAM    STREAM ROUGHNESS
    No.     UPPER     LOWER     UPPER     LOWER     UPPER     LOWER     UPPER     LOWER     UPPER     LOWER   CHANNEL      BANK

     1  5.000E+00 5.000E+00 1.000E+00 1.000E+00 4.850E+01 3.800E+01 2.000E+01 2.000E+01                     5.000E-02
     2  5.000E+00 5.000E+00 1.000E+00 1.000E+00 4.025E+01 3.800E+01 2.000E+01 2.000E+01                     5.000E-02
     3  5.000E+00 5.000E+00 1.000E+00 1.000E+00 3.800E+01 3.000E+01 2.000E+01 2.000E+01                     5.000E-02



 
 SOLVING FOR HEAD 


     9 CALLS TO PCG ROUTINE FOR TIME STEP   1 IN STRESS PERIOD    1
    36 TOTAL ITERATIONS

 OUTPUT CONTROL FOR STRESS PERIOD    1   TIME STEP    1
    SAVE BUDGET
    SAVE HEAD FOR ALL LAYERS
    PRINT HEAD FOR ALL LAYERS
 UBDSV2 SAVING "STREAMFLOW OUT  " ON UNIT  50 AT TIME STEP  1, STRESS PERIOD   1



 STREAM LISTING     PERIOD      1   STEP        1

 LAYER ROW COL. STREAM  RCH.  FLOW INTO     FLOW TO   FLOW OUT OF   OVRLND.     DIRECT     STREAM       STREAM     STREAM     STREAM   STREAMBED  STREAMBED
                SEG.NO.  NO.  STRM. RCH.    AQUIFER    STRM. RCH.    RUNOFF     PRECIP       ET          HEAD       DEPTH      WIDTH   CONDCTNC.   GRADIENT

   1   13    1     1     1    1.0000E+05 -6.0953E+03   1.0610E+05  0.000E+00  0.000E+00  0.000E+00  4.84086E+01  1.473E-01  2.000E+01  2.000E+04 -3.048E-01
   1   13    2     1     2    1.0610E+05 -7.5455E+03   1.1364E+05  0.000E+00  0.000E+00  0.000E+00  4.79371E+01  1.531E-01  2.000E+01  2.000E+04 -3.773E-01
   1   14    3     1     3    1.1364E+05 -2.1801E+03   1.1582E+05  0.000E+00  0.000E+00  0.000E+00  4.74639E+01  1.571E-01  2.000E+01  2.000E+04 -1.090E-01
   1   15    4     1     4    1.1582E+05 -2.2524E+03   1.1807E+05  0.000E+00  0.000E+00  0.000E+00  4.69884E+01  1.589E-01  2.000E+01  2.000E+04 -1.126E-01
   1   16    5     1     5    1.1807E+05 -7.1419E+03   1.2522E+05  0.000E+00  0.000E+00  0.000E+00  4.65150E+01  1.627E-01  2.000E+01  2.000E+04 -3.571E-01
   1   16    6     1     6    1.2522E+05 -4.2603E+03   1.2948E+05  0.000E+00  0.000E+00  0.000E+00  4.60422E+01  1.672E-01  2.000E+01  2.000E+04 -2.130E-01
   1   16    7     1     7    1.2948E+05 -4.0838E+03   1.3356E+05  0.000E+00  0.000E+00  0.000E+00  4.55682E+01  1.705E-01  2.000E+01  2.000E+04 -2.042E-01
   1   16    8     1     8    1.3356E+05 -4.0245E+03   1.3758E+05  0.000E+00  0.000E+00  0.000E+00  4.50941E+01  1.736E-01  2.000E+01  2.000E+04 -2.012E-01
   1   16    9     1     9    1.3758E+05 -3.9794E+03   1.4156E+05  0.000E+00  0.000E+00  0.000E+00  4.46199E+01  1.767E-01  2.000E+01  2.000E+04 -1.990E-01
   1   16   10     1    10    1.4156E+05 -3.9087E+03   1.4547E+05  0.000E+00  0.000E+00  0.000E+00  4.41456E+01  1.797E-01  2.000E+01  2.000E+04 -1.954E-01
   1   16   11     1    11    1.4547E+05 -3.7678E+03   1.4924E+05  0.000E+00  0.000E+00  0.000E+00  4.36712E+01  1.825E-01  2.000E+01  2.000E+04 -1.884E-01
   1   16   12     1    12    1.4924E+05 -4.8520E+03   1.5409E+05  0.000E+00  0.000E+00  0.000E+00  4.31971E+01  1.857E-01  2.000E+01  2.000E+04 -2.426E-01
   1   15   13     1    13    1.5409E+05 -4.2206E+03   1.5831E+05  0.000E+00  0.000E+00  0.000E+00  4.27231E+01  1.890E-01  2.000E+01  2.000E+04 -2.110E-01
   1   14   14     1    14    1.5831E+05 -5.7350E+03   1.6405E+05  0.000E+00  0.000E+00  0.000E+00  4.22494E+01  1.926E-01  2.000E+01  2.000E+04 -2.867E-01
   1   13   15     1    15    1.6405E+05 -7.3922E+03   1.7144E+05  0.000E+00  0.000E+00  0.000E+00  4.17768E+01  1.973E-01  2.000E+01  2.000E+04 -3.696E-01
   1   12   16     1    16    1.7144E+05 -8.6150E+03   1.8005E+05  0.000E+00  0.000E+00  0.000E+00  4.13052E+01  2.029E-01  2.000E+01  2.000E+04 -4.308E-01
   1   12   17     1    17    1.8005E+05 -5.9897E+03   1.8604E+05  0.000E+00  0.000E+00  0.000E+00  4.08329E+01  2.079E-01  2.000E+01  2.000E+04 -2.995E-01
   1   12   18     1    18    1.8604E+05 -5.8289E+03   1.9187E+05  0.000E+00  0.000E+00  0.000E+00  4.03596E+01  2.119E-01  2.000E+01  2.000E+04 -2.914E-01
   1   12   19     1    19    1.9187E+05 -7.4896E+03   1.9936E+05  0.000E+00  0.000E+00  0.000E+00  3.98868E+01  2.164E-01  2.000E+01  2.000E+04 -3.745E-01
   1   13   20     1    20    1.9936E+05 -5.9945E+03   2.0536E+05  0.000E+00  0.000E+00  0.000E+00  3.94140E+01  2.208E-01  2.000E+01  2.000E+04 -2.997E-01
   1   14   21     1    21    2.0536E+05 -4.2140E+03   2.0957E+05  0.000E+00  0.000E+00  0.000E+00  3.89400E+01  2.241E-01  2.000E+01  2.000E+04 -2.107E-01
   1   14   22     1    22    2.0957E+05  4.1020E+03   2.0547E+05  0.000E+00  0.000E+00  0.000E+00  3.84628E+01  2.242E-01  2.000E+01  2.000E+04  2.051E-01
   1    9   30     2     1    5.0000E+04 -4.8588E+03   5.4859E+04  0.000E+00  0.000E+00  0.000E+00  4.02442E+01  1.192E-01  2.000E+01  2.000E+04 -2.429E-01
   1    9   29     2     2    5.4859E+04 -5.1550E+03   6.0014E+04  0.000E+00  0.000E+00  0.000E+00  4.00009E+01  1.259E-01  2.000E+01  2.000E+04 -2.578E-01
   1    9   28     2     3    6.0014E+04 -5.4420E+03   6.5456E+04  0.000E+00  0.000E+00  0.000E+00  3.97578E+01  1.328E-01  2.000E+01  2.000E+04 -2.721E-01
   1    9   27     2     4    6.5456E+04 -8.3089E+03   7.3765E+04  0.000E+00  0.000E+00  0.000E+00  3.95163E+01  1.413E-01  2.000E+01  2.000E+04 -4.154E-01
   1   10   26     2     5    7.3765E+04 -7.3488E+03   8.1114E+04  0.000E+00  0.000E+00  0.000E+00  3.92756E+01  1.506E-01  2.000E+01  2.000E+04 -3.674E-01
   1   11   25     2     6    8.1114E+04 -6.8062E+03   8.7920E+04  0.000E+00  0.000E+00  0.000E+00  3.90338E+01  1.588E-01  2.000E+01  2.000E+04 -3.403E-01
   1   12   24     2     7    8.7920E+04 -6.3190E+03   9.4239E+04  0.000E+00  0.000E+00  0.000E+00  3.87910E+01  1.660E-01  2.000E+01  2.000E+04 -3.160E-01
   1   13   23     2     8    9.4239E+04 -1.6524E+03   9.5891E+04  0.000E+00  0.000E+00  0.000E+00  3.85454E+01  1.704E-01  2.000E+01  2.000E+04 -8.262E-02
   1   14   22     2     9    9.5891E+04  7.6292E+02   9.5128E+04  0.000E+00  0.000E+00  0.000E+00  3.82958E+01  1.708E-01  2.000E+01  2.000E+04  3.815E-02
   1   14   22     3     1    3.0060E+05 -9.3532E+03   3.0995E+05  0.000E+00  0.000E+00  0.000E+00  3.77900E+01  2.345E-01  2.000E+01  2.000E+04 -4.677E-01
   1   15   23     3     2    3.0995E+05 -1.5258E+03   3.1148E+05  0.000E+00  0.000E+00  0.000E+00  3.69036E+01  2.370E-01  2.000E+01  2.000E+04 -7.629E-02
   1   15   24     3     3    3.1148E+05 -1.4506E+03   3.1293E+05  0.000E+00  0.000E+00  0.000E+00  3.60154E+01  2.377E-01  2.000E+01  2.000E+04 -7.253E-02
   1   15   25     3     4    3.1293E+05 -1.5418E+03   3.1447E+05  0.000E+00  0.000E+00  0.000E+00  3.51272E+01  2.383E-01  2.000E+01  2.000E+04 -7.709E-02
   1   15   26     3     5    3.1447E+05 -1.8648E+03   3.1633E+05  0.000E+00  0.000E+00  0.000E+00  3.42391E+01  2.391E-01  2.000E+01  2.000E+04 -9.324E-02
   1   16   27     3     6    3.1633E+05 -2.1263E+03   3.1846E+05  0.000E+00  0.000E+00  0.000E+00  3.33511E+01  2.400E-01  2.000E+01  2.000E+04 -1.063E-01
   1   17   28     3     7    3.1846E+05 -6.2132E+03   3.2467E+05  0.000E+00  0.000E+00  0.000E+00  3.24641E+01  2.419E-01  2.000E+01  2.000E+04 -3.107E-01
   1   18   29     3     8    3.2467E+05 -6.9780E+03   3.3165E+05  0.000E+00  0.000E+00  0.000E+00  3.15782E+01  2.449E-01  2.000E+01  2.000E+04 -3.489E-01
   1   18   30     3     9    3.3165E+05 -6.5386E+03   3.3819E+05  0.000E+00  0.000E+00  0.000E+00  3.06923E+01  2.479E-01  2.000E+01  2.000E+04 -3.269E-01



1
              HEAD IN LAYER   1 AT END OF TIME STEP   1 IN STRESS PERIOD    1
  ---------------------------------------------------------------------------

          1      2      3      4      5      6      7      8      9     10
         11     12     13     14     15     16     17     18     19     20
         21     22     23     24     25     26     27     28     29     30
 .........................................................................
   1  ****** ****** ****** ****** ****** ****** ****** ****** ****** ******
      ****** ****** ****** ****** ****** ****** ****** ****** ****** ******
      ****** ****** ****** ****** ****** ****** ****** ****** ****** ******
   2  ****** ****** ****** ****** ****** ****** ****** ****** ****** ******
      ****** ****** ****** ****** ****** ****** ****** ****** ****** ******
      ****** ****** ****** ****** ****** ****** ****** ****** ****** ******
   3  ****** ****** ****** ****** ****** ****** ****** ****** ****** ******
      ****** ****** ****** ****** ****** ****** ****** ****** ****** ******
      ****** ****** ****** ****** ****** ****** ****** ****** ****** ******
   4  ****** ****** ****** ****** ****** ****** ****** ****** ****** ******
      ****** ****** ****** ****** ****** ****** ****** ****** ****** ******
      ****** ****** ****** ****** ****** ****** ****** ****** ****** ******
   5  ****** ****** ****** ****** ****** ****** ****** ****** ****** ******
      ****** ****** ****** ****** ****** ****** ****** ****** ****** ******
      ****** ****** ****** ****** ****** ****** ****** ****** ****** ******
   6  ****** ****** ****** ****** ****** ****** ****** ****** ****** ******
      ****** ****** ****** ****** ****** ****** ****** ****** ****** ******
      ****** ****** ****** ****** ****** ****** ****** ****** ****** ******
   7  ****** ****** ****** ****** ****** ****** ****** ****** ****** ******
      ****** ****** ****** ****** ****** ****** ****** ****** ****** ******
      ****** ****** ****** ****** ****** ****** ****** ****** ****** ******
   8  ****** ****** ****** ****** ****** ****** ****** ****** ****** ******
      ****** ****** ****** ****** ****** ****** ****** ****** ****** ******
      ****** ****** ****** ****** ****** ****** ****** ****** ****** ******
   9  ****** ****** ****** ****** ****** ****** ****** ****** ****** ******
      ****** ****** ****** ****** ****** ****** ****** ****** ****** ******
      ****** ****** ****** ****** ****** ****** ****** ****** ****** ******
  10  ****** ****** ****** ****** ****** ****** ****** ****** ****** ******
      ****** ****** ****** ****** ****** ****** ****** ****** ****** ******
      ****** ****** ****** ****** ****** ****** ****** ****** ****** ******
  11  ****** ****** ****** ****** ****** ****** ****** ****** ****** ******
      ****** ****** ****** ****** ****** ****** ****** ****** ****** ******
      ****** ****** ****** ****** ****** ****** ****** ****** ****** ******
  12  ****** ****** ****** ****** ****** ****** ****** ****** ****** ******
      ****** ****** ****** ****** ****** ****** ****** ****** ****** ******
      ****** ****** ****** ****** ****** ****** ****** ****** ****** ******
  13  ****** ****** ****** ****** ****** ****** ****** ****** ****** ******
      ****** ****** ****** ****** ****** ****** ****** ****** ****** ******
      ****** ****** ****** ****** ****** ****** ****** ****** ****** ******
  14  ****** ****** ****** ****** ****** ****** ****** ****** ****** ******
      ****** ****** ****** ****** ****** ****** ****** ****** ****** ******
      ****** ****** ****** ****** ****** ****** ****** ****** ****** ******
  15  ****** ****** ****** ****** ****** ****** ****** ****** ****** ******
      ****** ****** ****** ****** ****** ****** ****** ****** ****** ******
      ****** ****** ****** ****** ****** ****** ****** ****** ****** ******
  16  ****** ****** ****** ****** ****** ****** ****** ****** ****** ******
      ****** ****** ****** ****** ****** ****** ****** ****** ****** ******
      ****** ****** ****** ****** ****** ****** ****** ****** ****** ******
  17  ****** ****** ****** ****** ****** ****** ****** ****** ****** ******
      ****** ****** ****** ****** ****** ****** ****** ****** ****** ******
      ****** ****** ****** ****** ****** ****** ****** ****** ****** ******
  18  ****** ****** ****** ****** ****** ****** ****** ****** ****** ******
      ****** ****** ****** ****** ****** ****** ****** ****** ****** ******
      ****** ****** ****** ****** ****** ****** ****** ****** ****** ******
  19  ****** ****** ****** ****** ****** ****** ****** ****** ****** ******
      ****** ****** ****** ****** ****** ****** ****** ****** ****** ******
      ****** ****** ****** ****** ****** ****** ****** ****** ****** ******
  20  ****** ****** ****** ****** ****** ****** ****** ****** ****** ******
      ****** ****** ****** ****** ****** ****** ****** ****** ****** ******
      ****** ****** ****** ****** ****** ****** ****** ****** ****** ******
  21  ****** ****** ****** ****** ****** ****** ****** ****** ****** ******
      ****** ****** ****** ****** ****** ****** ****** ****** ****** ******
      ****** ****** ****** ****** ****** ****** ****** ****** ****** ******
  22  ****** ****** ****** ****** ****** ****** ****** ****** ****** ******
      ****** ****** ****** ****** ****** ****** ****** ****** ****** ******
      ****** ****** ****** ****** ****** ****** ****** ****** ****** ******
  23  ****** ****** ****** ****** ****** ****** ****** ****** ****** ******
      ****** ****** ****** ****** ****** ****** ****** ****** ****** ******
      ****** ****** ****** ****** ****** ****** ****** ****** ****** ******
  24  ****** ****** ****** ****** ****** ****** ****** ****** ****** ******
      ****** ****** ****** ****** ****** ****** ****** ****** ****** ******
      ****** ****** ****** ****** ****** ****** ****** ****** ****** ******
  25  ****** ****** ****** ****** ****** ****** ****** ****** ****** ******
      ****** ****** ****** ****** ****** ****** ****** ****** ****** ******
      ****** ****** ****** ****** ****** ****** ****** ****** ****** ******

 HEAD WILL BE SAVED ON UNIT   51 AT END OF TIME STEP    1, STRESS PERIOD    1
1
  VOLUMETRIC BUDGET FOR ENTIRE MODEL AT END OF TIME STEP    1, STRESS PERIOD   1
  ------------------------------------------------------------------------------

     CUMULATIVE VOLUMES      L**3       RATES FOR THIS TIME STEP      L**3/T
     ------------------                 ------------------------

           IN:                                      IN:
           ---                                      ---
             STORAGE =    17942261.1947               STORAGE =      195024.5782
       CONSTANT HEAD =     1179358.0959         CONSTANT HEAD =       12819.1097
               WELLS =           0.0000                 WELLS =           0.0000
            RECHARGE =     1269600.0000              RECHARGE =       13800.0000
      STREAM LEAKAGE =      447570.5305        STREAM LEAKAGE =        4864.8971

            TOTAL IN =    20838789.8210              TOTAL IN =      226508.5850

          OUT:                                     OUT:
          ----                                     ----
             STORAGE =           0.0000               STORAGE =           0.0000
       CONSTANT HEAD =           0.0000         CONSTANT HEAD =           0.0000
               WELLS =     3077758.9382                 WELLS =       33453.9015
            RECHARGE =           0.0000              RECHARGE =           0.0000
      STREAM LEAKAGE =    17761031.1766        STREAM LEAKAGE =      193054.6867

           TOTAL OUT =    20838790.1148             TOTAL OUT =      226508.5882

            IN - OUT =          -0.2938              IN - OUT =      -3.1933E-03

 PERCENT DISCREPANCY =          -0.00     PERCENT DISCREPANCY =          -0.00






         TIME SUMMARY AT END OF TIME STEP    1 IN STRESS PERIOD    1
                    SECONDS     MINUTES      HOURS       DAYS        YEARS
                    -----------------------------------------------------------
   TIME STEP LENGTH 7.94880E+06 1.32480E+05  2208.0      92.000     0.25188    
 STRESS PERIOD TIME 7.94880E+06 1.32480E+05  2208.0      92.000     0.25188    
         TOTAL TIME 7.94880E+06 1.32480E+05  2208.0      92.000     0.25188    
1
1
                            STRESS PERIOD NO.    2, LENGTH =   91.00000    
                            -----------------------------------------------

                              NUMBER OF TIME STEPS =     1

                               MULTIPLIER FOR DELT =     1.500

                            INITIAL TIME STEP SIZE =   91.00000    

 WELL NO.  LAYER   ROW   COL   STRESS RATE         
 --------------------------------------------------
      1      1     22     27      -6314.    
      2      1     16     14     -0.1197E+05
      3      1     11      6      -1537.    
      4      1     17     21     -0.1363E+05

      4 WELLS

                 RECHARGE =  2.000000E-03

 REUSING STREAM SEGMENT DATA FROM LAST STRESS PERIOD
 
 SOLVING FOR HEAD 


     7 CALLS TO PCG ROUTINE FOR TIME STEP   1 IN STRESS PERIOD    2
    27 TOTAL ITERATIONS

 OUTPUT CONTROL FOR STRESS PERIOD    2   TIME STEP    1
    SAVE BUDGET
    SAVE HEAD FOR ALL LAYERS
    PRINT HEAD FOR ALL LAYERS
 UBDSV2 SAVING "STREAMFLOW OUT  " ON UNIT  50 AT TIME STEP  1, STRESS PERIOD   2



 STREAM LISTING     PERIOD      2   STEP        1

 LAYER ROW COL. STREAM  RCH.  FLOW INTO     FLOW TO   FLOW OUT OF   OVRLND.     DIRECT     STREAM       STREAM     STREAM     STREAM   STREAMBED  STREAMBED
                SEG.NO.  NO.  STRM. RCH.    AQUIFER    STRM. RCH.    RUNOFF     PRECIP       ET          HEAD       DEPTH      WIDTH   CONDCTNC.   GRADIENT

   1   13    1     1     1    1.0000E+05 -3.9492E+03   1.0395E+05  0.000E+00  0.000E+00  0.000E+00  4.84077E+01  1.464E-01  2.000E+01  2.000E+04 -1.975E-01
   1   13    2     1     2    1.0395E+05 -5.1722E+03   1.0912E+05  0.000E+00  0.000E+00  0.000E+00  4.79343E+01  1.503E-01  2.000E+01  2.000E+04 -2.586E-01
   1   14    3     1     3    1.0912E+05 -1.0761E+03   1.1020E+05  0.000E+00  0.000E+00  0.000E+00  4.74597E+01  1.529E-01  2.000E+01  2.000E+04 -5.381E-02
   1   15    4     1     4    1.1020E+05 -1.1055E+03   1.1130E+05  0.000E+00  0.000E+00  0.000E+00  4.69833E+01  1.538E-01  2.000E+01  2.000E+04 -5.528E-02
   1   16    5     1     5    1.1130E+05 -4.1613E+03   1.1546E+05  0.000E+00  0.000E+00  0.000E+00  4.65082E+01  1.560E-01  2.000E+01  2.000E+04 -2.081E-01
   1   16    6     1     6    1.1546E+05 -2.4204E+03   1.1788E+05  0.000E+00  0.000E+00  0.000E+00  4.60337E+01  1.587E-01  2.000E+01  2.000E+04 -1.210E-01
   1   16    7     1     7    1.1788E+05 -2.3082E+03   1.2019E+05  0.000E+00  0.000E+00  0.000E+00  4.55583E+01  1.606E-01  2.000E+01  2.000E+04 -1.154E-01
   1   16    8     1     8    1.2019E+05 -2.2519E+03   1.2244E+05  0.000E+00  0.000E+00  0.000E+00  4.50829E+01  1.624E-01  2.000E+01  2.000E+04 -1.126E-01
   1   16    9     1     9    1.2244E+05 -2.1831E+03   1.2463E+05  0.000E+00  0.000E+00  0.000E+00  4.46074E+01  1.642E-01  2.000E+01  2.000E+04 -1.092E-01
   1   16   10     1    10    1.2463E+05 -2.0678E+03   1.2670E+05  0.000E+00  0.000E+00  0.000E+00  4.41318E+01  1.659E-01  2.000E+01  2.000E+04 -1.034E-01
   1   16   11     1    11    1.2670E+05 -1.8547E+03   1.2855E+05  0.000E+00  0.000E+00  0.000E+00  4.36561E+01  1.674E-01  2.000E+01  2.000E+04 -9.274E-02
   1   16   12     1    12    1.2855E+05 -1.5857E+03   1.3014E+05  0.000E+00  0.000E+00  0.000E+00  4.31802E+01  1.688E-01  2.000E+01  2.000E+04 -7.928E-02
   1   15   13     1    13    1.3014E+05 -6.1736E+02   1.3075E+05  0.000E+00  0.000E+00  0.000E+00  4.27038E+01  1.697E-01  2.000E+01  2.000E+04 -3.087E-02
   1   14   14     1    14    1.3075E+05 -2.0836E+03   1.3284E+05  0.000E+00  0.000E+00  0.000E+00  4.22275E+01  1.707E-01  2.000E+01  2.000E+04 -1.042E-01
   1   13   15     1    15    1.3284E+05 -3.8633E+03   1.3670E+05  0.000E+00  0.000E+00  0.000E+00  4.17526E+01  1.730E-01  2.000E+01  2.000E+04 -1.932E-01
   1   12   16     1    16    1.3670E+05 -5.4506E+03   1.4215E+05  0.000E+00  0.000E+00  0.000E+00  4.12788E+01  1.766E-01  2.000E+01  2.000E+04 -2.725E-01
   1   12   17     1    17    1.4215E+05 -3.4172E+03   1.4557E+05  0.000E+00  0.000E+00  0.000E+00  4.08049E+01  1.799E-01  2.000E+01  2.000E+04 -1.709E-01
   1   12   18     1    18    1.4557E+05 -3.2457E+03   1.4881E+05  0.000E+00  0.000E+00  0.000E+00  4.03301E+01  1.824E-01  2.000E+01  2.000E+04 -1.623E-01
   1   12   19     1    19    1.4881E+05 -4.3398E+03   1.5315E+05  0.000E+00  0.000E+00  0.000E+00  3.98557E+01  1.852E-01  2.000E+01  2.000E+04 -2.170E-01
   1   13   20     1    20    1.5315E+05 -2.6261E+03   1.5578E+05  0.000E+00  0.000E+00  0.000E+00  3.93810E+01  1.878E-01  2.000E+01  2.000E+04 -1.313E-01
   1   14   21     1    21    1.5578E+05 -8.9063E+02   1.5667E+05  0.000E+00  0.000E+00  0.000E+00  3.89050E+01  1.890E-01  2.000E+01  2.000E+04 -4.453E-02
   1   14   22     1    22    1.5667E+05  4.9651E+03   1.5171E+05  0.000E+00  0.000E+00  0.000E+00  3.84262E+01  1.876E-01  2.000E+01  2.000E+04  2.483E-01
   1    9   30     2     1    5.0000E+04 -2.1578E+03   5.2158E+04  0.000E+00  0.000E+00  0.000E+00  4.02424E+01  1.174E-01  2.000E+01  2.000E+04 -1.079E-01
   1    9   29     2     2    5.2158E+04 -2.4694E+03   5.4627E+04  0.000E+00  0.000E+00  0.000E+00  3.99955E+01  1.205E-01  2.000E+01  2.000E+04 -1.235E-01
   1    9   28     2     3    5.4627E+04 -2.7783E+03   5.7405E+04  0.000E+00  0.000E+00  0.000E+00  3.97490E+01  1.240E-01  2.000E+01  2.000E+04 -1.389E-01
   1    9   27     2     4    5.7405E+04 -4.9019E+03   6.2307E+04  0.000E+00  0.000E+00  0.000E+00  3.95041E+01  1.291E-01  2.000E+01  2.000E+04 -2.451E-01
   1   10   26     2     5    6.2307E+04 -3.8010E+03   6.6108E+04  0.000E+00  0.000E+00  0.000E+00  3.92596E+01  1.346E-01  2.000E+01  2.000E+04 -1.900E-01
   1   11   25     2     6    6.6108E+04 -3.4149E+03   6.9523E+04  0.000E+00  0.000E+00  0.000E+00  3.90141E+01  1.391E-01  2.000E+01  2.000E+04 -1.707E-01
   1   12   24     2     7    6.9523E+04 -3.2827E+03   7.2806E+04  0.000E+00  0.000E+00  0.000E+00  3.87682E+01  1.432E-01  2.000E+01  2.000E+04 -1.641E-01
   1   13   23     2     8    7.2806E+04 -6.1708E+02   7.3423E+04  0.000E+00  0.000E+00  0.000E+00  3.85205E+01  1.455E-01  2.000E+01  2.000E+04 -3.085E-02
   1   14   22     2     9    7.3423E+04  1.8372E+03   7.1586E+04  0.000E+00  0.000E+00  0.000E+00  3.82698E+01  1.448E-01  2.000E+01  2.000E+04  9.186E-02
   1   14   22     3     1    2.2329E+05 -8.5162E+03   2.3181E+05  0.000E+00  0.000E+00  0.000E+00  3.77521E+01  1.966E-01  2.000E+01  2.000E+04 -4.258E-01
   1   15   23     3     2    2.3181E+05 -4.3381E+02   2.3224E+05  0.000E+00  0.000E+00  0.000E+00  3.68656E+01  1.989E-01  2.000E+01  2.000E+04 -2.169E-02
   1   15   24     3     3    2.3224E+05 -5.3059E+02   2.3277E+05  0.000E+00  0.000E+00  0.000E+00  3.59769E+01  1.991E-01  2.000E+01  2.000E+04 -2.653E-02
   1   15   25     3     4    2.3277E+05 -5.9755E+02   2.3337E+05  0.000E+00  0.000E+00  0.000E+00  3.50883E+01  1.994E-01  2.000E+01  2.000E+04 -2.988E-02
   1   15   26     3     5    2.3337E+05 -7.3457E+02   2.3410E+05  0.000E+00  0.000E+00  0.000E+00  3.41998E+01  1.998E-01  2.000E+01  2.000E+04 -3.673E-02
   1   16   27     3     6    2.3410E+05 -8.2056E+02   2.3492E+05  0.000E+00  0.000E+00  0.000E+00  3.33113E+01  2.002E-01  2.000E+01  2.000E+04 -4.103E-02
   1   17   28     3     7    2.3492E+05 -2.6695E+03   2.3759E+05  0.000E+00  0.000E+00  0.000E+00  3.24233E+01  2.011E-01  2.000E+01  2.000E+04 -1.335E-01
   1   18   29     3     8    2.3759E+05 -3.4882E+03   2.4108E+05  0.000E+00  0.000E+00  0.000E+00  3.15360E+01  2.026E-01  2.000E+01  2.000E+04 -1.744E-01
   1   18   30     3     9    2.4108E+05 -3.7010E+03   2.4478E+05  0.000E+00  0.000E+00  0.000E+00  3.06489E+01  2.045E-01  2.000E+01  2.000E+04 -1.850E-01



1
              HEAD IN LAYER   1 AT END OF TIME STEP   1 IN STRESS PERIOD    2
  ---------------------------------------------------------------------------

          1      2      3      4      5      6      7      8      9     10
         11     12     13     14     15     16     17     18     19     20
         21     22     23     24     25     26     27     28     29     30
 .........................................................................
   1  ****** ****** ****** ****** ****** ****** ****** ****** ****** ******
      ****** ****** ****** ****** ****** ****** ****** ****** ****** ******
      ****** ****** ****** ****** ****** ****** ****** ****** ****** ******
   2  ****** ****** ****** ****** ****** ****** ****** ****** ****** ******
      ****** ****** ****** ****** ****** ****** ****** ****** ****** ******
      ****** ****** ****** ****** ****** ****** ****** ****** ****** ******
   3  ****** ****** ****** ****** ****** ****** ****** ****** ****** ******
      ****** ****** ****** ****** ****** ****** ****** ****** ****** ******
      ****** ****** ****** ****** ****** ****** ****** ****** ****** ******
   4  ****** ****** ****** ****** ****** ****** ****** ****** ****** ******
      ****** ****** ****** ****** ****** ****** ****** ****** ****** ******
      ****** ****** ****** ****** ****** ****** ****** ****** ****** ******
   5  ****** ****** ****** ****** ****** ****** ****** ****** ****** ******
      ****** ****** ****** ****** ****** ****** ****** ****** ****** ******
      ****** ****** ****** ****** ****** ****** ****** ****** ****** ******
   6  ****** ****** ****** ****** ****** ****** ****** ****** ****** ******
      ****** ****** ****** ****** ****** ****** ****** ****** ****** ******
      ****** ****** ****** ****** ****** ****** ****** ****** ****** ******
   7  ****** ****** ****** ****** ****** ****** ****** ****** ****** ******
      ****** ****** ****** ****** ****** ****** ****** ****** ****** ******
      ****** ****** ****** ****** ****** ****** ****** ****** ****** ******
   8  ****** ****** ****** ****** ****** ****** ****** ****** ****** ******
      ****** ****** ****** ****** ****** ****** ****** ****** ****** ******
      ****** ****** ****** ****** ****** ****** ****** ****** ****** ******
   9  ****** ****** ****** ****** ****** ****** ****** ****** ****** ******
      ****** ****** ****** ****** ****** ****** ****** ****** ****** ******
      ****** ****** ****** ****** ****** ****** ****** ****** ****** ******
  10  ****** ****** ****** ****** ****** ****** ****** ****** ****** ******
      ****** ****** ****** ****** ****** ****** ****** ****** ****** ******
      ****** ****** ****** ****** ****** ****** ****** ****** ****** ******
  11  ****** ****** ****** ****** ****** ****** ****** ****** ****** ******
      ****** ****** ****** ****** ****** ****** ****** ****** ****** ******
      ****** ****** ****** ****** ****** ****** ****** ****** ****** ******
  12  ****** ****** ****** ****** ****** ****** ****** ****** ****** ******
      ****** ****** ****** ****** ****** ****** ****** ****** ****** ******
      ****** ****** ****** ****** ****** ****** ****** ****** ****** ******
  13  ****** ****** ****** ****** ****** ****** ****** ****** ****** ******
      ****** ****** ****** ****** ****** ****** ****** ****** ****** ******
      ****** ****** ****** ****** ****** ****** ****** ****** ****** ******
  14  ****** ****** ****** ****** ****** ****** ****** ****** ****** ******
      ****** ****** ****** ****** ****** ****** ****** ****** ****** ******
      ****** ****** ****** ****** ****** ****** ****** ****** ****** ******
  15  ****** ****** ****** ****** ****** ****** ****** ****** ****** ******
      ****** ****** ****** ****** ****** ****** ****** ****** ****** ******
      ****** ****** ****** ****** ****** ****** ****** ****** ****** ******
  16  ****** ****** ****** ****** ****** ****** ****** ****** ****** ******
      ****** ****** ****** ****** ****** ****** ****** ****** ****** ******
      ****** ****** ****** ****** ****** ****** ****** ****** ****** ******
  17  ****** ****** ****** ****** ****** ****** ****** ****** ****** ******
      ****** ****** ****** ****** ****** ****** ****** ****** ****** ******
      ****** ****** ****** ****** ****** ****** ****** ****** ****** ******
  18  ****** ****** ****** ****** ****** ****** ****** ****** ****** ******
      ****** ****** ****** ****** ****** ****** ****** ****** ****** ******
      ****** ****** ****** ****** ****** ****** ****** ****** ****** ******
  19  ****** ****** ****** ****** ****** ****** ****** ****** ****** ******
      ****** ****** ****** ****** ****** ****** ****** ****** ****** ******
      ****** ****** ****** ****** ****** ****** ****** ****** ****** ******
  20  ****** ****** ****** ****** ****** ****** ****** ****** ****** ******
      ****** ****** ****** ****** ****** ****** ****** ****** ****** ******
      ****** ****** ****** ****** ****** ****** ****** ****** ****** ******
  21  ****** ****** ****** ****** ****** ****** ****** ****** ****** ******
      ****** ****** ****** ****** ****** ****** ****** ****** ****** ******
      ****** ****** ****** ****** ****** ****** ****** ****** ****** ******
  22  ****** ****** ****** ****** ****** ****** ****** ****** ****** ******
      ****** ****** ****** ****** ****** ****** ****** ****** ****** ******
      ****** ****** ****** ****** ****** ****** ****** ****** ****** ******
  23  ****** ****** ****** ****** ****** ****** ****** ****** ****** ******
      ****** ****** ****** ****** ****** ****** ****** ****** ****** ******
      ****** ****** ****** ****** ****** ****** ****** ****** ****** ******
  24  ****** ****** ****** ****** ****** ****** ****** ****** ****** ******
      ****** ****** ****** ****** ****** ****** ****** ****** ****** ******
      ****** ****** ****** ****** ****** ****** ****** ****** ****** ******
  25  ****** ****** ****** ****** ****** ****** ****** ****** ****** ******
      ****** ****** ****** ****** ****** ****** ****** ****** ****** ******
      ****** ****** ****** ****** ****** ****** ****** ****** ****** ******

 HEAD WILL BE SAVED ON UNIT   51 AT END OF TIME STEP    1, STRESS PERIOD    2
1
  VOLUMETRIC BUDGET FOR ENTIRE MODEL AT END OF TIME STEP    1, STRESS PERIOD   2
  ------------------------------------------------------------------------------

     CUMULATIVE VOLUMES      L**3       RATES FOR THIS TIME STEP      L**3/T
     ------------------                 ------------------------

           IN:                                      IN:
           ---                                      ---
             STORAGE =    22990247.6065               STORAGE =       55472.3782
       CONSTANT HEAD =     2777733.8267         CONSTANT HEAD =       17564.5685
               WELLS =           0.0000                 WELLS =           0.0000
            RECHARGE =     6292800.0000              RECHARGE =       55200.0000
      STREAM LEAKAGE =     1066582.9043        STREAM LEAKAGE =        6802.3338

            TOTAL IN =    33127364.3375              TOTAL IN =      135039.2804

          OUT:                                     OUT:
          ----                                     ----
             STORAGE =           0.0000               STORAGE =           0.0000
       CONSTANT HEAD =           0.0000         CONSTANT HEAD =           0.0000
               WELLS =     6122063.9749                 WELLS =       33453.9015
            RECHARGE =           0.0000              RECHARGE =           0.0000
      STREAM LEAKAGE =    27005301.6260        STREAM LEAKAGE =      101585.3896

           TOTAL OUT =    33127365.6009             TOTAL OUT =      135039.2911

            IN - OUT =          -1.2634              IN - OUT =      -1.0656E-02

 PERCENT DISCREPANCY =          -0.00     PERCENT DISCREPANCY =          -0.00






         TIME SUMMARY AT END OF TIME STEP    1 IN STRESS PERIOD    2
                    SECONDS     MINUTES      HOURS       DAYS        YEARS
                    -----------------------------------------------------------
   TIME STEP LENGTH 7.86240E+06 1.31040E+05  2184.0      91.000     0.24914    
 STRESS PERIOD TIME 7.86240E+06 1.31040E+05  2184.0      91.000     0.24914    
         TOTAL TIME 1.58112E+07 2.63520E+05  4392.0      183.00     0.50103    
1
1
                            STRESS PERIOD NO.    3, LENGTH =   91.00000    
                            -----------------------------------------------

                              NUMBER OF TIME STEPS =     1

                               MULTIPLIER FOR DELT =     1.500

                            INITIAL TIME STEP SIZE =   91.00000    

 WELL NO.  LAYER   ROW   COL   STRESS RATE         
 --------------------------------------------------
      1      1     22     27      -6314.    
      2      1     16     14     -0.1197E+05
      3      1     11      6      -1537.    
      4      1     17     21     -0.1363E+05

      4 WELLS

                 RECHARGE =   0.00000    

 REUSING STREAM SEGMENT DATA FROM LAST STRESS PERIOD
 
 SOLVING FOR HEAD 


     7 CALLS TO PCG ROUTINE FOR TIME STEP   1 IN STRESS PERIOD    3
    27 TOTAL ITERATIONS

 OUTPUT CONTROL FOR STRESS PERIOD    3   TIME STEP    1
    SAVE BUDGET
    SAVE HEAD FOR ALL LAYERS
    PRINT HEAD FOR ALL LAYERS
 UBDSV2 SAVING "STREAMFLOW OUT  " ON UNIT  50 AT TIME STEP  1, STRESS PERIOD   3



 STREAM LISTING     PERIOD      3   STEP        1

 LAYER ROW COL. STREAM  RCH.  FLOW INTO     FLOW TO   FLOW OUT OF   OVRLND.     DIRECT     STREAM       STREAM     STREAM     STREAM   STREAMBED  STREAMBED
                SEG.NO.  NO.  STRM. RCH.    AQUIFER    STRM. RCH.    RUNOFF     PRECIP       ET          HEAD       DEPTH      WIDTH   CONDCTNC.   GRADIENT

   1   13    1     1     1    1.0000E+05 -2.6786E+03   1.0268E+05  0.000E+00  0.000E+00  0.000E+00  4.84072E+01  1.458E-01  2.000E+01  2.000E+04 -1.339E-01
   1   13    2     1     2    1.0268E+05 -3.7346E+03   1.0641E+05  0.000E+00  0.000E+00  0.000E+00  4.79327E+01  1.486E-01  2.000E+01  2.000E+04 -1.867E-01
   1   14    3     1     3    1.0641E+05 -5.9981E+02   1.0701E+05  0.000E+00  0.000E+00  0.000E+00  4.74572E+01  1.504E-01  2.000E+01  2.000E+04 -2.999E-02
   1   15    4     1     4    1.0701E+05 -5.8486E+02   1.0760E+05  0.000E+00  0.000E+00  0.000E+00  4.69804E+01  1.509E-01  2.000E+01  2.000E+04 -2.924E-02
   1   16    5     1     5    1.0760E+05 -2.3287E+03   1.0993E+05  0.000E+00  0.000E+00  0.000E+00  4.65044E+01  1.521E-01  2.000E+01  2.000E+04 -1.164E-01
   1   16    6     1     6    1.0993E+05 -1.3860E+03   1.1131E+05  0.000E+00  0.000E+00  0.000E+00  4.60287E+01  1.537E-01  2.000E+01  2.000E+04 -6.930E-02
   1   16    7     1     7    1.1131E+05 -1.3285E+03   1.1264E+05  0.000E+00  0.000E+00  0.000E+00  4.55525E+01  1.548E-01  2.000E+01  2.000E+04 -6.642E-02
   1   16    8     1     8    1.1264E+05 -1.2865E+03   1.1393E+05  0.000E+00  0.000E+00  0.000E+00  4.50763E+01  1.559E-01  2.000E+01  2.000E+04 -6.433E-02
   1   16    9     1     9    1.1393E+05 -1.2170E+03   1.1514E+05  0.000E+00  0.000E+00  0.000E+00  4.46001E+01  1.569E-01  2.000E+01  2.000E+04 -6.085E-02
   1   16   10     1    10    1.1514E+05 -1.0938E+03   1.1624E+05  0.000E+00  0.000E+00  0.000E+00  4.41238E+01  1.579E-01  2.000E+01  2.000E+04 -5.469E-02
   1   16   11     1    11    1.1624E+05 -8.5979E+02   1.1710E+05  0.000E+00  0.000E+00  0.000E+00  4.36473E+01  1.587E-01  2.000E+01  2.000E+04 -4.299E-02
   1   16   12     1    12    1.1710E+05  1.7775E+02   1.1692E+05  0.000E+00  0.000E+00  0.000E+00  4.31703E+01  1.589E-01  2.000E+01  2.000E+04  8.887E-03
   1   15   13     1    13    1.1692E+05  1.1568E+03   1.1576E+05  0.000E+00  0.000E+00  0.000E+00  4.26925E+01  1.584E-01  2.000E+01  2.000E+04  5.784E-02
   1   14   14     1    14    1.1576E+05 -2.8544E+02   1.1605E+05  0.000E+00  0.000E+00  0.000E+00  4.22149E+01  1.580E-01  2.000E+01  2.000E+04 -1.427E-02
   1   13   15     1    15    1.1605E+05 -2.0958E+03   1.1814E+05  0.000E+00  0.000E+00  0.000E+00  4.17386E+01  1.590E-01  2.000E+01  2.000E+04 -1.048E-01
   1   12   16     1    16    1.1814E+05 -3.6906E+03   1.2184E+05  0.000E+00  0.000E+00  0.000E+00  4.12636E+01  1.614E-01  2.000E+01  2.000E+04 -1.845E-01
   1   12   17     1    17    1.2184E+05 -2.1174E+03   1.2395E+05  0.000E+00  0.000E+00  0.000E+00  4.07887E+01  1.637E-01  2.000E+01  2.000E+04 -1.059E-01
   1   12   18     1    18    1.2395E+05 -1.9616E+03   1.2591E+05  0.000E+00  0.000E+00  0.000E+00  4.03130E+01  1.653E-01  2.000E+01  2.000E+04 -9.808E-02
   1   12   19     1    19    1.2591E+05 -2.7564E+03   1.2867E+05  0.000E+00  0.000E+00  0.000E+00  3.98376E+01  1.672E-01  2.000E+01  2.000E+04 -1.378E-01
   1   13   20     1    20    1.2867E+05 -1.0796E+03   1.2975E+05  0.000E+00  0.000E+00  0.000E+00  3.93619E+01  1.687E-01  2.000E+01  2.000E+04 -5.398E-02
   1   14   21     1    21    1.2975E+05  8.0276E+02   1.2895E+05  0.000E+00  0.000E+00  0.000E+00  3.88847E+01  1.688E-01  2.000E+01  2.000E+04  4.014E-02
   1   14   22     1    22    1.2895E+05  5.3516E+03   1.2360E+05  0.000E+00  0.000E+00  0.000E+00  3.84050E+01  1.664E-01  2.000E+01  2.000E+04  2.676E-01
   1    9   30     2     1    5.0000E+04 -9.7233E+02   5.0972E+04  0.000E+00  0.000E+00  0.000E+00  4.02415E+01  1.165E-01  2.000E+01  2.000E+04 -4.862E-02
   1    9   29     2     2    5.0972E+04 -1.2866E+03   5.2259E+04  0.000E+00  0.000E+00  0.000E+00  3.99931E+01  1.181E-01  2.000E+01  2.000E+04 -6.433E-02
   1    9   28     2     3    5.2259E+04 -1.5850E+03   5.3844E+04  0.000E+00  0.000E+00  0.000E+00  3.97451E+01  1.201E-01  2.000E+01  2.000E+04 -7.925E-02
   1    9   27     2     4    5.3844E+04 -3.1951E+03   5.7039E+04  0.000E+00  0.000E+00  0.000E+00  3.94983E+01  1.233E-01  2.000E+01  2.000E+04 -1.598E-01
   1   10   26     2     5    5.7039E+04 -2.2049E+03   5.9244E+04  0.000E+00  0.000E+00  0.000E+00  3.92518E+01  1.268E-01  2.000E+01  2.000E+04 -1.102E-01
   1   11   25     2     6    5.9244E+04 -1.9281E+03   6.1172E+04  0.000E+00  0.000E+00  0.000E+00  3.90045E+01  1.295E-01  2.000E+01  2.000E+04 -9.641E-02
   1   12   24     2     7    6.1172E+04 -1.9548E+03   6.3127E+04  0.000E+00  0.000E+00  0.000E+00  3.87570E+01  1.320E-01  2.000E+01  2.000E+04 -9.774E-02
   1   13   23     2     8    6.3127E+04 -2.8492E+02   6.3412E+04  0.000E+00  0.000E+00  0.000E+00  3.85084E+01  1.334E-01  2.000E+01  2.000E+04 -1.425E-02
   1   14   22     2     9    6.3412E+04  2.3933E+03   6.1018E+04  0.000E+00  0.000E+00  0.000E+00  3.82571E+01  1.321E-01  2.000E+01  2.000E+04  1.197E-01
   1   14   22     3     1    1.8461E+05 -8.1240E+03   1.9274E+05  0.000E+00  0.000E+00  0.000E+00  3.77312E+01  1.757E-01  2.000E+01  2.000E+04 -4.062E-01
   1   15   23     3     2    1.9274E+05  1.8020E+01   1.9272E+05  0.000E+00  0.000E+00  0.000E+00  3.68446E+01  1.779E-01  2.000E+01  2.000E+04  9.010E-04
   1   15   24     3     3    1.9272E+05 -1.7857E+02   1.9290E+05  0.000E+00  0.000E+00  0.000E+00  3.59558E+01  1.780E-01  2.000E+01  2.000E+04 -8.929E-03
   1   15   25     3     4    1.9290E+05 -2.3558E+02   1.9313E+05  0.000E+00  0.000E+00  0.000E+00  3.50670E+01  1.781E-01  2.000E+01  2.000E+04 -1.178E-02
   1   15   26     3     5    1.9313E+05 -3.1684E+02   1.9345E+05  0.000E+00  0.000E+00  0.000E+00  3.41783E+01  1.783E-01  2.000E+01  2.000E+04 -1.584E-02
   1   16   27     3     6    1.9345E+05 -3.2824E+02   1.9378E+05  0.000E+00  0.000E+00  0.000E+00  3.32895E+01  1.784E-01  2.000E+01  2.000E+04 -1.641E-02
   1   17   28     3     7    1.9378E+05 -1.1401E+03   1.9492E+05  0.000E+00  0.000E+00  0.000E+00  3.24011E+01  1.788E-01  2.000E+01  2.000E+04 -5.701E-02
   1   18   29     3     8    1.9492E+05 -1.6984E+03   1.9662E+05  0.000E+00  0.000E+00  0.000E+00  3.15130E+01  1.796E-01  2.000E+01  2.000E+04 -8.492E-02
   1   18   30     3     9    1.9662E+05 -2.3948E+03   1.9901E+05  0.000E+00  0.000E+00  0.000E+00  3.06252E+01  1.807E-01  2.000E+01  2.000E+04 -1.197E-01



1
              HEAD IN LAYER   1 AT END OF TIME STEP   1 IN STRESS PERIOD    3
  ---------------------------------------------------------------------------

          1      2      3      4      5      6      7      8      9     10
         11     12     13     14     15     16     17     18     19     20
         21     22     23     24     25     26     27     28     29     30
 .........................................................................
   1  ****** ****** ****** ****** ****** ****** ****** ****** ****** ******
      ****** ****** ****** ****** ****** ****** ****** ****** ****** ******
      ****** ****** ****** ****** ****** ****** ****** ****** ****** ******
   2  ****** ****** ****** ****** ****** ****** ****** ****** ****** ******
      ****** ****** ****** ****** ****** ****** ****** ****** ****** ******
      ****** ****** ****** ****** ****** ****** ****** ****** ****** ******
   3  ****** ****** ****** ****** ****** ****** ****** ****** ****** ******
      ****** ****** ****** ****** ****** ****** ****** ****** ****** ******
      ****** ****** ****** ****** ****** ****** ****** ****** ****** ******
   4  ****** ****** ****** ****** ****** ****** ****** ****** ****** ******
      ****** ****** ****** ****** ****** ****** ****** ****** ****** ******
      ****** ****** ****** ****** ****** ****** ****** ****** ****** ******
   5  ****** ****** ****** ****** ****** ****** ****** ****** ****** ******
      ****** ****** ****** ****** ****** ****** ****** ****** ****** ******
      ****** ****** ****** ****** ****** ****** ****** ****** ****** ******
   6  ****** ****** ****** ****** ****** ****** ****** ****** ****** ******
      ****** ****** ****** ****** ****** ****** ****** ****** ****** ******
      ****** ****** ****** ****** ****** ****** ****** ****** ****** ******
   7  ****** ****** ****** ****** ****** ****** ****** ****** ****** ******
      ****** ****** ****** ****** ****** ****** ****** ****** ****** ******
      ****** ****** ****** ****** ****** ****** ****** ****** ****** ******
   8  ****** ****** ****** ****** ****** ****** ****** ****** ****** ******
      ****** ****** ****** ****** ****** ****** ****** ****** ****** ******
      ****** ****** ****** ****** ****** ****** ****** ****** ****** ******
   9  ****** ****** ****** ****** ****** ****** ****** ****** ****** ******
      ****** ****** ****** ****** ****** ****** ****** ****** ****** ******
      ****** ****** ****** ****** ****** ****** ****** ****** ****** ******
  10  ****** ****** ****** ****** ****** ****** ****** ****** ****** ******
      ****** ****** ****** ****** ****** ****** ****** ****** ****** ******
      ****** ****** ****** ****** ****** ****** ****** ****** ****** ******
  11  ****** ****** ****** ****** ****** ****** ****** ****** ****** ******
      ****** ****** ****** ****** ****** ****** ****** ****** ****** ******
      ****** ****** ****** ****** ****** ****** ****** ****** ****** ******
  12  ****** ****** ****** ****** ****** ****** ****** ****** ****** ******
      ****** ****** ****** ****** ****** ****** ****** ****** ****** ******
      ****** ****** ****** ****** ****** ****** ****** ****** ****** ******
  13  ****** ****** ****** ****** ****** ****** ****** ****** ****** ******
      ****** ****** ****** ****** ****** ****** ****** ****** ****** ******
      ****** ****** ****** ****** ****** ****** ****** ****** ****** ******
  14  ****** ****** ****** ****** ****** ****** ****** ****** ****** ******
      ****** ****** ****** ****** ****** ****** ****** ****** ****** ******
      ****** ****** ****** ****** ****** ****** ****** ****** ****** ******
  15  ****** ****** ****** ****** ****** ****** ****** ****** ****** ******
      ****** ****** ****** ****** ****** ****** ****** ****** ****** ******
      ****** ****** ****** ****** ****** ****** ****** ****** ****** ******
  16  ****** ****** ****** ****** ****** ****** ****** ****** ****** ******
      ****** ****** ****** ****** ****** ****** ****** ****** ****** ******
      ****** ****** ****** ****** ****** ****** ****** ****** ****** ******
  17  ****** ****** ****** ****** ****** ****** ****** ****** ****** ******
      ****** ****** ****** ****** ****** ****** ****** ****** ****** ******
      ****** ****** ****** ****** ****** ****** ****** ****** ****** ******
  18  ****** ****** ****** ****** ****** ****** ****** ****** ****** ******
      ****** ****** ****** ****** ****** ****** ****** ****** ****** ******
      ****** ****** ****** ****** ****** ****** ****** ****** ****** ******
  19  ****** ****** ****** ****** ****** ****** ****** ****** ****** ******
      ****** ****** ****** ****** ****** ****** ****** ****** ****** ******
      ****** ****** ****** ****** ****** ****** ****** ****** ****** ******
  20  ****** ****** ****** ****** ****** ****** ****** ****** ****** ******
      ****** ****** ****** ****** ****** ****** ****** ****** ****** ******
      ****** ****** ****** ****** ****** ****** ****** ****** ****** ******
  21  ****** ****** ****** ****** ****** ****** ****** ****** ****** ******
      ****** ****** ****** ****** ****** ****** ****** ****** ****** ******
      ****** ****** ****** ****** ****** ****** ****** ****** ****** ******
  22  ****** ****** ****** ****** ****** ****** ****** ****** ****** ******
      ****** ****** ****** ****** ****** ****** ****** ****** ****** ******
      ****** ****** ****** ****** ****** ****** ****** ****** ****** ******
  23  ****** ****** ****** ****** ****** ****** ****** ****** ****** ******
      ****** ****** ****** ****** ****** ****** ****** ****** ****** ******
      ****** ****** ****** ****** ****** ****** ****** ****** ****** ******
  24  ****** ****** ****** ****** ****** ****** ****** ****** ****** ******
      ****** ****** ****** ****** ****** ****** ****** ****** ****** ******
      ****** ****** ****** ****** ****** ****** ****** ****** ****** ******
  25  ****** ****** ****** ****** ****** ****** ****** ****** ****** ******
      ****** ****** ****** ****** ****** ****** ****** ****** ****** ******
      ****** ****** ****** ****** ****** ****** ****** ****** ****** ******

 HEAD WILL BE SAVED ON UNIT   51 AT END OF TIME STEP    1, STRESS PERIOD    3
1
  VOLUMETRIC BUDGET FOR ENTIRE MODEL AT END OF TIME STEP    1, STRESS PERIOD   3
  ------------------------------------------------------------------------------

     CUMULATIVE VOLUMES      L**3       RATES FOR THIS TIME STEP      L**3/T
     ------------------                 ------------------------

           IN:                                      IN:
           ---                                      ---
             STORAGE =    28103242.0512               STORAGE =       56186.7521
       CONSTANT HEAD =     5169243.0226         CONSTANT HEAD =       26280.3208
               WELLS =           0.0000                 WELLS =           0.0000
            RECHARGE =     6292800.0000              RECHARGE =           0.0000
      STREAM LEAKAGE =     1967501.7720        STREAM LEAKAGE =        9900.2073

            TOTAL IN =    41532786.8457              TOTAL IN =       92367.2803

          OUT:                                     OUT:
          ----                                     ----
             STORAGE =           0.0000               STORAGE =           0.0000
       CONSTANT HEAD =           0.0000         CONSTANT HEAD =           0.0000
               WELLS =     9166369.0116                 WELLS =       33453.9015
            RECHARGE =           0.0000              RECHARGE =           0.0000
      STREAM LEAKAGE =    32366419.7901        STREAM LEAKAGE =       58913.3864

           TOTAL OUT =    41532788.8017             TOTAL OUT =       92367.2879

            IN - OUT =          -1.9560              IN - OUT =      -7.6101E-03

 PERCENT DISCREPANCY =          -0.00     PERCENT DISCREPANCY =          -0.00






         TIME SUMMARY AT END OF TIME STEP    1 IN STRESS PERIOD    3
                    SECONDS     MINUTES      HOURS       DAYS        YEARS
                    -----------------------------------------------------------
   TIME STEP LENGTH 7.86240E+06 1.31040E+05  2184.0      91.000     0.24914    
 STRESS PERIOD TIME 7.86240E+06 1.31040E+05  2184.0      91.000     0.24914    
         TOTAL TIME 2.36736E+07 3.94560E+05  6576.0      274.00     0.75017    
1
1
                            STRESS PERIOD NO.    4, LENGTH =   91.00000    
                            -----------------------------------------------

                              NUMBER OF TIME STEPS =     1

                               MULTIPLIER FOR DELT =     1.500

                            INITIAL TIME STEP SIZE =   91.00000    

 WELL NO.  LAYER   ROW   COL   STRESS RATE         
 --------------------------------------------------
      1      1     22     27      -6314.    
      2      1     16     14     -0.1197E+05
      3      1     11      6      -1537.    
      4      1     17     21     -0.1363E+05

      4 WELLS

                 RECHARGE =  1.000000E-03

 REUSING STREAM SEGMENT DATA FROM LAST STRESS PERIOD
 
 SOLVING FOR HEAD 


     6 CALLS TO PCG ROUTINE FOR TIME STEP   1 IN STRESS PERIOD    4
    23 TOTAL ITERATIONS

 OUTPUT CONTROL FOR STRESS PERIOD    4   TIME STEP    1
    SAVE BUDGET
    SAVE HEAD FOR ALL LAYERS
    PRINT HEAD FOR ALL LAYERS
 UBDSV2 SAVING "STREAMFLOW OUT  " ON UNIT  50 AT TIME STEP  1, STRESS PERIOD   4



 STREAM LISTING     PERIOD      4   STEP        1

 LAYER ROW COL. STREAM  RCH.  FLOW INTO     FLOW TO   FLOW OUT OF   OVRLND.     DIRECT     STREAM       STREAM     STREAM     STREAM   STREAMBED  STREAMBED
                SEG.NO.  NO.  STRM. RCH.    AQUIFER    STRM. RCH.    RUNOFF     PRECIP       ET          HEAD       DEPTH      WIDTH   CONDCTNC.   GRADIENT

   1   13    1     1     1    1.0000E+05 -2.4317E+03   1.0243E+05  0.000E+00  0.000E+00  0.000E+00  4.84071E+01  1.457E-01  2.000E+01  2.000E+04 -1.216E-01
   1   13    2     1     2    1.0243E+05 -3.4416E+03   1.0587E+05  0.000E+00  0.000E+00  0.000E+00  4.79323E+01  1.482E-01  2.000E+01  2.000E+04 -1.721E-01
   1   14    3     1     3    1.0587E+05 -5.6169E+02   1.0643E+05  0.000E+00  0.000E+00  0.000E+00  4.74567E+01  1.499E-01  2.000E+01  2.000E+04 -2.808E-02
   1   15    4     1     4    1.0643E+05 -5.3662E+02   1.0697E+05  0.000E+00  0.000E+00  0.000E+00  4.69799E+01  1.504E-01  2.000E+01  2.000E+04 -2.683E-02
   1   16    5     1     5    1.0697E+05 -2.0026E+03   1.0897E+05  0.000E+00  0.000E+00  0.000E+00  4.65037E+01  1.515E-01  2.000E+01  2.000E+04 -1.001E-01
   1   16    6     1     6    1.0897E+05 -1.2183E+03   1.1019E+05  0.000E+00  0.000E+00  0.000E+00  4.60278E+01  1.528E-01  2.000E+01  2.000E+04 -6.091E-02
   1   16    7     1     7    1.1019E+05 -1.1706E+03   1.1136E+05  0.000E+00  0.000E+00  0.000E+00  4.55515E+01  1.538E-01  2.000E+01  2.000E+04 -5.853E-02
   1   16    8     1     8    1.1136E+05 -1.1314E+03   1.1249E+05  0.000E+00  0.000E+00  0.000E+00  4.50752E+01  1.548E-01  2.000E+01  2.000E+04 -5.657E-02
   1   16    9     1     9    1.1249E+05 -1.0629E+03   1.1356E+05  0.000E+00  0.000E+00  0.000E+00  4.45989E+01  1.557E-01  2.000E+01  2.000E+04 -5.314E-02
   1   16   10     1    10    1.1356E+05 -9.4008E+02   1.1450E+05  0.000E+00  0.000E+00  0.000E+00  4.41224E+01  1.565E-01  2.000E+01  2.000E+04 -4.700E-02
   1   16   11     1    11    1.1450E+05 -7.0022E+02   1.1520E+05  0.000E+00  0.000E+00  0.000E+00  4.36458E+01  1.572E-01  2.000E+01  2.000E+04 -3.501E-02
   1   16   12     1    12    1.1520E+05  5.1346E+02   1.1468E+05  0.000E+00  0.000E+00  0.000E+00  4.31686E+01  1.573E-01  2.000E+01  2.000E+04  2.567E-02
   1   15   13     1    13    1.1468E+05  1.4561E+03   1.1323E+05  0.000E+00  0.000E+00  0.000E+00  4.26905E+01  1.564E-01  2.000E+01  2.000E+04  7.280E-02
   1   14   14     1    14    1.1323E+05  2.2719E+01   1.1321E+05  0.000E+00  0.000E+00  0.000E+00  4.22127E+01  1.558E-01  2.000E+01  2.000E+04  1.136E-03
   1   13   15     1    15    1.1321E+05 -1.7806E+03   1.1499E+05  0.000E+00  0.000E+00  0.000E+00  4.17361E+01  1.566E-01  2.000E+01  2.000E+04 -8.903E-02
   1   12   16     1    16    1.1499E+05 -3.3136E+03   1.1830E+05  0.000E+00  0.000E+00  0.000E+00  4.12609E+01  1.586E-01  2.000E+01  2.000E+04 -1.657E-01
   1   12   17     1    17    1.1830E+05 -1.8810E+03   1.2018E+05  0.000E+00  0.000E+00  0.000E+00  4.07858E+01  1.608E-01  2.000E+01  2.000E+04 -9.405E-02
   1   12   18     1    18    1.2018E+05 -1.7402E+03   1.2192E+05  0.000E+00  0.000E+00  0.000E+00  4.03099E+01  1.622E-01  2.000E+01  2.000E+04 -8.701E-02
   1   12   19     1    19    1.2192E+05 -2.4947E+03   1.2442E+05  0.000E+00  0.000E+00  0.000E+00  3.98344E+01  1.639E-01  2.000E+01  2.000E+04 -1.247E-01
   1   13   20     1    20    1.2442E+05 -8.6950E+02   1.2528E+05  0.000E+00  0.000E+00  0.000E+00  3.93584E+01  1.653E-01  2.000E+01  2.000E+04 -4.348E-02
   1   14   21     1    21    1.2528E+05  1.1298E+03   1.2416E+05  0.000E+00  0.000E+00  0.000E+00  3.88811E+01  1.652E-01  2.000E+01  2.000E+04  5.649E-02
   1   14   22     1    22    1.2416E+05  5.4016E+03   1.1875E+05  0.000E+00  0.000E+00  0.000E+00  3.84012E+01  1.625E-01  2.000E+01  2.000E+04  2.701E-01
   1    9   30     2     1    5.0000E+04 -8.9362E+02   5.0894E+04  0.000E+00  0.000E+00  0.000E+00  4.02415E+01  1.165E-01  2.000E+01  2.000E+04 -4.468E-02
   1    9   29     2     2    5.0894E+04 -1.2014E+03   5.2095E+04  0.000E+00  0.000E+00  0.000E+00  3.99929E+01  1.179E-01  2.000E+01  2.000E+04 -6.007E-02
   1    9   28     2     3    5.2095E+04 -1.4810E+03   5.3576E+04  0.000E+00  0.000E+00  0.000E+00  3.97448E+01  1.198E-01  2.000E+01  2.000E+04 -7.405E-02
   1    9   27     2     4    5.3576E+04 -2.9511E+03   5.6527E+04  0.000E+00  0.000E+00  0.000E+00  3.94978E+01  1.228E-01  2.000E+01  2.000E+04 -1.476E-01
   1   10   26     2     5    5.6527E+04 -2.0674E+03   5.8594E+04  0.000E+00  0.000E+00  0.000E+00  3.92511E+01  1.261E-01  2.000E+01  2.000E+04 -1.034E-01
   1   11   25     2     6    5.8594E+04 -1.8288E+03   6.0423E+04  0.000E+00  0.000E+00  0.000E+00  3.90036E+01  1.286E-01  2.000E+01  2.000E+04 -9.144E-02
   1   12   24     2     7    6.0423E+04 -1.8713E+03   6.2294E+04  0.000E+00  0.000E+00  0.000E+00  3.87560E+01  1.310E-01  2.000E+01  2.000E+04 -9.356E-02
   1   13   23     2     8    6.2294E+04 -3.1249E+02   6.2607E+04  0.000E+00  0.000E+00  0.000E+00  3.85074E+01  1.324E-01  2.000E+01  2.000E+04 -1.562E-02
   1   14   22     2     9    6.2607E+04  2.4981E+03   6.0109E+04  0.000E+00  0.000E+00  0.000E+00  3.82560E+01  1.310E-01  2.000E+01  2.000E+04  1.249E-01
   1   14   22     3     1    1.7886E+05 -8.0623E+03   1.8692E+05  0.000E+00  0.000E+00  0.000E+00  3.77280E+01  1.724E-01  2.000E+01  2.000E+04 -4.031E-01
   1   15   23     3     2    1.8692E+05  6.9123E+01   1.8686E+05  0.000E+00  0.000E+00  0.000E+00  3.68414E+01  1.747E-01  2.000E+01  2.000E+04  3.456E-03
   1   15   24     3     3    1.8686E+05 -1.6227E+02   1.8702E+05  0.000E+00  0.000E+00  0.000E+00  3.59525E+01  1.747E-01  2.000E+01  2.000E+04 -8.114E-03
   1   15   25     3     4    1.8702E+05 -2.2153E+02   1.8724E+05  0.000E+00  0.000E+00  0.000E+00  3.50637E+01  1.748E-01  2.000E+01  2.000E+04 -1.108E-02
   1   15   26     3     5    1.8724E+05 -3.1749E+02   1.8756E+05  0.000E+00  0.000E+00  0.000E+00  3.41750E+01  1.750E-01  2.000E+01  2.000E+04 -1.587E-02
   1   16   27     3     6    1.8756E+05 -3.1264E+02   1.8787E+05  0.000E+00  0.000E+00  0.000E+00  3.32863E+01  1.751E-01  2.000E+01  2.000E+04 -1.563E-02
   1   17   28     3     7    1.8787E+05 -1.0150E+03   1.8888E+05  0.000E+00  0.000E+00  0.000E+00  3.23977E+01  1.755E-01  2.000E+01  2.000E+04 -5.075E-02
   1   18   29     3     8    1.8888E+05 -1.3437E+03   1.9023E+05  0.000E+00  0.000E+00  0.000E+00  3.15095E+01  1.762E-01  2.000E+01  2.000E+04 -6.718E-02
   1   18   30     3     9    1.9023E+05 -2.2024E+03   1.9243E+05  0.000E+00  0.000E+00  0.000E+00  3.06216E+01  1.772E-01  2.000E+01  2.000E+04 -1.101E-01



1
              HEAD IN LAYER   1 AT END OF TIME STEP   1 IN STRESS PERIOD    4
  ---------------------------------------------------------------------------

          1      2      3      4      5      6      7      8      9     10
         11     12     13     14     15     16     17     18     19     20
         21     22     23     24     25     26     27     28     29     30
 .........................................................................
   1  ****** ****** ****** ****** ****** ****** ****** ****** ****** ******
      ****** ****** ****** ****** ****** ****** ****** ****** ****** ******
      ****** ****** ****** ****** ****** ****** ****** ****** ****** ******
   2  ****** ****** ****** ****** ****** ****** ****** ****** ****** ******
      ****** ****** ****** ****** ****** ****** ****** ****** ****** ******
      ****** ****** ****** ****** ****** ****** ****** ****** ****** ******
   3  ****** ****** ****** ****** ****** ****** ****** ****** ****** ******
      ****** ****** ****** ****** ****** ****** ****** ****** ****** ******
      ****** ****** ****** ****** ****** ****** ****** ****** ****** ******
   4  ****** ****** ****** ****** ****** ****** ****** ****** ****** ******
      ****** ****** ****** ****** ****** ****** ****** ****** ****** ******
      ****** ****** ****** ****** ****** ****** ****** ****** ****** ******
   5  ****** ****** ****** ****** ****** ****** ****** ****** ****** ******
      ****** ****** ****** ****** ****** ****** ****** ****** ****** ******
      ****** ****** ****** ****** ****** ****** ****** ****** ****** ******
   6  ****** ****** ****** ****** ****** ****** ****** ****** ****** ******
      ****** ****** ****** ****** ****** ****** ****** ****** ****** ******
      ****** ****** ****** ****** ****** ****** ****** ****** ****** ******
   7  ****** ****** ****** ****** ****** ****** ****** ****** ****** ******
      ****** ****** ****** ****** ****** ****** ****** ****** ****** ******
      ****** ****** ****** ****** ****** ****** ****** ****** ****** ******
   8  ****** ****** ****** ****** ****** ****** ****** ****** ****** ******
      ****** ****** ****** ****** ****** ****** ****** ****** ****** ******
      ****** ****** ****** ****** ****** ****** ****** ****** ****** ******
   9  ****** ****** ****** ****** ****** ****** ****** ****** ****** ******
      ****** ****** ****** ****** ****** ****** ****** ****** ****** ******
      ****** ****** ****** ****** ****** ****** ****** ****** ****** ******
  10  ****** ****** ****** ****** ****** ****** ****** ****** ****** ******
      ****** ****** ****** ****** ****** ****** ****** ****** ****** ******
      ****** ****** ****** ****** ****** ****** ****** ****** ****** ******
  11  ****** ****** ****** ****** ****** ****** ****** ****** ****** ******
      ****** ****** ****** ****** ****** ****** ****** ****** ****** ******
      ****** ****** ****** ****** ****** ****** ****** ****** ****** ******
  12  ****** ****** ****** ****** ****** ****** ****** ****** ****** ******
      ****** ****** ****** ****** ****** ****** ****** ****** ****** ******
      ****** ****** ****** ****** ****** ****** ****** ****** ****** ******
  13  ****** ****** ****** ****** ****** ****** ****** ****** ****** ******
      ****** ****** ****** ****** ****** ****** ****** ****** ****** ******
      ****** ****** ****** ****** ****** ****** ****** ****** ****** ******
  14  ****** ****** ****** ****** ****** ****** ****** ****** ****** ******
      ****** ****** ****** ****** ****** ****** ****** ****** ****** ******
      ****** ****** ****** ****** ****** ****** ****** ****** ****** ******
  15  ****** ****** ****** ****** ****** ****** ****** ****** ****** ******
      ****** ****** ****** ****** ****** ****** ****** ****** ****** ******
      ****** ****** ****** ****** ****** ****** ****** ****** ****** ******
  16  ****** ****** ****** ****** ****** ****** ****** ****** ****** ******
      ****** ****** ****** ****** ****** ****** ****** ****** ****** ******
      ****** ****** ****** ****** ****** ****** ****** ****** ****** ******
  17  ****** ****** ****** ****** ****** ****** ****** ****** ****** ******
      ****** ****** ****** ****** ****** ****** ****** ****** ****** ******
      ****** ****** ****** ****** ****** ****** ****** ****** ****** ******
  18  ****** ****** ****** ****** ****** ****** ****** ****** ****** ******
      ****** ****** ****** ****** ****** ****** ****** ****** ****** ******
      ****** ****** ****** ****** ****** ****** ****** ****** ****** ******
  19  ****** ****** ****** ****** ****** ****** ****** ****** ****** ******
      ****** ****** ****** ****** ****** ****** ****** ****** ****** ******
      ****** ****** ****** ****** ****** ****** ****** ****** ****** ******
  20  ****** ****** ****** ****** ****** ****** ****** ****** ****** ******
      ****** ****** ****** ****** ****** ****** ****** ****** ****** ******
      ****** ****** ****** ****** ****** ****** ****** ****** ****** ******
  21  ****** ****** ****** ****** ****** ****** ****** ****** ****** ******
      ****** ****** ****** ****** ****** ****** ****** ****** ****** ******
      ****** ****** ****** ****** ****** ****** ****** ****** ****** ******
  22  ****** ****** ****** ****** ****** ****** ****** ****** ****** ******
      ****** ****** ****** ****** ****** ****** ****** ****** ****** ******
      ****** ****** ****** ****** ****** ****** ****** ****** ****** ******
  23  ****** ****** ****** ****** ****** ****** ****** ****** ****** ******
      ****** ****** ****** ****** ****** ****** ****** ****** ****** ******
      ****** ****** ****** ****** ****** ****** ****** ****** ****** ******
  24  ****** ****** ****** ****** ****** ****** ****** ****** ****** ******
      ****** ****** ****** ****** ****** ****** ****** ****** ****** ******
      ****** ****** ****** ****** ****** ****** ****** ****** ****** ******
  25  ****** ****** ****** ****** ****** ****** ****** ****** ****** ******
      ****** ****** ****** ****** ****** ****** ****** ****** ****** ******
      ****** ****** ****** ****** ****** ****** ****** ****** ****** ******

 HEAD WILL BE SAVED ON UNIT   51 AT END OF TIME STEP    1, STRESS PERIOD    4
1
  VOLUMETRIC BUDGET FOR ENTIRE MODEL AT END OF TIME STEP    1, STRESS PERIOD   4
  ------------------------------------------------------------------------------

     CUMULATIVE VOLUMES      L**3       RATES FOR THIS TIME STEP      L**3/T
     ------------------                 ------------------------

           IN:                                      IN:
           ---                                      ---
             STORAGE =    29859801.0001               STORAGE =       19302.8456
       CONSTANT HEAD =     7807772.3116         CONSTANT HEAD =       28994.8274
               WELLS =           0.0000                 WELLS =           0.0000
            RECHARGE =     8804400.0000              RECHARGE =       27600.0000
      STREAM LEAKAGE =     2976767.7965        STREAM LEAKAGE =       11090.8354

            TOTAL IN =    49448741.1082              TOTAL IN =       86988.5084

          OUT:                                     OUT:
          ----                                     ----
             STORAGE =        1194.4205               STORAGE =          13.1255
       CONSTANT HEAD =           0.0000         CONSTANT HEAD =           0.0000
               WELLS =    12210674.0483                 WELLS =       33453.9015
            RECHARGE =           0.0000              RECHARGE =           0.0000
      STREAM LEAKAGE =    37236874.6750        STREAM LEAKAGE =       53521.4823

           TOTAL OUT =    49448743.1437             TOTAL OUT =       86988.5093

            IN - OUT =          -2.0355              IN - OUT =      -8.7414E-04

 PERCENT DISCREPANCY =          -0.00     PERCENT DISCREPANCY =          -0.00






         TIME SUMMARY AT END OF TIME STEP    1 IN STRESS PERIOD    4
                    SECONDS     MINUTES      HOURS       DAYS        YEARS
                    -----------------------------------------------------------
   TIME STEP LENGTH 7.86240E+06 1.31040E+05  2184.0      91.000     0.24914    
 STRESS PERIOD TIME 7.86240E+06 1.31040E+05  2184.0      91.000     0.24914    
         TOTAL TIME 3.15360E+07 5.25600E+05  8760.0      365.00     0.99932    
1
1
                            STRESS PERIOD NO.    5, LENGTH =   92.00000    
                            -----------------------------------------------

                              NUMBER OF TIME STEPS =     1

                               MULTIPLIER FOR DELT =     1.500

                            INITIAL TIME STEP SIZE =   92.00000    

 WELL NO.  LAYER   ROW   COL   STRESS RATE         
 --------------------------------------------------
      1      1     22     27      -6314.    
      2      1     16     14     -0.1197E+05
      3      1     11      6      -1537.    
      4      1     17     21     -0.1363E+05

      4 WELLS

                 RECHARGE =  5.000000E-04

 REUSING STREAM SEGMENT DATA FROM LAST STRESS PERIOD
 
 SOLVING FOR HEAD 


     7 CALLS TO PCG ROUTINE FOR TIME STEP   1 IN STRESS PERIOD    5
    26 TOTAL ITERATIONS

 OUTPUT CONTROL FOR STRESS PERIOD    5   TIME STEP    1
    SAVE BUDGET
    SAVE HEAD FOR ALL LAYERS
    PRINT HEAD FOR ALL LAYERS
 UBDSV2 SAVING "STREAMFLOW OUT  " ON UNIT  50 AT TIME STEP  1, STRESS PERIOD   5



 STREAM LISTING     PERIOD      5   STEP        1

 LAYER ROW COL. STREAM  RCH.  FLOW INTO     FLOW TO   FLOW OUT OF   OVRLND.     DIRECT     STREAM       STREAM     STREAM     STREAM   STREAMBED  STREAMBED
                SEG.NO.  NO.  STRM. RCH.    AQUIFER    STRM. RCH.    RUNOFF     PRECIP       ET          HEAD       DEPTH      WIDTH   CONDCTNC.   GRADIENT

   1   13    1     1     1    1.0000E+05 -2.0104E+03   1.0201E+05  0.000E+00  0.000E+00  0.000E+00  4.84069E+01  1.455E-01  2.000E+01  2.000E+04 -1.005E-01
   1   13    2     1     2    1.0201E+05 -2.9619E+03   1.0497E+05  0.000E+00  0.000E+00  0.000E+00  4.79318E+01  1.477E-01  2.000E+01  2.000E+04 -1.481E-01
   1   14    3     1     3    1.0497E+05 -4.3380E+02   1.0541E+05  0.000E+00  0.000E+00  0.000E+00  4.74559E+01  1.491E-01  2.000E+01  2.000E+04 -2.169E-02
   1   15    4     1     4    1.0541E+05 -4.0186E+02   1.0581E+05  0.000E+00  0.000E+00  0.000E+00  4.69790E+01  1.495E-01  2.000E+01  2.000E+04 -2.009E-02
   1   16    5     1     5    1.0581E+05 -1.5566E+03   1.0736E+05  0.000E+00  0.000E+00  0.000E+00  4.65026E+01  1.503E-01  2.000E+01  2.000E+04 -7.783E-02
   1   16    6     1     6    1.0736E+05 -9.5448E+02   1.0832E+05  0.000E+00  0.000E+00  0.000E+00  4.60264E+01  1.514E-01  2.000E+01  2.000E+04 -4.772E-02
   1   16    7     1     7    1.0832E+05 -9.1639E+02   1.0924E+05  0.000E+00  0.000E+00  0.000E+00  4.55499E+01  1.521E-01  2.000E+01  2.000E+04 -4.582E-02
   1   16    8     1     8    1.0924E+05 -8.8026E+02   1.1012E+05  0.000E+00  0.000E+00  0.000E+00  4.50733E+01  1.529E-01  2.000E+01  2.000E+04 -4.401E-02
   1   16    9     1     9    1.1012E+05 -8.1391E+02   1.1093E+05  0.000E+00  0.000E+00  0.000E+00  4.45968E+01  1.536E-01  2.000E+01  2.000E+04 -4.070E-02
   1   16   10     1    10    1.1093E+05 -6.9327E+02   1.1162E+05  0.000E+00  0.000E+00  0.000E+00  4.41201E+01  1.542E-01  2.000E+01  2.000E+04 -3.466E-02
   1   16   11     1    11    1.1162E+05 -4.5023E+02   1.1207E+05  0.000E+00  0.000E+00  0.000E+00  4.36433E+01  1.547E-01  2.000E+01  2.000E+04 -2.251E-02
   1   16   12     1    12    1.1207E+05  9.6567E+02   1.1111E+05  0.000E+00  0.000E+00  0.000E+00  4.31659E+01  1.545E-01  2.000E+01  2.000E+04  4.828E-02
   1   15   13     1    13    1.1111E+05  1.9205E+03   1.0919E+05  0.000E+00  0.000E+00  0.000E+00  4.26874E+01  1.533E-01  2.000E+01  2.000E+04  9.603E-02
   1   14   14     1    14    1.0919E+05  5.0747E+02   1.0868E+05  0.000E+00  0.000E+00  0.000E+00  4.22091E+01  1.523E-01  2.000E+01  2.000E+04  2.537E-02
   1   13   15     1    15    1.0868E+05 -1.2881E+03   1.0997E+05  0.000E+00  0.000E+00  0.000E+00  4.17321E+01  1.526E-01  2.000E+01  2.000E+04 -6.441E-02
   1   12   16     1    16    1.0997E+05 -2.7930E+03   1.1276E+05  0.000E+00  0.000E+00  0.000E+00  4.12566E+01  1.543E-01  2.000E+01  2.000E+04 -1.397E-01
   1   12   17     1    17    1.1276E+05 -1.5254E+03   1.1429E+05  0.000E+00  0.000E+00  0.000E+00  4.07811E+01  1.561E-01  2.000E+01  2.000E+04 -7.627E-02
   1   12   18     1    18    1.1429E+05 -1.4008E+03   1.1569E+05  0.000E+00  0.000E+00  0.000E+00  4.03050E+01  1.573E-01  2.000E+01  2.000E+04 -7.004E-02
   1   12   19     1    19    1.1569E+05 -2.0902E+03   1.1778E+05  0.000E+00  0.000E+00  0.000E+00  3.98292E+01  1.587E-01  2.000E+01  2.000E+04 -1.045E-01
   1   13   20     1    20    1.1778E+05 -4.9424E+02   1.1827E+05  0.000E+00  0.000E+00  0.000E+00  3.93530E+01  1.598E-01  2.000E+01  2.000E+04 -2.471E-02
   1   14   21     1    21    1.1827E+05  1.5584E+03   1.1671E+05  0.000E+00  0.000E+00  0.000E+00  3.88753E+01  1.593E-01  2.000E+01  2.000E+04  7.792E-02
   1   14   22     1    22    1.1671E+05  5.4865E+03   1.1123E+05  0.000E+00  0.000E+00  0.000E+00  3.83951E+01  1.565E-01  2.000E+01  2.000E+04  2.743E-01
   1    9   30     2     1    5.0000E+04 -6.6811E+02   5.0668E+04  0.000E+00  0.000E+00  0.000E+00  4.02413E+01  1.163E-01  2.000E+01  2.000E+04 -3.341E-02
   1    9   29     2     2    5.0668E+04 -9.7270E+02   5.1641E+04  0.000E+00  0.000E+00  0.000E+00  3.99925E+01  1.175E-01  2.000E+01  2.000E+04 -4.864E-02
   1    9   28     2     3    5.1641E+04 -1.2413E+03   5.2882E+04  0.000E+00  0.000E+00  0.000E+00  3.97440E+01  1.190E-01  2.000E+01  2.000E+04 -6.206E-02
   1    9   27     2     4    5.2882E+04 -2.5756E+03   5.5458E+04  0.000E+00  0.000E+00  0.000E+00  3.94966E+01  1.216E-01  2.000E+01  2.000E+04 -1.288E-01
   1   10   26     2     5    5.5458E+04 -1.7384E+03   5.7196E+04  0.000E+00  0.000E+00  0.000E+00  3.92495E+01  1.245E-01  2.000E+01  2.000E+04 -8.692E-02
   1   11   25     2     6    5.7196E+04 -1.5264E+03   5.8723E+04  0.000E+00  0.000E+00  0.000E+00  3.90016E+01  1.266E-01  2.000E+01  2.000E+04 -7.632E-02
   1   12   24     2     7    5.8723E+04 -1.5950E+03   6.0318E+04  0.000E+00  0.000E+00  0.000E+00  3.87536E+01  1.286E-01  2.000E+01  2.000E+04 -7.975E-02
   1   13   23     2     8    6.0318E+04 -2.4510E+02   6.0563E+04  0.000E+00  0.000E+00  0.000E+00  3.85048E+01  1.298E-01  2.000E+01  2.000E+04 -1.225E-02
   1   14   22     2     9    6.0563E+04  2.6501E+03   5.7913E+04  0.000E+00  0.000E+00  0.000E+00  3.82533E+01  1.283E-01  2.000E+01  2.000E+04  1.325E-01
   1   14   22     3     1    1.6914E+05 -7.9674E+03   1.7711E+05  0.000E+00  0.000E+00  0.000E+00  3.77224E+01  1.668E-01  2.000E+01  2.000E+04 -3.984E-01
   1   15   23     3     2    1.7711E+05  1.8236E+02   1.7692E+05  0.000E+00  0.000E+00  0.000E+00  3.68358E+01  1.691E-01  2.000E+01  2.000E+04  9.118E-03
   1   15   24     3     3    1.7692E+05 -8.1335E+01   1.7701E+05  0.000E+00  0.000E+00  0.000E+00  3.59468E+01  1.691E-01  2.000E+01  2.000E+04 -4.067E-03
   1   15   25     3     4    1.7701E+05 -1.4224E+02   1.7715E+05  0.000E+00  0.000E+00  0.000E+00  3.50580E+01  1.691E-01  2.000E+01  2.000E+04 -7.112E-03
   1   15   26     3     5    1.7715E+05 -2.4019E+02   1.7739E+05  0.000E+00  0.000E+00  0.000E+00  3.41692E+01  1.692E-01  2.000E+01  2.000E+04 -1.201E-02
   1   16   27     3     6    1.7739E+05 -2.1243E+02   1.7760E+05  0.000E+00  0.000E+00  0.000E+00  3.32805E+01  1.694E-01  2.000E+01  2.000E+04 -1.062E-02
   1   17   28     3     7    1.7760E+05 -7.1180E+02   1.7831E+05  0.000E+00  0.000E+00  0.000E+00  3.23918E+01  1.696E-01  2.000E+01  2.000E+04 -3.559E-02
   1   18   29     3     8    1.7831E+05 -8.9305E+02   1.7920E+05  0.000E+00  0.000E+00  0.000E+00  3.15034E+01  1.701E-01  2.000E+01  2.000E+04 -4.465E-02
   1   18   30     3     9    1.7920E+05 -1.8980E+03   1.8110E+05  0.000E+00  0.000E+00  0.000E+00  3.06153E+01  1.709E-01  2.000E+01  2.000E+04 -9.490E-02



1
              HEAD IN LAYER   1 AT END OF TIME STEP   1 IN STRESS PERIOD    5
  ---------------------------------------------------------------------------

          1      2      3      4      5      6      7      8      9     10
         11     12     13     14     15     16     17     18     19     20
         21     22     23     24     25     26     27     28     29     30
 .........................................................................
   1  ****** ****** ****** ****** ****** ****** ****** ****** ****** ******
      ****** ****** ****** ****** ****** ****** ****** ****** ****** ******
      ****** ****** ****** ****** ****** ****** ****** ****** ****** ******
   2  ****** ****** ****** ****** ****** ****** ****** ****** ****** ******
      ****** ****** ****** ****** ****** ****** ****** ****** ****** ******
      ****** ****** ****** ****** ****** ****** ****** ****** ****** ******
   3  ****** ****** ****** ****** ****** ****** ****** ****** ****** ******
      ****** ****** ****** ****** ****** ****** ****** ****** ****** ******
      ****** ****** ****** ****** ****** ****** ****** ****** ****** ******
   4  ****** ****** ****** ****** ****** ****** ****** ****** ****** ******
      ****** ****** ****** ****** ****** ****** ****** ****** ****** ******
      ****** ****** ****** ****** ****** ****** ****** ****** ****** ******
   5  ****** ****** ****** ****** ****** ****** ****** ****** ****** ******
      ****** ****** ****** ****** ****** ****** ****** ****** ****** ******
      ****** ****** ****** ****** ****** ****** ****** ****** ****** ******
   6  ****** ****** ****** ****** ****** ****** ****** ****** ****** ******
      ****** ****** ****** ****** ****** ****** ****** ****** ****** ******
      ****** ****** ****** ****** ****** ****** ****** ****** ****** ******
   7  ****** ****** ****** ****** ****** ****** ****** ****** ****** ******
      ****** ****** ****** ****** ****** ****** ****** ****** ****** ******
      ****** ****** ****** ****** ****** ****** ****** ****** ****** ******
   8  ****** ****** ****** ****** ****** ****** ****** ****** ****** ******
      ****** ****** ****** ****** ****** ****** ****** ****** ****** ******
      ****** ****** ****** ****** ****** ****** ****** ****** ****** ******
   9  ****** ****** ****** ****** ****** ****** ****** ****** ****** ******
      ****** ****** ****** ****** ****** ****** ****** ****** ****** ******
      ****** ****** ****** ****** ****** ****** ****** ****** ****** ******
  10  ****** ****** ****** ****** ****** ****** ****** ****** ****** ******
      ****** ****** ****** ****** ****** ****** ****** ****** ****** ******
      ****** ****** ****** ****** ****** ****** ****** ****** ****** ******
  11  ****** ****** ****** ****** ****** ****** ****** ****** ****** ******
      ****** ****** ****** ****** ****** ****** ****** ****** ****** ******
      ****** ****** ****** ****** ****** ****** ****** ****** ****** ******
  12  ****** ****** ****** ****** ****** ****** ****** ****** ****** ******
      ****** ****** ****** ****** ****** ****** ****** ****** ****** ******
      ****** ****** ****** ****** ****** ****** ****** ****** ****** ******
  13  ****** ****** ****** ****** ****** ****** ****** ****** ****** ******
      ****** ****** ****** ****** ****** ****** ****** ****** ****** ******
      ****** ****** ****** ****** ****** ****** ****** ****** ****** ******
  14  ****** ****** ****** ****** ****** ****** ****** ****** ****** ******
      ****** ****** ****** ****** ****** ****** ****** ****** ****** ******
      ****** ****** ****** ****** ****** ****** ****** ****** ****** ******
  15  ****** ****** ****** ****** ****** ****** ****** ****** ****** ******
      ****** ****** ****** ****** ****** ****** ****** ****** ****** ******
      ****** ****** ****** ****** ****** ****** ****** ****** ****** ******
  16  ****** ****** ****** ****** ****** ****** ****** ****** ****** ******
      ****** ****** ****** ****** ****** ****** ****** ****** ****** ******
      ****** ****** ****** ****** ****** ****** ****** ****** ****** ******
  17  ****** ****** ****** ****** ****** ****** ****** ****** ****** ******
      ****** ****** ****** ****** ****** ****** ****** ****** ****** ******
      ****** ****** ****** ****** ****** ****** ****** ****** ****** ******
  18  ****** ****** ****** ****** ****** ****** ****** ****** ****** ******
      ****** ****** ****** ****** ****** ****** ****** ****** ****** ******
      ****** ****** ****** ****** ****** ****** ****** ****** ****** ******
  19  ****** ****** ****** ****** ****** ****** ****** ****** ****** ******
      ****** ****** ****** ****** ****** ****** ****** ****** ****** ******
      ****** ****** ****** ****** ****** ****** ****** ****** ****** ******
  20  ****** ****** ****** ****** ****** ****** ****** ****** ****** ******
      ****** ****** ****** ****** ****** ****** ****** ****** ****** ******
      ****** ****** ****** ****** ****** ****** ****** ****** ****** ******
  21  ****** ****** ****** ****** ****** ****** ****** ****** ****** ******
      ****** ****** ****** ****** ****** ****** ****** ****** ****** ******
      ****** ****** ****** ****** ****** ****** ****** ****** ****** ******
  22  ****** ****** ****** ****** ****** ****** ****** ****** ****** ******
      ****** ****** ****** ****** ****** ****** ****** ****** ****** ******
      ****** ****** ****** ****** ****** ****** ****** ****** ****** ******
  23  ****** ****** ****** ****** ****** ****** ****** ****** ****** ******
      ****** ****** ****** ****** ****** ****** ****** ****** ****** ******
      ****** ****** ****** ****** ****** ****** ****** ****** ****** ******
  24  ****** ****** ****** ****** ****** ****** ****** ****** ****** ******
      ****** ****** ****** ****** ****** ****** ****** ****** ****** ******
      ****** ****** ****** ****** ****** ****** ****** ****** ****** ******
  25  ****** ****** ****** ****** ****** ****** ****** ****** ****** ******
      ****** ****** ****** ****** ****** ****** ****** ****** ****** ******
      ****** ****** ****** ****** ****** ****** ****** ****** ****** ******

 HEAD WILL BE SAVED ON UNIT   51 AT END OF TIME STEP    1, STRESS PERIOD    5
1
  VOLUMETRIC BUDGET FOR ENTIRE MODEL AT END OF TIME STEP    1, STRESS PERIOD   5
  ------------------------------------------------------------------------------

     CUMULATIVE VOLUMES      L**3       RATES FOR THIS TIME STEP      L**3/T
     ------------------                 ------------------------

           IN:                                      IN:
           ---                                      ---
             STORAGE =    31586484.2614               STORAGE =       18768.2963
       CONSTANT HEAD =    10750708.7343         CONSTANT HEAD =       31988.4394
               WELLS =           0.0000                 WELLS =           0.0000
            RECHARGE =    10074000.0000              RECHARGE =       13800.0000
      STREAM LEAKAGE =     4197702.9140        STREAM LEAKAGE =       13271.0339

            TOTAL IN =    56608895.9096              TOTAL IN =       77827.7696

          OUT:                                     OUT:
          ----                                     ----
             STORAGE =        1194.4205               STORAGE =           0.0000
       CONSTANT HEAD =           0.0000         CONSTANT HEAD =           0.0000
               WELLS =    15288432.9865                 WELLS =       33453.9015
            RECHARGE =           0.0000              RECHARGE =           0.0000
      STREAM LEAKAGE =    41319270.8367        STREAM LEAKAGE =       44373.8713

           TOTAL OUT =    56608898.2436             TOTAL OUT =       77827.7728

            IN - OUT =          -2.3340              IN - OUT =      -3.2446E-03

 PERCENT DISCREPANCY =          -0.00     PERCENT DISCREPANCY =          -0.00






         TIME SUMMARY AT END OF TIME STEP    1 IN STRESS PERIOD    5
                    SECONDS     MINUTES      HOURS       DAYS        YEARS
                    -----------------------------------------------------------
   TIME STEP LENGTH 7.94880E+06 1.32480E+05  2208.0      92.000     0.25188    
 STRESS PERIOD TIME 7.94880E+06 1.32480E+05  2208.0      92.000     0.25188    
         TOTAL TIME 3.94848E+07 6.58080E+05  10968.      457.00      1.2512    
1
1
                            STRESS PERIOD NO.    6, LENGTH =   91.00000    
                            -----------------------------------------------

                              NUMBER OF TIME STEPS =     1

                               MULTIPLIER FOR DELT =     1.500

                            INITIAL TIME STEP SIZE =   91.00000    

 WELL NO.  LAYER   ROW   COL   STRESS RATE         
 --------------------------------------------------
      1      1     22     27      -6314.    
      2      1     16     14     -0.1197E+05
      3      1     11      6      -1537.    
      4      1     17     21     -0.1363E+05

      4 WELLS

                 RECHARGE =  2.000000E-03

 REUSING STREAM SEGMENT DATA FROM LAST STRESS PERIOD
 
 SOLVING FOR HEAD 


     7 CALLS TO PCG ROUTINE FOR TIME STEP   1 IN STRESS PERIOD    6
    26 TOTAL ITERATIONS

 OUTPUT CONTROL FOR STRESS PERIOD    6   TIME STEP    1
    SAVE BUDGET
    SAVE HEAD FOR ALL LAYERS
    PRINT HEAD FOR ALL LAYERS
 UBDSV2 SAVING "STREAMFLOW OUT  " ON UNIT  50 AT TIME STEP  1, STRESS PERIOD   6



 STREAM LISTING     PERIOD      6   STEP        1

 LAYER ROW COL. STREAM  RCH.  FLOW INTO     FLOW TO   FLOW OUT OF   OVRLND.     DIRECT     STREAM       STREAM     STREAM     STREAM   STREAMBED  STREAMBED
                SEG.NO.  NO.  STRM. RCH.    AQUIFER    STRM. RCH.    RUNOFF     PRECIP       ET          HEAD       DEPTH      WIDTH   CONDCTNC.   GRADIENT

   1   13    1     1     1    1.0000E+05 -2.3224E+03   1.0232E+05  0.000E+00  0.000E+00  0.000E+00  4.84070E+01  1.457E-01  2.000E+01  2.000E+04 -1.161E-01
   1   13    2     1     2    1.0232E+05 -3.3015E+03   1.0562E+05  0.000E+00  0.000E+00  0.000E+00  4.79322E+01  1.481E-01  2.000E+01  2.000E+04 -1.651E-01
   1   14    3     1     3    1.0562E+05 -5.8558E+02   1.0621E+05  0.000E+00  0.000E+00  0.000E+00  4.74565E+01  1.497E-01  2.000E+01  2.000E+04 -2.928E-02
   1   15    4     1     4    1.0621E+05 -5.6482E+02   1.0677E+05  0.000E+00  0.000E+00  0.000E+00  4.69798E+01  1.502E-01  2.000E+01  2.000E+04 -2.824E-02
   1   16    5     1     5    1.0677E+05 -2.0440E+03   1.0882E+05  0.000E+00  0.000E+00  0.000E+00  4.65036E+01  1.513E-01  2.000E+01  2.000E+04 -1.022E-01
   1   16    6     1     6    1.0882E+05 -1.2389E+03   1.1006E+05  0.000E+00  0.000E+00  0.000E+00  4.60277E+01  1.527E-01  2.000E+01  2.000E+04 -6.195E-02
   1   16    7     1     7    1.1006E+05 -1.1852E+03   1.1124E+05  0.000E+00  0.000E+00  0.000E+00  4.55514E+01  1.537E-01  2.000E+01  2.000E+04 -5.926E-02
   1   16    8     1     8    1.1124E+05 -1.1442E+03   1.1239E+05  0.000E+00  0.000E+00  0.000E+00  4.50751E+01  1.547E-01  2.000E+01  2.000E+04 -5.721E-02
   1   16    9     1     9    1.1239E+05 -1.0770E+03   1.1346E+05  0.000E+00  0.000E+00  0.000E+00  4.45988E+01  1.556E-01  2.000E+01  2.000E+04 -5.385E-02
   1   16   10     1    10    1.1346E+05 -9.5745E+02   1.1442E+05  0.000E+00  0.000E+00  0.000E+00  4.41223E+01  1.564E-01  2.000E+01  2.000E+04 -4.787E-02
   1   16   11     1    11    1.1442E+05 -7.1637E+02   1.1514E+05  0.000E+00  0.000E+00  0.000E+00  4.36458E+01  1.571E-01  2.000E+01  2.000E+04 -3.582E-02
   1   16   12     1    12    1.1514E+05  5.3980E+02   1.1460E+05  0.000E+00  0.000E+00  0.000E+00  4.31686E+01  1.572E-01  2.000E+01  2.000E+04  2.699E-02
   1   15   13     1    13    1.1460E+05  1.4794E+03   1.1312E+05  0.000E+00  0.000E+00  0.000E+00  4.26905E+01  1.564E-01  2.000E+01  2.000E+04  7.397E-02
   1   14   14     1    14    1.1312E+05  6.7292E+01   1.1305E+05  0.000E+00  0.000E+00  0.000E+00  4.22125E+01  1.557E-01  2.000E+01  2.000E+04  3.365E-03
   1   13   15     1    15    1.1305E+05 -1.7140E+03   1.1477E+05  0.000E+00  0.000E+00  0.000E+00  4.17360E+01  1.564E-01  2.000E+01  2.000E+04 -8.570E-02
   1   12   16     1    16    1.1477E+05 -3.1823E+03   1.1795E+05  0.000E+00  0.000E+00  0.000E+00  4.12607E+01  1.584E-01  2.000E+01  2.000E+04 -1.591E-01
   1   12   17     1    17    1.1795E+05 -1.8390E+03   1.1979E+05  0.000E+00  0.000E+00  0.000E+00  4.07855E+01  1.605E-01  2.000E+01  2.000E+04 -9.195E-02
   1   12   18     1    18    1.1979E+05 -1.7175E+03   1.2150E+05  0.000E+00  0.000E+00  0.000E+00  4.03096E+01  1.619E-01  2.000E+01  2.000E+04 -8.588E-02
   1   12   19     1    19    1.2150E+05 -2.4873E+03   1.2399E+05  0.000E+00  0.000E+00  0.000E+00  3.98340E+01  1.636E-01  2.000E+01  2.000E+04 -1.244E-01
   1   13   20     1    20    1.2399E+05 -9.0629E+02   1.2490E+05  0.000E+00  0.000E+00  0.000E+00  3.93581E+01  1.649E-01  2.000E+01  2.000E+04 -4.531E-02
   1   14   21     1    21    1.2490E+05  1.1723E+03   1.2373E+05  0.000E+00  0.000E+00  0.000E+00  3.88807E+01  1.648E-01  2.000E+01  2.000E+04  5.861E-02
   1   14   22     1    22    1.2373E+05  5.3861E+03   1.1834E+05  0.000E+00  0.000E+00  0.000E+00  3.84008E+01  1.622E-01  2.000E+01  2.000E+04  2.693E-01
   1    9   30     2     1    5.0000E+04 -1.0353E+03   5.1035E+04  0.000E+00  0.000E+00  0.000E+00  4.02416E+01  1.166E-01  2.000E+01  2.000E+04 -5.176E-02
   1    9   29     2     2    5.1035E+04 -1.3357E+03   5.2371E+04  0.000E+00  0.000E+00  0.000E+00  3.99932E+01  1.182E-01  2.000E+01  2.000E+04 -6.679E-02
   1    9   28     2     3    5.2371E+04 -1.5980E+03   5.3969E+04  0.000E+00  0.000E+00  0.000E+00  3.97452E+01  1.202E-01  2.000E+01  2.000E+04 -7.990E-02
   1    9   27     2     4    5.3969E+04 -3.0294E+03   5.6998E+04  0.000E+00  0.000E+00  0.000E+00  3.94983E+01  1.233E-01  2.000E+01  2.000E+04 -1.515E-01
   1   10   26     2     5    5.6998E+04 -2.2145E+03   5.9213E+04  0.000E+00  0.000E+00  0.000E+00  3.92518E+01  1.268E-01  2.000E+01  2.000E+04 -1.107E-01
   1   11   25     2     6    5.9213E+04 -1.9872E+03   6.1200E+04  0.000E+00  0.000E+00  0.000E+00  3.90045E+01  1.295E-01  2.000E+01  2.000E+04 -9.936E-02
   1   12   24     2     7    6.1200E+04 -2.0105E+03   6.3211E+04  0.000E+00  0.000E+00  0.000E+00  3.87571E+01  1.321E-01  2.000E+01  2.000E+04 -1.005E-01
   1   13   23     2     8    6.3211E+04 -3.8376E+02   6.3594E+04  0.000E+00  0.000E+00  0.000E+00  3.85086E+01  1.336E-01  2.000E+01  2.000E+04 -1.919E-02
   1   14   22     2     9    6.3594E+04  2.5145E+03   6.1080E+04  0.000E+00  0.000E+00  0.000E+00  3.82573E+01  1.323E-01  2.000E+01  2.000E+04  1.257E-01
   1   14   22     3     1    1.7942E+05 -8.0646E+03   1.8748E+05  0.000E+00  0.000E+00  0.000E+00  3.77283E+01  1.727E-01  2.000E+01  2.000E+04 -4.032E-01
   1   15   23     3     2    1.8748E+05  5.2414E+01   1.8743E+05  0.000E+00  0.000E+00  0.000E+00  3.68417E+01  1.750E-01  2.000E+01  2.000E+04  2.621E-03
   1   15   24     3     3    1.8743E+05 -1.9881E+02   1.8763E+05  0.000E+00  0.000E+00  0.000E+00  3.59528E+01  1.750E-01  2.000E+01  2.000E+04 -9.941E-03
   1   15   25     3     4    1.8763E+05 -2.6465E+02   1.8789E+05  0.000E+00  0.000E+00  0.000E+00  3.50641E+01  1.752E-01  2.000E+01  2.000E+04 -1.323E-02
   1   15   26     3     5    1.8789E+05 -3.8896E+02   1.8828E+05  0.000E+00  0.000E+00  0.000E+00  3.41754E+01  1.754E-01  2.000E+01  2.000E+04 -1.945E-02
   1   16   27     3     6    1.8828E+05 -3.7629E+02   1.8866E+05  0.000E+00  0.000E+00  0.000E+00  3.32867E+01  1.756E-01  2.000E+01  2.000E+04 -1.881E-02
   1   17   28     3     7    1.8866E+05 -1.1576E+03   1.8982E+05  0.000E+00  0.000E+00  0.000E+00  3.23982E+01  1.760E-01  2.000E+01  2.000E+04 -5.788E-02
   1   18   29     3     8    1.8982E+05 -1.2961E+03   1.9111E+05  0.000E+00  0.000E+00  0.000E+00  3.15100E+01  1.767E-01  2.000E+01  2.000E+04 -6.481E-02
   1   18   30     3     9    1.9111E+05 -2.2320E+03   1.9335E+05  0.000E+00  0.000E+00  0.000E+00  3.06221E+01  1.777E-01  2.000E+01  2.000E+04 -1.116E-01



1
              HEAD IN LAYER   1 AT END OF TIME STEP   1 IN STRESS PERIOD    6
  ---------------------------------------------------------------------------

          1      2      3      4      5      6      7      8      9     10
         11     12     13     14     15     16     17     18     19     20
         21     22     23     24     25     26     27     28     29     30
 .........................................................................
   1  ****** ****** ****** ****** ****** ****** ****** ****** ****** ******
      ****** ****** ****** ****** ****** ****** ****** ****** ****** ******
      ****** ****** ****** ****** ****** ****** ****** ****** ****** ******
   2  ****** ****** ****** ****** ****** ****** ****** ****** ****** ******
      ****** ****** ****** ****** ****** ****** ****** ****** ****** ******
      ****** ****** ****** ****** ****** ****** ****** ****** ****** ******
   3  ****** ****** ****** ****** ****** ****** ****** ****** ****** ******
      ****** ****** ****** ****** ****** ****** ****** ****** ****** ******
      ****** ****** ****** ****** ****** ****** ****** ****** ****** ******
   4  ****** ****** ****** ****** ****** ****** ****** ****** ****** ******
      ****** ****** ****** ****** ****** ****** ****** ****** ****** ******
      ****** ****** ****** ****** ****** ****** ****** ****** ****** ******
   5  ****** ****** ****** ****** ****** ****** ****** ****** ****** ******
      ****** ****** ****** ****** ****** ****** ****** ****** ****** ******
      ****** ****** ****** ****** ****** ****** ****** ****** ****** ******
   6  ****** ****** ****** ****** ****** ****** ****** ****** ****** ******
      ****** ****** ****** ****** ****** ****** ****** ****** ****** ******
      ****** ****** ****** ****** ****** ****** ****** ****** ****** ******
   7  ****** ****** ****** ****** ****** ****** ****** ****** ****** ******
      ****** ****** ****** ****** ****** ****** ****** ****** ****** ******
      ****** ****** ****** ****** ****** ****** ****** ****** ****** ******
   8  ****** ****** ****** ****** ****** ****** ****** ****** ****** ******
      ****** ****** ****** ****** ****** ****** ****** ****** ****** ******
      ****** ****** ****** ****** ****** ****** ****** ****** ****** ******
   9  ****** ****** ****** ****** ****** ****** ****** ****** ****** ******
      ****** ****** ****** ****** ****** ****** ****** ****** ****** ******
      ****** ****** ****** ****** ****** ****** ****** ****** ****** ******
  10  ****** ****** ****** ****** ****** ****** ****** ****** ****** ******
      ****** ****** ****** ****** ****** ****** ****** ****** ****** ******
      ****** ****** ****** ****** ****** ****** ****** ****** ****** ******
  11  ****** ****** ****** ****** ****** ****** ****** ****** ****** ******
      ****** ****** ****** ****** ****** ****** ****** ****** ****** ******
      ****** ****** ****** ****** ****** ****** ****** ****** ****** ******
  12  ****** ****** ****** ****** ****** ****** ****** ****** ****** ******
      ****** ****** ****** ****** ****** ****** ****** ****** ****** ******
      ****** ****** ****** ****** ****** ****** ****** ****** ****** ******
  13  ****** ****** ****** ****** ****** ****** ****** ****** ****** ******
      ****** ****** ****** ****** ****** ****** ****** ****** ****** ******
      ****** ****** ****** ****** ****** ****** ****** ****** ****** ******
  14  ****** ****** ****** ****** ****** ****** ****** ****** ****** ******
      ****** ****** ****** ****** ****** ****** ****** ****** ****** ******
      ****** ****** ****** ****** ****** ****** ****** ****** ****** ******
  15  ****** ****** ****** ****** ****** ****** ****** ****** ****** ******
      ****** ****** ****** ****** ****** ****** ****** ****** ****** ******
      ****** ****** ****** ****** ****** ****** ****** ****** ****** ******
  16  ****** ****** ****** ****** ****** ****** ****** ****** ****** ******
      ****** ****** ****** ****** ****** ****** ****** ****** ****** ******
      ****** ****** ****** ****** ****** ****** ****** ****** ****** ******
  17  ****** ****** ****** ****** ****** ****** ****** ****** ****** ******
      ****** ****** ****** ****** ****** ****** ****** ****** ****** ******
      ****** ****** ****** ****** ****** ****** ****** ****** ****** ******
  18  ****** ****** ****** ****** ****** ****** ****** ****** ****** ******
      ****** ****** ****** ****** ****** ****** ****** ****** ****** ******
      ****** ****** ****** ****** ****** ****** ****** ****** ****** ******
  19  ****** ****** ****** ****** ****** ****** ****** ****** ****** ******
      ****** ****** ****** ****** ****** ****** ****** ****** ****** ******
      ****** ****** ****** ****** ****** ****** ****** ****** ****** ******
  20  ****** ****** ****** ****** ****** ****** ****** ****** ****** ******
      ****** ****** ****** ****** ****** ****** ****** ****** ****** ******
      ****** ****** ****** ****** ****** ****** ****** ****** ****** ******
  21  ****** ****** ****** ****** ****** ****** ****** ****** ****** ******
      ****** ****** ****** ****** ****** ****** ****** ****** ****** ******
      ****** ****** ****** ****** ****** ****** ****** ****** ****** ******
  22  ****** ****** ****** ****** ****** ****** ****** ****** ****** ******
      ****** ****** ****** ****** ****** ****** ****** ****** ****** ******
      ****** ****** ****** ****** ****** ****** ****** ****** ****** ******
  23  ****** ****** ****** ****** ****** ****** ****** ****** ****** ******
      ****** ****** ****** ****** ****** ****** ****** ****** ****** ******
      ****** ****** ****** ****** ****** ****** ****** ****** ****** ******
  24  ****** ****** ****** ****** ****** ****** ****** ****** ****** ******
      ****** ****** ****** ****** ****** ****** ****** ****** ****** ******
      ****** ****** ****** ****** ****** ****** ****** ****** ****** ******
  25  ****** ****** ****** ****** ****** ****** ****** ****** ****** ******
      ****** ****** ****** ****** ****** ****** ****** ****** ****** ******
      ****** ****** ****** ****** ****** ****** ****** ****** ****** ******

 HEAD WILL BE SAVED ON UNIT   51 AT END OF TIME STEP    1, STRESS PERIOD    6
1
  VOLUMETRIC BUDGET FOR ENTIRE MODEL AT END OF TIME STEP    1, STRESS PERIOD   6
  ------------------------------------------------------------------------------

     CUMULATIVE VOLUMES      L**3       RATES FOR THIS TIME STEP      L**3/T
     ------------------                 ------------------------

           IN:                                      IN:
           ---                                      ---
             STORAGE =    31586484.2614               STORAGE =           0.0000
       CONSTANT HEAD =    13491868.0664         CONSTANT HEAD =       30122.6300
               WELLS =           0.0000                 WELLS =           0.0000
            RECHARGE =    15097200.0000              RECHARGE =       55200.0000
      STREAM LEAKAGE =     5217978.1227        STREAM LEAKAGE =       11211.8155

            TOTAL IN =    65393530.4504              TOTAL IN =       96534.4455

          OUT:                                     OUT:
          ----                                     ----
             STORAGE =      776793.9135               STORAGE =        8523.0714
       CONSTANT HEAD =           0.0000         CONSTANT HEAD =           0.0000
               WELLS =    18332738.0232                 WELLS =       33453.9015
            RECHARGE =           0.0000              RECHARGE =           0.0000
      STREAM LEAKAGE =    46284000.5852        STREAM LEAKAGE =       54557.4698

           TOTAL OUT =    65393532.5219             TOTAL OUT =       96534.4426

            IN - OUT =          -2.0715              IN - OUT =       2.8852E-03

 PERCENT DISCREPANCY =          -0.00     PERCENT DISCREPANCY =           0.00






         TIME SUMMARY AT END OF TIME STEP    1 IN STRESS PERIOD    6
                    SECONDS     MINUTES      HOURS       DAYS        YEARS
                    -----------------------------------------------------------
   TIME STEP LENGTH 7.86240E+06 1.31040E+05  2184.0      91.000     0.24914    
 STRESS PERIOD TIME 7.86240E+06 1.31040E+05  2184.0      91.000     0.24914    
         TOTAL TIME 4.73472E+07 7.89120E+05  13152.      548.00      1.5003    
1
1
                            STRESS PERIOD NO.    7, LENGTH =   91.00000    
                            -----------------------------------------------

                              NUMBER OF TIME STEPS =     1

                               MULTIPLIER FOR DELT =     1.500

                            INITIAL TIME STEP SIZE =   91.00000    

 WELL NO.  LAYER   ROW   COL   STRESS RATE         
 --------------------------------------------------
      1      1     22     27      -6314.    
      2      1     16     14     -0.1197E+05
      3      1     11      6      -1537.    
      4      1     17     21     -0.1363E+05

      4 WELLS

                 RECHARGE =   0.00000    

 REUSING STREAM SEGMENT DATA FROM LAST STRESS PERIOD
 
 SOLVING FOR HEAD 


     7 CALLS TO PCG ROUTINE FOR TIME STEP   1 IN STRESS PERIOD    7
    26 TOTAL ITERATIONS

 OUTPUT CONTROL FOR STRESS PERIOD    7   TIME STEP    1
    SAVE BUDGET
    SAVE HEAD FOR ALL LAYERS
    PRINT HEAD FOR ALL LAYERS
 UBDSV2 SAVING "STREAMFLOW OUT  " ON UNIT  50 AT TIME STEP  1, STRESS PERIOD   7



 STREAM LISTING     PERIOD      7   STEP        1

 LAYER ROW COL. STREAM  RCH.  FLOW INTO     FLOW TO   FLOW OUT OF   OVRLND.     DIRECT     STREAM       STREAM     STREAM     STREAM   STREAMBED  STREAMBED
                SEG.NO.  NO.  STRM. RCH.    AQUIFER    STRM. RCH.    RUNOFF     PRECIP       ET          HEAD       DEPTH      WIDTH   CONDCTNC.   GRADIENT

   1   13    1     1     1    1.0000E+05 -1.6556E+03   1.0166E+05  0.000E+00  0.000E+00  0.000E+00  4.84067E+01  1.454E-01  2.000E+01  2.000E+04 -8.278E-02
   1   13    2     1     2    1.0166E+05 -2.5544E+03   1.0421E+05  0.000E+00  0.000E+00  0.000E+00  4.79313E+01  1.472E-01  2.000E+01  2.000E+04 -1.277E-01
   1   14    3     1     3    1.0421E+05 -3.3198E+02   1.0454E+05  0.000E+00  0.000E+00  0.000E+00  4.74552E+01  1.484E-01  2.000E+01  2.000E+04 -1.660E-02
   1   15    4     1     4    1.0454E+05 -3.0024E+02   1.0484E+05  0.000E+00  0.000E+00  0.000E+00  4.69782E+01  1.487E-01  2.000E+01  2.000E+04 -1.501E-02
   1   16    5     1     5    1.0484E+05 -1.2853E+03   1.0613E+05  0.000E+00  0.000E+00  0.000E+00  4.65016E+01  1.494E-01  2.000E+01  2.000E+04 -6.426E-02
   1   16    6     1     6    1.0613E+05 -7.8061E+02   1.0691E+05  0.000E+00  0.000E+00  0.000E+00  4.60252E+01  1.502E-01  2.000E+01  2.000E+04 -3.903E-02
   1   16    7     1     7    1.0691E+05 -7.4508E+02   1.0765E+05  0.000E+00  0.000E+00  0.000E+00  4.55486E+01  1.509E-01  2.000E+01  2.000E+04 -3.725E-02
   1   16    8     1     8    1.0765E+05 -7.0983E+02   1.0836E+05  0.000E+00  0.000E+00  0.000E+00  4.50719E+01  1.515E-01  2.000E+01  2.000E+04 -3.549E-02
   1   16    9     1     9    1.0836E+05 -6.4561E+02   1.0901E+05  0.000E+00  0.000E+00  0.000E+00  4.45952E+01  1.521E-01  2.000E+01  2.000E+04 -3.228E-02
   1   16   10     1    10    1.0901E+05 -5.2815E+02   1.0954E+05  0.000E+00  0.000E+00  0.000E+00  4.41185E+01  1.526E-01  2.000E+01  2.000E+04 -2.641E-02
   1   16   11     1    11    1.0954E+05 -2.8514E+02   1.0982E+05  0.000E+00  0.000E+00  0.000E+00  4.36415E+01  1.529E-01  2.000E+01  2.000E+04 -1.426E-02
   1   16   12     1    12    1.0982E+05  1.2662E+03   1.0856E+05  0.000E+00  0.000E+00  0.000E+00  4.31639E+01  1.525E-01  2.000E+01  2.000E+04  6.331E-02
   1   15   13     1    13    1.0856E+05  2.2547E+03   1.0630E+05  0.000E+00  0.000E+00  0.000E+00  4.26851E+01  1.510E-01  2.000E+01  2.000E+04  1.127E-01
   1   14   14     1    14    1.0630E+05  8.6787E+02   1.0543E+05  0.000E+00  0.000E+00  0.000E+00  4.22065E+01  1.497E-01  2.000E+01  2.000E+04  4.339E-02
   1   13   15     1    15    1.0543E+05 -9.1446E+02   1.0635E+05  0.000E+00  0.000E+00  0.000E+00  4.17293E+01  1.497E-01  2.000E+01  2.000E+04 -4.572E-02
   1   12   16     1    16    1.0635E+05 -2.3945E+03   1.0874E+05  0.000E+00  0.000E+00  0.000E+00  4.12534E+01  1.511E-01  2.000E+01  2.000E+04 -1.197E-01
   1   12   17     1    17    1.0874E+05 -1.2637E+03   1.1001E+05  0.000E+00  0.000E+00  0.000E+00  4.07776E+01  1.526E-01  2.000E+01  2.000E+04 -6.318E-02
   1   12   18     1    18    1.1001E+05 -1.1558E+03   1.1116E+05  0.000E+00  0.000E+00  0.000E+00  4.03014E+01  1.537E-01  2.000E+01  2.000E+04 -5.779E-02
   1   12   19     1    19    1.1116E+05 -1.8029E+03   1.1296E+05  0.000E+00  0.000E+00  0.000E+00  3.98253E+01  1.549E-01  2.000E+01  2.000E+04 -9.015E-02
   1   13   20     1    20    1.1296E+05 -2.3232E+02   1.1320E+05  0.000E+00  0.000E+00  0.000E+00  3.93489E+01  1.557E-01  2.000E+01  2.000E+04 -1.162E-02
   1   14   21     1    21    1.1320E+05  1.8460E+03   1.1135E+05  0.000E+00  0.000E+00  0.000E+00  3.88710E+01  1.551E-01  2.000E+01  2.000E+04  9.230E-02
   1   14   22     1    22    1.1135E+05  5.5416E+03   1.0581E+05  0.000E+00  0.000E+00  0.000E+00  3.83906E+01  1.520E-01  2.000E+01  2.000E+04  2.771E-01
   1    9   30     2     1    5.0000E+04 -5.2367E+02   5.0524E+04  0.000E+00  0.000E+00  0.000E+00  4.02412E+01  1.162E-01  2.000E+01  2.000E+04 -2.618E-02
   1    9   29     2     2    5.0524E+04 -8.2598E+02   5.1350E+04  0.000E+00  0.000E+00  0.000E+00  3.99922E+01  1.172E-01  2.000E+01  2.000E+04 -4.130E-02
   1    9   28     2     3    5.1350E+04 -1.0873E+03   5.2437E+04  0.000E+00  0.000E+00  0.000E+00  3.97435E+01  1.185E-01  2.000E+01  2.000E+04 -5.436E-02
   1    9   27     2     4    5.2437E+04 -2.3368E+03   5.4774E+04  0.000E+00  0.000E+00  0.000E+00  3.94958E+01  1.208E-01  2.000E+01  2.000E+04 -1.168E-01
   1   10   26     2     5    5.4774E+04 -1.5190E+03   5.6293E+04  0.000E+00  0.000E+00  0.000E+00  3.92484E+01  1.234E-01  2.000E+01  2.000E+04 -7.595E-02
   1   11   25     2     6    5.6293E+04 -1.3199E+03   5.7613E+04  0.000E+00  0.000E+00  0.000E+00  3.90003E+01  1.253E-01  2.000E+01  2.000E+04 -6.599E-02
   1   12   24     2     7    5.7613E+04 -1.4021E+03   5.9015E+04  0.000E+00  0.000E+00  0.000E+00  3.87521E+01  1.271E-01  2.000E+01  2.000E+04 -7.010E-02
   1   13   23     2     8    5.9015E+04 -1.9228E+02   5.9207E+04  0.000E+00  0.000E+00  0.000E+00  3.85031E+01  1.281E-01  2.000E+01  2.000E+04 -9.614E-03
   1   14   22     2     9    5.9207E+04  2.7579E+03   5.6449E+04  0.000E+00  0.000E+00  0.000E+00  3.82514E+01  1.264E-01  2.000E+01  2.000E+04  1.379E-01
   1   14   22     3     1    1.6226E+05 -7.9033E+03   1.7016E+05  0.000E+00  0.000E+00  0.000E+00  3.77184E+01  1.628E-01  2.000E+01  2.000E+04 -3.952E-01
   1   15   23     3     2    1.7016E+05  2.6238E+02   1.6990E+05  0.000E+00  0.000E+00  0.000E+00  3.68317E+01  1.651E-01  2.000E+01  2.000E+04  1.312E-02
   1   15   24     3     3    1.6990E+05 -2.3024E+01   1.6992E+05  0.000E+00  0.000E+00  0.000E+00  3.59428E+01  1.650E-01  2.000E+01  2.000E+04 -1.151E-03
   1   15   25     3     4    1.6992E+05 -8.5994E+01   1.7001E+05  0.000E+00  0.000E+00  0.000E+00  3.50539E+01  1.650E-01  2.000E+01  2.000E+04 -4.300E-03
   1   15   26     3     5    1.7001E+05 -1.8648E+02   1.7019E+05  0.000E+00  0.000E+00  0.000E+00  3.41651E+01  1.651E-01  2.000E+01  2.000E+04 -9.324E-03
   1   16   27     3     6    1.7019E+05 -1.4158E+02   1.7034E+05  0.000E+00  0.000E+00  0.000E+00  3.32763E+01  1.652E-01  2.000E+01  2.000E+04 -7.079E-03
   1   17   28     3     7    1.7034E+05 -5.0785E+02   1.7084E+05  0.000E+00  0.000E+00  0.000E+00  3.23876E+01  1.654E-01  2.000E+01  2.000E+04 -2.539E-02
   1   18   29     3     8    1.7084E+05 -5.9224E+02   1.7144E+05  0.000E+00  0.000E+00  0.000E+00  3.14990E+01  1.657E-01  2.000E+01  2.000E+04 -2.961E-02
   1   18   30     3     9    1.7144E+05 -1.6927E+03   1.7313E+05  0.000E+00  0.000E+00  0.000E+00  3.06108E+01  1.664E-01  2.000E+01  2.000E+04 -8.463E-02



1
              HEAD IN LAYER   1 AT END OF TIME STEP   1 IN STRESS PERIOD    7
  ---------------------------------------------------------------------------

          1      2      3      4      5      6      7      8      9     10
         11     12     13     14     15     16     17     18     19     20
         21     22     23     24     25     26     27     28     29     30
 .........................................................................
   1  ****** ****** ****** ****** ****** ****** ****** ****** ****** ******
      ****** ****** ****** ****** ****** ****** ****** ****** ****** ******
      ****** ****** ****** ****** ****** ****** ****** ****** ****** ******
   2  ****** ****** ****** ****** ****** ****** ****** ****** ****** ******
      ****** ****** ****** ****** ****** ****** ****** ****** ****** ******
      ****** ****** ****** ****** ****** ****** ****** ****** ****** ******
   3  ****** ****** ****** ****** ****** ****** ****** ****** ****** ******
      ****** ****** ****** ****** ****** ****** ****** ****** ****** ******
      ****** ****** ****** ****** ****** ****** ****** ****** ****** ******
   4  ****** ****** ****** ****** ****** ****** ****** ****** ****** ******
      ****** ****** ****** ****** ****** ****** ****** ****** ****** ******
      ****** ****** ****** ****** ****** ****** ****** ****** ****** ******
   5  ****** ****** ****** ****** ****** ****** ****** ****** ****** ******
      ****** ****** ****** ****** ****** ****** ****** ****** ****** ******
      ****** ****** ****** ****** ****** ****** ****** ****** ****** ******
   6  ****** ****** ****** ****** ****** ****** ****** ****** ****** ******
      ****** ****** ****** ****** ****** ****** ****** ****** ****** ******
      ****** ****** ****** ****** ****** ****** ****** ****** ****** ******
   7  ****** ****** ****** ****** ****** ****** ****** ****** ****** ******
      ****** ****** ****** ****** ****** ****** ****** ****** ****** ******
      ****** ****** ****** ****** ****** ****** ****** ****** ****** ******
   8  ****** ****** ****** ****** ****** ****** ****** ****** ****** ******
      ****** ****** ****** ****** ****** ****** ****** ****** ****** ******
      ****** ****** ****** ****** ****** ****** ****** ****** ****** ******
   9  ****** ****** ****** ****** ****** ****** ****** ****** ****** ******
      ****** ****** ****** ****** ****** ****** ****** ****** ****** ******
      ****** ****** ****** ****** ****** ****** ****** ****** ****** ******
  10  ****** ****** ****** ****** ****** ****** ****** ****** ****** ******
      ****** ****** ****** ****** ****** ****** ****** ****** ****** ******
      ****** ****** ****** ****** ****** ****** ****** ****** ****** ******
  11  ****** ****** ****** ****** ****** ****** ****** ****** ****** ******
      ****** ****** ****** ****** ****** ****** ****** ****** ****** ******
      ****** ****** ****** ****** ****** ****** ****** ****** ****** ******
  12  ****** ****** ****** ****** ****** ****** ****** ****** ****** ******
      ****** ****** ****** ****** ****** ****** ****** ****** ****** ******
      ****** ****** ****** ****** ****** ****** ****** ****** ****** ******
  13  ****** ****** ****** ****** ****** ****** ****** ****** ****** ******
      ****** ****** ****** ****** ****** ****** ****** ****** ****** ******
      ****** ****** ****** ****** ****** ****** ****** ****** ****** ******
  14  ****** ****** ****** ****** ****** ****** ****** ****** ****** ******
      ****** ****** ****** ****** ****** ****** ****** ****** ****** ******
      ****** ****** ****** ****** ****** ****** ****** ****** ****** ******
  15  ****** ****** ****** ****** ****** ****** ****** ****** ****** ******
      ****** ****** ****** ****** ****** ****** ****** ****** ****** ******
      ****** ****** ****** ****** ****** ****** ****** ****** ****** ******
  16  ****** ****** ****** ****** ****** ****** ****** ****** ****** ******
      ****** ****** ****** ****** ****** ****** ****** ****** ****** ******
      ****** ****** ****** ****** ****** ****** ****** ****** ****** ******
  17  ****** ****** ****** ****** ****** ****** ****** ****** ****** ******
      ****** ****** ****** ****** ****** ****** ****** ****** ****** ******
      ****** ****** ****** ****** ****** ****** ****** ****** ****** ******
  18  ****** ****** ****** ****** ****** ****** ****** ****** ****** ******
      ****** ****** ****** ****** ****** ****** ****** ****** ****** ******
      ****** ****** ****** ****** ****** ****** ****** ****** ****** ******
  19  ****** ****** ****** ****** ****** ****** ****** ****** ****** ******
      ****** ****** ****** ****** ****** ****** ****** ****** ****** ******
      ****** ****** ****** ****** ****** ****** ****** ****** ****** ******
  20  ****** ****** ****** ****** ****** ****** ****** ****** ****** ******
      ****** ****** ****** ****** ****** ****** ****** ****** ****** ******
      ****** ****** ****** ****** ****** ****** ****** ****** ****** ******
  21  ****** ****** ****** ****** ****** ****** ****** ****** ****** ******
      ****** ****** ****** ****** ****** ****** ****** ****** ****** ******
      ****** ****** ****** ****** ****** ****** ****** ****** ****** ******
  22  ****** ****** ****** ****** ****** ****** ****** ****** ****** ******
      ****** ****** ****** ****** ****** ****** ****** ****** ****** ******
      ****** ****** ****** ****** ****** ****** ****** ****** ****** ******
  23  ****** ****** ****** ****** ****** ****** ****** ****** ****** ******
      ****** ****** ****** ****** ****** ****** ****** ****** ****** ******
      ****** ****** ****** ****** ****** ****** ****** ****** ****** ******
  24  ****** ****** ****** ****** ****** ****** ****** ****** ****** ******
      ****** ****** ****** ****** ****** ****** ****** ****** ****** ******
      ****** ****** ****** ****** ****** ****** ****** ****** ****** ******
  25  ****** ****** ****** ****** ****** ****** ****** ****** ****** ******
      ****** ****** ****** ****** ****** ****** ****** ****** ****** ******
      ****** ****** ****** ****** ****** ****** ****** ****** ****** ******

 HEAD WILL BE SAVED ON UNIT   51 AT END OF TIME STEP    1, STRESS PERIOD    7
1
  VOLUMETRIC BUDGET FOR ENTIRE MODEL AT END OF TIME STEP    1, STRESS PERIOD   7
  ------------------------------------------------------------------------------

     CUMULATIVE VOLUMES      L**3       RATES FOR THIS TIME STEP      L**3/T
     ------------------                 ------------------------

           IN:                                      IN:
           ---                                      ---
             STORAGE =    33634974.2806               STORAGE =       22510.8793
       CONSTANT HEAD =    16592424.4698         CONSTANT HEAD =       34072.0484
               WELLS =           0.0000                 WELLS =           0.0000
            RECHARGE =    15097200.0000              RECHARGE =           0.0000
      STREAM LEAKAGE =     6564473.3718        STREAM LEAKAGE =       14796.6511

            TOTAL IN =    71889072.1223              TOTAL IN =       71379.5788

          OUT:                                     OUT:
          ----                                     ----
             STORAGE =      776793.9135               STORAGE =           0.0000
       CONSTANT HEAD =           0.0000         CONSTANT HEAD =           0.0000
               WELLS =    21377043.0598                 WELLS =       33453.9015
            RECHARGE =           0.0000              RECHARGE =           0.0000
      STREAM LEAKAGE =    49735237.7320        STREAM LEAKAGE =       37925.6829

           TOTAL OUT =    71889074.7053             TOTAL OUT =       71379.5844

            IN - OUT =          -2.5831              IN - OUT =      -5.6224E-03

 PERCENT DISCREPANCY =          -0.00     PERCENT DISCREPANCY =          -0.00






         TIME SUMMARY AT END OF TIME STEP    1 IN STRESS PERIOD    7
                    SECONDS     MINUTES      HOURS       DAYS        YEARS
                    -----------------------------------------------------------
   TIME STEP LENGTH 7.86240E+06 1.31040E+05  2184.0      91.000     0.24914    
 STRESS PERIOD TIME 7.86240E+06 1.31040E+05  2184.0      91.000     0.24914    
         TOTAL TIME 5.52096E+07 9.20160E+05  15336.      639.00      1.7495    
1
1
                            STRESS PERIOD NO.    8, LENGTH =   91.00000    
                            -----------------------------------------------

                              NUMBER OF TIME STEPS =     1

                               MULTIPLIER FOR DELT =     1.500

                            INITIAL TIME STEP SIZE =   91.00000    

 WELL NO.  LAYER   ROW   COL   STRESS RATE         
 --------------------------------------------------
      1      1     22     27      -6314.    
      2      1     16     14     -0.1197E+05
      3      1     11      6      -1537.    
      4      1     17     21     -0.1363E+05

      4 WELLS

                 RECHARGE =  1.000000E-03

 REUSING STREAM SEGMENT DATA FROM LAST STRESS PERIOD
 
 SOLVING FOR HEAD 


     6 CALLS TO PCG ROUTINE FOR TIME STEP   1 IN STRESS PERIOD    8
    22 TOTAL ITERATIONS

 OUTPUT CONTROL FOR STRESS PERIOD    8   TIME STEP    1
    SAVE BUDGET
    SAVE HEAD FOR ALL LAYERS
    PRINT HEAD FOR ALL LAYERS
 UBDSV2 SAVING "STREAMFLOW OUT  " ON UNIT  50 AT TIME STEP  1, STRESS PERIOD   8



 STREAM LISTING     PERIOD      8   STEP        1

 LAYER ROW COL. STREAM  RCH.  FLOW INTO     FLOW TO   FLOW OUT OF   OVRLND.     DIRECT     STREAM       STREAM     STREAM     STREAM   STREAMBED  STREAMBED
                SEG.NO.  NO.  STRM. RCH.    AQUIFER    STRM. RCH.    RUNOFF     PRECIP       ET          HEAD       DEPTH      WIDTH   CONDCTNC.   GRADIENT

   1   13    1     1     1    1.0000E+05 -1.7290E+03   1.0173E+05  0.000E+00  0.000E+00  0.000E+00  4.84068E+01  1.454E-01  2.000E+01  2.000E+04 -8.645E-02
   1   13    2     1     2    1.0173E+05 -2.6269E+03   1.0436E+05  0.000E+00  0.000E+00  0.000E+00  4.79314E+01  1.473E-01  2.000E+01  2.000E+04 -1.313E-01
   1   14    3     1     3    1.0436E+05 -3.9513E+02   1.0475E+05  0.000E+00  0.000E+00  0.000E+00  4.74554E+01  1.486E-01  2.000E+01  2.000E+04 -1.976E-02
   1   15    4     1     4    1.0475E+05 -3.6788E+02   1.0512E+05  0.000E+00  0.000E+00  0.000E+00  4.69784E+01  1.489E-01  2.000E+01  2.000E+04 -1.839E-02
   1   16    5     1     5    1.0512E+05 -1.4559E+03   1.0657E+05  0.000E+00  0.000E+00  0.000E+00  4.65019E+01  1.497E-01  2.000E+01  2.000E+04 -7.280E-02
   1   16    6     1     6    1.0657E+05 -8.8530E+02   1.0746E+05  0.000E+00  0.000E+00  0.000E+00  4.60257E+01  1.507E-01  2.000E+01  2.000E+04 -4.427E-02
   1   16    7     1     7    1.0746E+05 -8.4467E+02   1.0830E+05  0.000E+00  0.000E+00  0.000E+00  4.55491E+01  1.514E-01  2.000E+01  2.000E+04 -4.223E-02
   1   16    8     1     8    1.0830E+05 -8.0850E+02   1.0911E+05  0.000E+00  0.000E+00  0.000E+00  4.50725E+01  1.521E-01  2.000E+01  2.000E+04 -4.042E-02
   1   16    9     1     9    1.0911E+05 -7.4536E+02   1.0986E+05  0.000E+00  0.000E+00  0.000E+00  4.45959E+01  1.527E-01  2.000E+01  2.000E+04 -3.727E-02
   1   16   10     1    10    1.0986E+05 -6.3028E+02   1.1049E+05  0.000E+00  0.000E+00  0.000E+00  4.41192E+01  1.533E-01  2.000E+01  2.000E+04 -3.151E-02
   1   16   11     1    11    1.1049E+05 -3.9000E+02   1.1088E+05  0.000E+00  0.000E+00  0.000E+00  4.36424E+01  1.537E-01  2.000E+01  2.000E+04 -1.950E-02
   1   16   12     1    12    1.1088E+05  1.1108E+03   1.0977E+05  0.000E+00  0.000E+00  0.000E+00  4.31648E+01  1.534E-01  2.000E+01  2.000E+04  5.554E-02
   1   15   13     1    13    1.0977E+05  2.0909E+03   1.0768E+05  0.000E+00  0.000E+00  0.000E+00  4.26862E+01  1.521E-01  2.000E+01  2.000E+04  1.045E-01
   1   14   14     1    14    1.0768E+05  7.0997E+02   1.0697E+05  0.000E+00  0.000E+00  0.000E+00  4.22077E+01  1.509E-01  2.000E+01  2.000E+04  3.550E-02
   1   13   15     1    15    1.0697E+05 -1.0609E+03   1.0803E+05  0.000E+00  0.000E+00  0.000E+00  4.17306E+01  1.511E-01  2.000E+01  2.000E+04 -5.304E-02
   1   12   16     1    16    1.0803E+05 -2.5053E+03   1.1053E+05  0.000E+00  0.000E+00  0.000E+00  4.12548E+01  1.526E-01  2.000E+01  2.000E+04 -1.253E-01
   1   12   17     1    17    1.1053E+05 -1.3740E+03   1.1191E+05  0.000E+00  0.000E+00  0.000E+00  4.07792E+01  1.542E-01  2.000E+01  2.000E+04 -6.870E-02
   1   12   18     1    18    1.1191E+05 -1.2728E+03   1.1318E+05  0.000E+00  0.000E+00  0.000E+00  4.03030E+01  1.553E-01  2.000E+01  2.000E+04 -6.364E-02
   1   12   19     1    19    1.1318E+05 -1.9515E+03   1.1513E+05  0.000E+00  0.000E+00  0.000E+00  3.98271E+01  1.566E-01  2.000E+01  2.000E+04 -9.757E-02
   1   13   20     1    20    1.1513E+05 -4.0706E+02   1.1554E+05  0.000E+00  0.000E+00  0.000E+00  3.93508E+01  1.576E-01  2.000E+01  2.000E+04 -2.035E-02
   1   14   21     1    21    1.1554E+05  1.6950E+03   1.1384E+05  0.000E+00  0.000E+00  0.000E+00  3.88730E+01  1.571E-01  2.000E+01  2.000E+04  8.475E-02
   1   14   22     1    22    1.1384E+05  5.4960E+03   1.0835E+05  0.000E+00  0.000E+00  0.000E+00  3.83927E+01  1.541E-01  2.000E+01  2.000E+04  2.748E-01
   1    9   30     2     1    5.0000E+04 -6.8751E+02   5.0688E+04  0.000E+00  0.000E+00  0.000E+00  4.02413E+01  1.163E-01  2.000E+01  2.000E+04 -3.438E-02
   1    9   29     2     2    5.0688E+04 -9.8706E+02   5.1675E+04  0.000E+00  0.000E+00  0.000E+00  3.99925E+01  1.175E-01  2.000E+01  2.000E+04 -4.935E-02
   1    9   28     2     3    5.1675E+04 -1.2429E+03   5.2917E+04  0.000E+00  0.000E+00  0.000E+00  3.97440E+01  1.190E-01  2.000E+01  2.000E+04 -6.214E-02
   1    9   27     2     4    5.2917E+04 -2.5162E+03   5.5434E+04  0.000E+00  0.000E+00  0.000E+00  3.94966E+01  1.216E-01  2.000E+01  2.000E+04 -1.258E-01
   1   10   26     2     5    5.5434E+04 -1.7251E+03   5.7159E+04  0.000E+00  0.000E+00  0.000E+00  3.92494E+01  1.244E-01  2.000E+01  2.000E+04 -8.626E-02
   1   11   25     2     6    5.7159E+04 -1.5244E+03   5.8683E+04  0.000E+00  0.000E+00  0.000E+00  3.90016E+01  1.266E-01  2.000E+01  2.000E+04 -7.622E-02
   1   12   24     2     7    5.8683E+04 -1.5877E+03   6.0271E+04  0.000E+00  0.000E+00  0.000E+00  3.87536E+01  1.286E-01  2.000E+01  2.000E+04 -7.938E-02
   1   13   23     2     8    6.0271E+04 -2.6665E+02   6.0537E+04  0.000E+00  0.000E+00  0.000E+00  3.85048E+01  1.298E-01  2.000E+01  2.000E+04 -1.333E-02
   1   14   22     2     9    6.0537E+04  2.7058E+03   5.7832E+04  0.000E+00  0.000E+00  0.000E+00  3.82532E+01  1.282E-01  2.000E+01  2.000E+04  1.353E-01
   1   14   22     3     1    1.6618E+05 -7.9447E+03   1.7412E+05  0.000E+00  0.000E+00  0.000E+00  3.77207E+01  1.651E-01  2.000E+01  2.000E+04 -3.972E-01
   1   15   23     3     2    1.7412E+05  2.0027E+02   1.7392E+05  0.000E+00  0.000E+00  0.000E+00  3.68340E+01  1.674E-01  2.000E+01  2.000E+04  1.001E-02
   1   15   24     3     3    1.7392E+05 -8.2248E+01   1.7401E+05  0.000E+00  0.000E+00  0.000E+00  3.59451E+01  1.673E-01  2.000E+01  2.000E+04 -4.112E-03
   1   15   25     3     4    1.7401E+05 -1.4706E+02   1.7415E+05  0.000E+00  0.000E+00  0.000E+00  3.50563E+01  1.674E-01  2.000E+01  2.000E+04 -7.353E-03
   1   15   26     3     5    1.7415E+05 -2.6037E+02   1.7441E+05  0.000E+00  0.000E+00  0.000E+00  3.41675E+01  1.675E-01  2.000E+01  2.000E+04 -1.302E-02
   1   16   27     3     6    1.7441E+05 -2.2198E+02   1.7464E+05  0.000E+00  0.000E+00  0.000E+00  3.32788E+01  1.677E-01  2.000E+01  2.000E+04 -1.110E-02
   1   17   28     3     7    1.7464E+05 -7.0671E+02   1.7534E+05  0.000E+00  0.000E+00  0.000E+00  3.23901E+01  1.679E-01  2.000E+01  2.000E+04 -3.534E-02
   1   18   29     3     8    1.7534E+05 -7.4729E+02   1.7609E+05  0.000E+00  0.000E+00  0.000E+00  3.15017E+01  1.683E-01  2.000E+01  2.000E+04 -3.736E-02
   1   18   30     3     9    1.7609E+05 -1.8330E+03   1.7792E+05  0.000E+00  0.000E+00  0.000E+00  3.06135E+01  1.691E-01  2.000E+01  2.000E+04 -9.165E-02



1
              HEAD IN LAYER   1 AT END OF TIME STEP   1 IN STRESS PERIOD    8
  ---------------------------------------------------------------------------

          1      2      3      4      5      6      7      8      9     10
         11     12     13     14     15     16     17     18     19     20
         21     22     23     24     25     26     27     28     29     30
 .........................................................................
   1  ****** ****** ****** ****** ****** ****** ****** ****** ****** ******
      ****** ****** ****** ****** ****** ****** ****** ****** ****** ******
      ****** ****** ****** ****** ****** ****** ****** ****** ****** ******
   2  ****** ****** ****** ****** ****** ****** ****** ****** ****** ******
      ****** ****** ****** ****** ****** ****** ****** ****** ****** ******
      ****** ****** ****** ****** ****** ****** ****** ****** ****** ******
   3  ****** ****** ****** ****** ****** ****** ****** ****** ****** ******
      ****** ****** ****** ****** ****** ****** ****** ****** ****** ******
      ****** ****** ****** ****** ****** ****** ****** ****** ****** ******
   4  ****** ****** ****** ****** ****** ****** ****** ****** ****** ******
      ****** ****** ****** ****** ****** ****** ****** ****** ****** ******
      ****** ****** ****** ****** ****** ****** ****** ****** ****** ******
   5  ****** ****** ****** ****** ****** ****** ****** ****** ****** ******
      ****** ****** ****** ****** ****** ****** ****** ****** ****** ******
      ****** ****** ****** ****** ****** ****** ****** ****** ****** ******
   6  ****** ****** ****** ****** ****** ****** ****** ****** ****** ******
      ****** ****** ****** ****** ****** ****** ****** ****** ****** ******
      ****** ****** ****** ****** ****** ****** ****** ****** ****** ******
   7  ****** ****** ****** ****** ****** ****** ****** ****** ****** ******
      ****** ****** ****** ****** ****** ****** ****** ****** ****** ******
      ****** ****** ****** ****** ****** ****** ****** ****** ****** ******
   8  ****** ****** ****** ****** ****** ****** ****** ****** ****** ******
      ****** ****** ****** ****** ****** ****** ****** ****** ****** ******
      ****** ****** ****** ****** ****** ****** ****** ****** ****** ******
   9  ****** ****** ****** ****** ****** ****** ****** ****** ****** ******
      ****** ****** ****** ****** ****** ****** ****** ****** ****** ******
      ****** ****** ****** ****** ****** ****** ****** ****** ****** ******
  10  ****** ****** ****** ****** ****** ****** ****** ****** ****** ******
      ****** ****** ****** ****** ****** ****** ****** ****** ****** ******
      ****** ****** ****** ****** ****** ****** ****** ****** ****** ******
  11  ****** ****** ****** ****** ****** ****** ****** ****** ****** ******
      ****** ****** ****** ****** ****** ****** ****** ****** ****** ******
      ****** ****** ****** ****** ****** ****** ****** ****** ****** ******
  12  ****** ****** ****** ****** ****** ****** ****** ****** ****** ******
      ****** ****** ****** ****** ****** ****** ****** ****** ****** ******
      ****** ****** ****** ****** ****** ****** ****** ****** ****** ******
  13  ****** ****** ****** ****** ****** ****** ****** ****** ****** ******
      ****** ****** ****** ****** ****** ****** ****** ****** ****** ******
      ****** ****** ****** ****** ****** ****** ****** ****** ****** ******
  14  ****** ****** ****** ****** ****** ****** ****** ****** ****** ******
      ****** ****** ****** ****** ****** ****** ****** ****** ****** ******
      ****** ****** ****** ****** ****** ****** ****** ****** ****** ******
  15  ****** ****** ****** ****** ****** ****** ****** ****** ****** ******
      ****** ****** ****** ****** ****** ****** ****** ****** ****** ******
      ****** ****** ****** ****** ****** ****** ****** ****** ****** ******
  16  ****** ****** ****** ****** ****** ****** ****** ****** ****** ******
      ****** ****** ****** ****** ****** ****** ****** ****** ****** ******
      ****** ****** ****** ****** ****** ****** ****** ****** ****** ******
  17  ****** ****** ****** ****** ****** ****** ****** ****** ****** ******
      ****** ****** ****** ****** ****** ****** ****** ****** ****** ******
      ****** ****** ****** ****** ****** ****** ****** ****** ****** ******
  18  ****** ****** ****** ****** ****** ****** ****** ****** ****** ******
      ****** ****** ****** ****** ****** ****** ****** ****** ****** ******
      ****** ****** ****** ****** ****** ****** ****** ****** ****** ******
  19  ****** ****** ****** ****** ****** ****** ****** ****** ****** ******
      ****** ****** ****** ****** ****** ****** ****** ****** ****** ******
      ****** ****** ****** ****** ****** ****** ****** ****** ****** ******
  20  ****** ****** ****** ****** ****** ****** ****** ****** ****** ******
      ****** ****** ****** ****** ****** ****** ****** ****** ****** ******
      ****** ****** ****** ****** ****** ****** ****** ****** ****** ******
  21  ****** ****** ****** ****** ****** ****** ****** ****** ****** ******
      ****** ****** ****** ****** ****** ****** ****** ****** ****** ******
      ****** ****** ****** ****** ****** ****** ****** ****** ****** ******
  22  ****** ****** ****** ****** ****** ****** ****** ****** ****** ******
      ****** ****** ****** ****** ****** ****** ****** ****** ****** ******
      ****** ****** ****** ****** ****** ****** ****** ****** ****** ******
  23  ****** ****** ****** ****** ****** ****** ****** ****** ****** ******
      ****** ****** ****** ****** ****** ****** ****** ****** ****** ******
      ****** ****** ****** ****** ****** ****** ****** ****** ****** ******
  24  ****** ****** ****** ****** ****** ****** ****** ****** ****** ******
      ****** ****** ****** ****** ****** ****** ****** ****** ****** ******
      ****** ****** ****** ****** ****** ****** ****** ****** ****** ******
  25  ****** ****** ****** ****** ****** ****** ****** ****** ****** ******
      ****** ****** ****** ****** ****** ****** ****** ****** ****** ******
      ****** ****** ****** ****** ****** ****** ****** ****** ****** ******

 HEAD WILL BE SAVED ON UNIT   51 AT END OF TIME STEP    1, STRESS PERIOD    8
1
  VOLUMETRIC BUDGET FOR ENTIRE MODEL AT END OF TIME STEP    1, STRESS PERIOD   8
  ------------------------------------------------------------------------------

     CUMULATIVE VOLUMES      L**3       RATES FOR THIS TIME STEP      L**3/T
     ------------------                 ------------------------

           IN:                                      IN:
           ---                                      ---
             STORAGE =    33766004.5154               STORAGE =        1439.8927
       CONSTANT HEAD =    19667282.8850         CONSTANT HEAD =       33789.6529
               WELLS =           0.0000                 WELLS =           0.0000
            RECHARGE =    17608800.0000              RECHARGE =       27600.0000
      STREAM LEAKAGE =     7839265.9565        STREAM LEAKAGE =       14008.7097

            TOTAL IN =    78881353.3569              TOTAL IN =       76838.2553

          OUT:                                     OUT:
          ----                                     ----
             STORAGE =      909014.7742               STORAGE =        1452.9765
       CONSTANT HEAD =           0.0000         CONSTANT HEAD =           0.0000
               WELLS =    24421348.0965                 WELLS =       33453.9015
            RECHARGE =           0.0000              RECHARGE =           0.0000
      STREAM LEAKAGE =    53550992.3088        STREAM LEAKAGE =       41931.3690

           TOTAL OUT =    78881355.1796             TOTAL OUT =       76838.2470

            IN - OUT =          -1.8227              IN - OUT =       8.3560E-03

 PERCENT DISCREPANCY =          -0.00     PERCENT DISCREPANCY =           0.00






         TIME SUMMARY AT END OF TIME STEP    1 IN STRESS PERIOD    8
                    SECONDS     MINUTES      HOURS       DAYS        YEARS
                    -----------------------------------------------------------
   TIME STEP LENGTH 7.86240E+06 1.31040E+05  2184.0      91.000     0.24914    
 STRESS PERIOD TIME 7.86240E+06 1.31040E+05  2184.0      91.000     0.24914    
         TOTAL TIME 6.30720E+07 1.05120E+06  17520.      730.00      1.9986    
1
1
                            STRESS PERIOD NO.    9, LENGTH =   92.00000    
                            -----------------------------------------------

                              NUMBER OF TIME STEPS =     1

                               MULTIPLIER FOR DELT =     1.500

                            INITIAL TIME STEP SIZE =   92.00000    

 WELL NO.  LAYER   ROW   COL   STRESS RATE         
 --------------------------------------------------
      1      1     22     27      -6314.    
      2      1     16     14     -0.1197E+05
      3      1     11      6      -1537.    
      4      1     17     21     -0.1363E+05

      4 WELLS

                 RECHARGE =  5.000000E-04

 REUSING STREAM SEGMENT DATA FROM LAST STRESS PERIOD
 
 SOLVING FOR HEAD 


     6 CALLS TO PCG ROUTINE FOR TIME STEP   1 IN STRESS PERIOD    9
    23 TOTAL ITERATIONS

 OUTPUT CONTROL FOR STRESS PERIOD    9   TIME STEP    1
    SAVE BUDGET
    SAVE HEAD FOR ALL LAYERS
    PRINT HEAD FOR ALL LAYERS
 UBDSV2 SAVING "STREAMFLOW OUT  " ON UNIT  50 AT TIME STEP  1, STRESS PERIOD   9



 STREAM LISTING     PERIOD      9   STEP        1

 LAYER ROW COL. STREAM  RCH.  FLOW INTO     FLOW TO   FLOW OUT OF   OVRLND.     DIRECT     STREAM       STREAM     STREAM     STREAM   STREAMBED  STREAMBED
                SEG.NO.  NO.  STRM. RCH.    AQUIFER    STRM. RCH.    RUNOFF     PRECIP       ET          HEAD       DEPTH      WIDTH   CONDCTNC.   GRADIENT

   1   13    1     1     1    1.0000E+05 -1.5148E+03   1.0151E+05  0.000E+00  0.000E+00  0.000E+00  4.84067E+01  1.453E-01  2.000E+01  2.000E+04 -7.574E-02
   1   13    2     1     2    1.0151E+05 -2.3840E+03   1.0390E+05  0.000E+00  0.000E+00  0.000E+00  4.79311E+01  1.470E-01  2.000E+01  2.000E+04 -1.192E-01
   1   14    3     1     3    1.0390E+05 -3.2385E+02   1.0422E+05  0.000E+00  0.000E+00  0.000E+00  4.74550E+01  1.481E-01  2.000E+01  2.000E+04 -1.619E-02
   1   15    4     1     4    1.0422E+05 -2.9548E+02   1.0452E+05  0.000E+00  0.000E+00  0.000E+00  4.69780E+01  1.484E-01  2.000E+01  2.000E+04 -1.477E-02
   1   16    5     1     5    1.0452E+05 -1.2617E+03   1.0578E+05  0.000E+00  0.000E+00  0.000E+00  4.65013E+01  1.491E-01  2.000E+01  2.000E+04 -6.309E-02
   1   16    6     1     6    1.0578E+05 -7.6411E+02   1.0654E+05  0.000E+00  0.000E+00  0.000E+00  4.60249E+01  1.499E-01  2.000E+01  2.000E+04 -3.821E-02
   1   16    7     1     7    1.0654E+05 -7.2714E+02   1.0727E+05  0.000E+00  0.000E+00  0.000E+00  4.55483E+01  1.506E-01  2.000E+01  2.000E+04 -3.636E-02
   1   16    8     1     8    1.0727E+05 -6.9246E+02   1.0796E+05  0.000E+00  0.000E+00  0.000E+00  4.50716E+01  1.512E-01  2.000E+01  2.000E+04 -3.462E-02
   1   16    9     1     9    1.0796E+05 -6.3089E+02   1.0859E+05  0.000E+00  0.000E+00  0.000E+00  4.45949E+01  1.517E-01  2.000E+01  2.000E+04 -3.154E-02
   1   16   10     1    10    1.0859E+05 -5.1776E+02   1.0911E+05  0.000E+00  0.000E+00  0.000E+00  4.41181E+01  1.522E-01  2.000E+01  2.000E+04 -2.589E-02
   1   16   11     1    11    1.0911E+05 -2.7831E+02   1.0939E+05  0.000E+00  0.000E+00  0.000E+00  4.36412E+01  1.525E-01  2.000E+01  2.000E+04 -1.392E-02
   1   16   12     1    12    1.0939E+05  1.3023E+03   1.0809E+05  0.000E+00  0.000E+00  0.000E+00  4.31635E+01  1.521E-01  2.000E+01  2.000E+04  6.512E-02
   1   15   13     1    13    1.0809E+05  2.3027E+03   1.0579E+05  0.000E+00  0.000E+00  0.000E+00  4.26847E+01  1.506E-01  2.000E+01  2.000E+04  1.151E-01
   1   14   14     1    14    1.0579E+05  9.3447E+02   1.0485E+05  0.000E+00  0.000E+00  0.000E+00  4.22060E+01  1.492E-01  2.000E+01  2.000E+04  4.672E-02
   1   13   15     1    15    1.0485E+05 -8.3144E+02   1.0568E+05  0.000E+00  0.000E+00  0.000E+00  4.17287E+01  1.492E-01  2.000E+01  2.000E+04 -4.157E-02
   1   12   16     1    16    1.0568E+05 -2.2693E+03   1.0795E+05  0.000E+00  0.000E+00  0.000E+00  4.12528E+01  1.505E-01  2.000E+01  2.000E+04 -1.135E-01
   1   12   17     1    17    1.0795E+05 -1.2113E+03   1.0916E+05  0.000E+00  0.000E+00  0.000E+00  4.07770E+01  1.520E-01  2.000E+01  2.000E+04 -6.057E-02
   1   12   18     1    18    1.0916E+05 -1.1175E+03   1.1028E+05  0.000E+00  0.000E+00  0.000E+00  4.03007E+01  1.529E-01  2.000E+01  2.000E+04 -5.588E-02
   1   12   19     1    19    1.1028E+05 -1.7650E+03   1.1205E+05  0.000E+00  0.000E+00  0.000E+00  3.98246E+01  1.541E-01  2.000E+01  2.000E+04 -8.825E-02
   1   13   20     1    20    1.1205E+05 -2.3206E+02   1.1228E+05  0.000E+00  0.000E+00  0.000E+00  3.93481E+01  1.550E-01  2.000E+01  2.000E+04 -1.160E-02
   1   14   21     1    21    1.1228E+05  1.8703E+03   1.1041E+05  0.000E+00  0.000E+00  0.000E+00  3.88702E+01  1.543E-01  2.000E+01  2.000E+04  9.352E-02
   1   14   22     1    22    1.1041E+05  5.5336E+03   1.0487E+05  0.000E+00  0.000E+00  0.000E+00  3.83898E+01  1.512E-01  2.000E+01  2.000E+04  2.767E-01
   1    9   30     2     1    5.0000E+04 -5.6468E+02   5.0565E+04  0.000E+00  0.000E+00  0.000E+00  4.02413E+01  1.163E-01  2.000E+01  2.000E+04 -2.823E-02
   1    9   29     2     2    5.0565E+04 -8.6403E+02   5.1429E+04  0.000E+00  0.000E+00  0.000E+00  3.99922E+01  1.172E-01  2.000E+01  2.000E+04 -4.320E-02
   1    9   28     2     3    5.1429E+04 -1.1180E+03   5.2547E+04  0.000E+00  0.000E+00  0.000E+00  3.97436E+01  1.186E-01  2.000E+01  2.000E+04 -5.590E-02
   1    9   27     2     4    5.2547E+04 -2.3409E+03   5.4888E+04  0.000E+00  0.000E+00  0.000E+00  3.94960E+01  1.210E-01  2.000E+01  2.000E+04 -1.170E-01
   1   10   26     2     5    5.4888E+04 -1.5524E+03   5.6440E+04  0.000E+00  0.000E+00  0.000E+00  3.92486E+01  1.236E-01  2.000E+01  2.000E+04 -7.762E-02
   1   11   25     2     6    5.6440E+04 -1.3589E+03   5.7799E+04  0.000E+00  0.000E+00  0.000E+00  3.90005E+01  1.255E-01  2.000E+01  2.000E+04 -6.795E-02
   1   12   24     2     7    5.7799E+04 -1.4356E+03   5.9234E+04  0.000E+00  0.000E+00  0.000E+00  3.87523E+01  1.273E-01  2.000E+01  2.000E+04 -7.178E-02
   1   13   23     2     8    5.9234E+04 -2.1962E+02   5.9454E+04  0.000E+00  0.000E+00  0.000E+00  3.85034E+01  1.284E-01  2.000E+01  2.000E+04 -1.098E-02
   1   14   22     2     9    5.9454E+04  2.7721E+03   5.6682E+04  0.000E+00  0.000E+00  0.000E+00  3.82517E+01  1.267E-01  2.000E+01  2.000E+04  1.386E-01
   1   14   22     3     1    1.6156E+05 -7.9037E+03   1.6946E+05  0.000E+00  0.000E+00  0.000E+00  3.77180E+01  1.624E-01  2.000E+01  2.000E+04 -3.952E-01
   1   15   23     3     2    1.6946E+05  2.5391E+02   1.6921E+05  0.000E+00  0.000E+00  0.000E+00  3.68313E+01  1.646E-01  2.000E+01  2.000E+04  1.270E-02
   1   15   24     3     3    1.6921E+05 -3.8585E+01   1.6924E+05  0.000E+00  0.000E+00  0.000E+00  3.59424E+01  1.646E-01  2.000E+01  2.000E+04 -1.929E-03
   1   15   25     3     4    1.6924E+05 -1.0320E+02   1.6935E+05  0.000E+00  0.000E+00  0.000E+00  3.50535E+01  1.646E-01  2.000E+01  2.000E+04 -5.160E-03
   1   15   26     3     5    1.6935E+05 -2.1239E+02   1.6956E+05  0.000E+00  0.000E+00  0.000E+00  3.41647E+01  1.647E-01  2.000E+01  2.000E+04 -1.062E-02
   1   16   27     3     6    1.6956E+05 -1.6526E+02   1.6973E+05  0.000E+00  0.000E+00  0.000E+00  3.32759E+01  1.648E-01  2.000E+01  2.000E+04 -8.263E-03
   1   17   28     3     7    1.6973E+05 -5.5071E+02   1.7028E+05  0.000E+00  0.000E+00  0.000E+00  3.23873E+01  1.650E-01  2.000E+01  2.000E+04 -2.754E-02
   1   18   29     3     8    1.7028E+05 -5.6607E+02   1.7084E+05  0.000E+00  0.000E+00  0.000E+00  3.14987E+01  1.654E-01  2.000E+01  2.000E+04 -2.830E-02
   1   18   30     3     9    1.7084E+05 -1.6976E+03   1.7254E+05  0.000E+00  0.000E+00  0.000E+00  3.06105E+01  1.660E-01  2.000E+01  2.000E+04 -8.488E-02



1
              HEAD IN LAYER   1 AT END OF TIME STEP   1 IN STRESS PERIOD    9
  ---------------------------------------------------------------------------

          1      2      3      4      5      6      7      8      9     10
         11     12     13     14     15     16     17     18     19     20
         21     22     23     24     25     26     27     28     29     30
 .........................................................................
   1  ****** ****** ****** ****** ****** ****** ****** ****** ****** ******
      ****** ****** ****** ****** ****** ****** ****** ****** ****** ******
      ****** ****** ****** ****** ****** ****** ****** ****** ****** ******
   2  ****** ****** ****** ****** ****** ****** ****** ****** ****** ******
      ****** ****** ****** ****** ****** ****** ****** ****** ****** ******
      ****** ****** ****** ****** ****** ****** ****** ****** ****** ******
   3  ****** ****** ****** ****** ****** ****** ****** ****** ****** ******
      ****** ****** ****** ****** ****** ****** ****** ****** ****** ******
      ****** ****** ****** ****** ****** ****** ****** ****** ****** ******
   4  ****** ****** ****** ****** ****** ****** ****** ****** ****** ******
      ****** ****** ****** ****** ****** ****** ****** ****** ****** ******
      ****** ****** ****** ****** ****** ****** ****** ****** ****** ******
   5  ****** ****** ****** ****** ****** ****** ****** ****** ****** ******
      ****** ****** ****** ****** ****** ****** ****** ****** ****** ******
      ****** ****** ****** ****** ****** ****** ****** ****** ****** ******
   6  ****** ****** ****** ****** ****** ****** ****** ****** ****** ******
      ****** ****** ****** ****** ****** ****** ****** ****** ****** ******
      ****** ****** ****** ****** ****** ****** ****** ****** ****** ******
   7  ****** ****** ****** ****** ****** ****** ****** ****** ****** ******
      ****** ****** ****** ****** ****** ****** ****** ****** ****** ******
      ****** ****** ****** ****** ****** ****** ****** ****** ****** ******
   8  ****** ****** ****** ****** ****** ****** ****** ****** ****** ******
      ****** ****** ****** ****** ****** ****** ****** ****** ****** ******
      ****** ****** ****** ****** ****** ****** ****** ****** ****** ******
   9  ****** ****** ****** ****** ****** ****** ****** ****** ****** ******
      ****** ****** ****** ****** ****** ****** ****** ****** ****** ******
      ****** ****** ****** ****** ****** ****** ****** ****** ****** ******
  10  ****** ****** ****** ****** ****** ****** ****** ****** ****** ******
      ****** ****** ****** ****** ****** ****** ****** ****** ****** ******
      ****** ****** ****** ****** ****** ****** ****** ****** ****** ******
  11  ****** ****** ****** ****** ****** ****** ****** ****** ****** ******
      ****** ****** ****** ****** ****** ****** ****** ****** ****** ******
      ****** ****** ****** ****** ****** ****** ****** ****** ****** ******
  12  ****** ****** ****** ****** ****** ****** ****** ****** ****** ******
      ****** ****** ****** ****** ****** ****** ****** ****** ****** ******
      ****** ****** ****** ****** ****** ****** ****** ****** ****** ******
  13  ****** ****** ****** ****** ****** ****** ****** ****** ****** ******
      ****** ****** ****** ****** ****** ****** ****** ****** ****** ******
      ****** ****** ****** ****** ****** ****** ****** ****** ****** ******
  14  ****** ****** ****** ****** ****** ****** ****** ****** ****** ******
      ****** ****** ****** ****** ****** ****** ****** ****** ****** ******
      ****** ****** ****** ****** ****** ****** ****** ****** ****** ******
  15  ****** ****** ****** ****** ****** ****** ****** ****** ****** ******
      ****** ****** ****** ****** ****** ****** ****** ****** ****** ******
      ****** ****** ****** ****** ****** ****** ****** ****** ****** ******
  16  ****** ****** ****** ****** ****** ****** ****** ****** ****** ******
      ****** ****** ****** ****** ****** ****** ****** ****** ****** ******
      ****** ****** ****** ****** ****** ****** ****** ****** ****** ******
  17  ****** ****** ****** ****** ****** ****** ****** ****** ****** ******
      ****** ****** ****** ****** ****** ****** ****** ****** ****** ******
      ****** ****** ****** ****** ****** ****** ****** ****** ****** ******
  18  ****** ****** ****** ****** ****** ****** ****** ****** ****** ******
      ****** ****** ****** ****** ****** ****** ****** ****** ****** ******
      ****** ****** ****** ****** ****** ****** ****** ****** ****** ******
  19  ****** ****** ****** ****** ****** ****** ****** ****** ****** ******
      ****** ****** ****** ****** ****** ****** ****** ****** ****** ******
      ****** ****** ****** ****** ****** ****** ****** ****** ****** ******
  20  ****** ****** ****** ****** ****** ****** ****** ****** ****** ******
      ****** ****** ****** ****** ****** ****** ****** ****** ****** ******
      ****** ****** ****** ****** ****** ****** ****** ****** ****** ******
  21  ****** ****** ****** ****** ****** ****** ****** ****** ****** ******
      ****** ****** ****** ****** ****** ****** ****** ****** ****** ******
      ****** ****** ****** ****** ****** ****** ****** ****** ****** ******
  22  ****** ****** ****** ****** ****** ****** ****** ****** ****** ******
      ****** ****** ****** ****** ****** ****** ****** ****** ****** ******
      ****** ****** ****** ****** ****** ****** ****** ****** ****** ******
  23  ****** ****** ****** ****** ****** ****** ****** ****** ****** ******
      ****** ****** ****** ****** ****** ****** ****** ****** ****** ******
      ****** ****** ****** ****** ****** ****** ****** ****** ****** ******
  24  ****** ****** ****** ****** ****** ****** ****** ****** ****** ******
      ****** ****** ****** ****** ****** ****** ****** ****** ****** ******
      ****** ****** ****** ****** ****** ****** ****** ****** ****** ******
  25  ****** ****** ****** ****** ****** ****** ****** ****** ****** ******
      ****** ****** ****** ****** ****** ****** ****** ****** ****** ******
      ****** ****** ****** ****** ****** ****** ****** ****** ****** ******

 HEAD WILL BE SAVED ON UNIT   51 AT END OF TIME STEP    1, STRESS PERIOD    9
1
  VOLUMETRIC BUDGET FOR ENTIRE MODEL AT END OF TIME STEP    1, STRESS PERIOD   9
  ------------------------------------------------------------------------------

     CUMULATIVE VOLUMES      L**3       RATES FOR THIS TIME STEP      L**3/T
     ------------------                 ------------------------

           IN:                                      IN:
           ---                                      ---
             STORAGE =    34431295.9350               STORAGE =        7231.4285
       CONSTANT HEAD =    22883776.5101         CONSTANT HEAD =       34961.8872
               WELLS =           0.0000                 WELLS =           0.0000
            RECHARGE =    18878400.0000              RECHARGE =       13800.0000
      STREAM LEAKAGE =     9216450.2339        STREAM LEAKAGE =       14969.3943

            TOTAL IN =    85409922.6790              TOTAL IN =       70962.7100

          OUT:                                     OUT:
          ----                                     ----
             STORAGE =      909014.7742               STORAGE =           0.0000
       CONSTANT HEAD =           0.0000         CONSTANT HEAD =           0.0000
               WELLS =    27499107.0347                 WELLS =       33453.9015
            RECHARGE =           0.0000              RECHARGE =           0.0000
      STREAM LEAKAGE =    57001802.7646        STREAM LEAKAGE =       37508.8093

           TOTAL OUT =    85409924.5736             TOTAL OUT =       70962.7108

            IN - OUT =          -1.8946              IN - OUT =      -7.8124E-04

 PERCENT DISCREPANCY =          -0.00     PERCENT DISCREPANCY =          -0.00






         TIME SUMMARY AT END OF TIME STEP    1 IN STRESS PERIOD    9
                    SECONDS     MINUTES      HOURS       DAYS        YEARS
                    -----------------------------------------------------------
   TIME STEP LENGTH 7.94880E+06 1.32480E+05  2208.0      92.000     0.25188    
 STRESS PERIOD TIME 7.94880E+06 1.32480E+05  2208.0      92.000     0.25188    
         TOTAL TIME 7.10208E+07 1.18368E+06  19728.      822.00      2.2505    
1
1
                            STRESS PERIOD NO.   10, LENGTH =   91.00000    
                            -----------------------------------------------

                              NUMBER OF TIME STEPS =     1

                               MULTIPLIER FOR DELT =     1.500

                            INITIAL TIME STEP SIZE =   91.00000    

 WELL NO.  LAYER   ROW   COL   STRESS RATE         
 --------------------------------------------------
      1      1     22     27      -6314.    
      2      1     16     14     -0.1197E+05
      3      1     11      6      -1537.    
      4      1     17     21     -0.1363E+05

      4 WELLS

                 RECHARGE =  2.000000E-03

 REUSING STREAM SEGMENT DATA FROM LAST STRESS PERIOD
 
 SOLVING FOR HEAD 


     7 CALLS TO PCG ROUTINE FOR TIME STEP   1 IN STRESS PERIOD   10
    26 TOTAL ITERATIONS

 OUTPUT CONTROL FOR STRESS PERIOD   10   TIME STEP    1
    SAVE BUDGET
    SAVE HEAD FOR ALL LAYERS
    PRINT HEAD FOR ALL LAYERS
 UBDSV2 SAVING "STREAMFLOW OUT  " ON UNIT  50 AT TIME STEP  1, STRESS PERIOD  10



 STREAM LISTING     PERIOD     10   STEP        1

 LAYER ROW COL. STREAM  RCH.  FLOW INTO     FLOW TO   FLOW OUT OF   OVRLND.     DIRECT     STREAM       STREAM     STREAM     STREAM   STREAMBED  STREAMBED
                SEG.NO.  NO.  STRM. RCH.    AQUIFER    STRM. RCH.    RUNOFF     PRECIP       ET          HEAD       DEPTH      WIDTH   CONDCTNC.   GRADIENT

   1   13    1     1     1    1.0000E+05 -1.9676E+03   1.0197E+05  0.000E+00  0.000E+00  0.000E+00  4.84069E+01  1.455E-01  2.000E+01  2.000E+04 -9.838E-02
   1   13    2     1     2    1.0197E+05 -2.8856E+03   1.0485E+05  0.000E+00  0.000E+00  0.000E+00  4.79317E+01  1.476E-01  2.000E+01  2.000E+04 -1.443E-01
   1   14    3     1     3    1.0485E+05 -5.1014E+02   1.0536E+05  0.000E+00  0.000E+00  0.000E+00  4.74559E+01  1.490E-01  2.000E+01  2.000E+04 -2.551E-02
   1   15    4     1     4    1.0536E+05 -4.9462E+02   1.0586E+05  0.000E+00  0.000E+00  0.000E+00  4.69790E+01  1.495E-01  2.000E+01  2.000E+04 -2.473E-02
   1   16    5     1     5    1.0586E+05 -1.8797E+03   1.0774E+05  0.000E+00  0.000E+00  0.000E+00  4.65027E+01  1.505E-01  2.000E+01  2.000E+04 -9.399E-02
   1   16    6     1     6    1.0774E+05 -1.1257E+03   1.0886E+05  0.000E+00  0.000E+00  0.000E+00  4.60267E+01  1.517E-01  2.000E+01  2.000E+04 -5.628E-02
   1   16    7     1     7    1.0886E+05 -1.0709E+03   1.0993E+05  0.000E+00  0.000E+00  0.000E+00  4.55504E+01  1.527E-01  2.000E+01  2.000E+04 -5.354E-02
   1   16    8     1     8    1.0993E+05 -1.0307E+03   1.1097E+05  0.000E+00  0.000E+00  0.000E+00  4.50740E+01  1.535E-01  2.000E+01  2.000E+04 -5.154E-02
   1   16    9     1     9    1.1097E+05 -9.6761E+02   1.1193E+05  0.000E+00  0.000E+00  0.000E+00  4.45976E+01  1.544E-01  2.000E+01  2.000E+04 -4.838E-02
   1   16   10     1    10    1.1193E+05 -8.5462E+02   1.1279E+05  0.000E+00  0.000E+00  0.000E+00  4.41210E+01  1.551E-01  2.000E+01  2.000E+04 -4.273E-02
   1   16   11     1    11    1.1279E+05 -6.1854E+02   1.1341E+05  0.000E+00  0.000E+00  0.000E+00  4.36444E+01  1.557E-01  2.000E+01  2.000E+04 -3.093E-02
   1   16   12     1    12    1.1341E+05  7.3460E+02   1.1267E+05  0.000E+00  0.000E+00  0.000E+00  4.31671E+01  1.557E-01  2.000E+01  2.000E+04  3.673E-02
   1   15   13     1    13    1.1267E+05  1.7174E+03   1.1095E+05  0.000E+00  0.000E+00  0.000E+00  4.26888E+01  1.547E-01  2.000E+01  2.000E+04  8.587E-02
   1   14   14     1    14    1.1095E+05  3.4155E+02   1.1061E+05  0.000E+00  0.000E+00  0.000E+00  4.22106E+01  1.538E-01  2.000E+01  2.000E+04  1.708E-02
   1   13   15     1    15    1.1061E+05 -1.4149E+03   1.1203E+05  0.000E+00  0.000E+00  0.000E+00  4.17338E+01  1.543E-01  2.000E+01  2.000E+04 -7.074E-02
   1   12   16     1    16    1.1203E+05 -2.8322E+03   1.1486E+05  0.000E+00  0.000E+00  0.000E+00  4.12583E+01  1.560E-01  2.000E+01  2.000E+04 -1.416E-01
   1   12   17     1    17    1.1486E+05 -1.6371E+03   1.1650E+05  0.000E+00  0.000E+00  0.000E+00  4.07829E+01  1.579E-01  2.000E+01  2.000E+04 -8.186E-02
   1   12   18     1    18    1.1650E+05 -1.5390E+03   1.1804E+05  0.000E+00  0.000E+00  0.000E+00  4.03069E+01  1.592E-01  2.000E+01  2.000E+04 -7.695E-02
   1   12   19     1    19    1.1804E+05 -2.2840E+03   1.2032E+05  0.000E+00  0.000E+00  0.000E+00  3.98312E+01  1.607E-01  2.000E+01  2.000E+04 -1.142E-01
   1   13   20     1    20    1.2032E+05 -7.5259E+02   1.2107E+05  0.000E+00  0.000E+00  0.000E+00  3.93551E+01  1.619E-01  2.000E+01  2.000E+04 -3.763E-02
   1   14   21     1    21    1.2107E+05  1.3475E+03   1.1972E+05  0.000E+00  0.000E+00  0.000E+00  3.88776E+01  1.617E-01  2.000E+01  2.000E+04  6.737E-02
   1   14   22     1    22    1.1972E+05  5.4105E+03   1.1431E+05  0.000E+00  0.000E+00  0.000E+00  3.83976E+01  1.590E-01  2.000E+01  2.000E+04  2.705E-01
   1    9   30     2     1    5.0000E+04 -9.7921E+02   5.0979E+04  0.000E+00  0.000E+00  0.000E+00  4.02415E+01  1.165E-01  2.000E+01  2.000E+04 -4.896E-02
   1    9   29     2     2    5.0979E+04 -1.2763E+03   5.2255E+04  0.000E+00  0.000E+00  0.000E+00  3.99931E+01  1.181E-01  2.000E+01  2.000E+04 -6.381E-02
   1    9   28     2     3    5.2255E+04 -1.5295E+03   5.3785E+04  0.000E+00  0.000E+00  0.000E+00  3.97450E+01  1.200E-01  2.000E+01  2.000E+04 -7.648E-02
   1    9   27     2     4    5.3785E+04 -2.8945E+03   5.6680E+04  0.000E+00  0.000E+00  0.000E+00  3.94980E+01  1.230E-01  2.000E+01  2.000E+04 -1.447E-01
   1   10   26     2     5    5.6680E+04 -2.1059E+03   5.8785E+04  0.000E+00  0.000E+00  0.000E+00  3.92513E+01  1.263E-01  2.000E+01  2.000E+04 -1.053E-01
   1   11   25     2     6    5.8785E+04 -1.8879E+03   6.0673E+04  0.000E+00  0.000E+00  0.000E+00  3.90039E+01  1.289E-01  2.000E+01  2.000E+04 -9.440E-02
   1   12   24     2     7    6.0673E+04 -1.9144E+03   6.2588E+04  0.000E+00  0.000E+00  0.000E+00  3.87564E+01  1.314E-01  2.000E+01  2.000E+04 -9.572E-02
   1   13   23     2     8    6.2588E+04 -3.6843E+02   6.2956E+04  0.000E+00  0.000E+00  0.000E+00  3.85078E+01  1.328E-01  2.000E+01  2.000E+04 -1.842E-02
   1   14   22     2     9    6.2956E+04  2.5866E+03   6.0370E+04  0.000E+00  0.000E+00  0.000E+00  3.82564E+01  1.314E-01  2.000E+01  2.000E+04  1.293E-01
   1   14   22     3     1    1.7468E+05 -8.0293E+03   1.8271E+05  0.000E+00  0.000E+00  0.000E+00  3.77256E+01  1.700E-01  2.000E+01  2.000E+04 -4.015E-01
   1   15   23     3     2    1.8271E+05  9.1966E+01   1.8262E+05  0.000E+00  0.000E+00  0.000E+00  3.68390E+01  1.723E-01  2.000E+01  2.000E+04  4.598E-03
   1   15   24     3     3    1.8262E+05 -1.7540E+02   1.8280E+05  0.000E+00  0.000E+00  0.000E+00  3.59501E+01  1.723E-01  2.000E+01  2.000E+04 -8.770E-03
   1   15   25     3     4    1.8280E+05 -2.4346E+02   1.8304E+05  0.000E+00  0.000E+00  0.000E+00  3.50613E+01  1.724E-01  2.000E+01  2.000E+04 -1.217E-02
   1   15   26     3     5    1.8304E+05 -3.7441E+02   1.8341E+05  0.000E+00  0.000E+00  0.000E+00  3.41726E+01  1.726E-01  2.000E+01  2.000E+04 -1.872E-02
   1   16   27     3     6    1.8341E+05 -3.5073E+02   1.8377E+05  0.000E+00  0.000E+00  0.000E+00  3.32839E+01  1.728E-01  2.000E+01  2.000E+04 -1.754E-02
   1   17   28     3     7    1.8377E+05 -1.0700E+03   1.8484E+05  0.000E+00  0.000E+00  0.000E+00  3.23954E+01  1.732E-01  2.000E+01  2.000E+04 -5.350E-02
   1   18   29     3     8    1.8484E+05 -1.1146E+03   1.8595E+05  0.000E+00  0.000E+00  0.000E+00  3.15072E+01  1.738E-01  2.000E+01  2.000E+04 -5.573E-02
   1   18   30     3     9    1.8595E+05 -2.1212E+03   1.8807E+05  0.000E+00  0.000E+00  0.000E+00  3.06192E+01  1.748E-01  2.000E+01  2.000E+04 -1.061E-01



1
              HEAD IN LAYER   1 AT END OF TIME STEP   1 IN STRESS PERIOD   10
  ---------------------------------------------------------------------------

          1      2      3      4      5      6      7      8      9     10
         11     12     13     14     15     16     17     18     19     20
         21     22     23     24     25     26     27     28     29     30
 .........................................................................
   1  ****** ****** ****** ****** ****** ****** ****** ****** ****** ******
      ****** ****** ****** ****** ****** ****** ****** ****** ****** ******
      ****** ****** ****** ****** ****** ****** ****** ****** ****** ******
   2  ****** ****** ****** ****** ****** ****** ****** ****** ****** ******
      ****** ****** ****** ****** ****** ****** ****** ****** ****** ******
      ****** ****** ****** ****** ****** ****** ****** ****** ****** ******
   3  ****** ****** ****** ****** ****** ****** ****** ****** ****** ******
      ****** ****** ****** ****** ****** ****** ****** ****** ****** ******
      ****** ****** ****** ****** ****** ****** ****** ****** ****** ******
   4  ****** ****** ****** ****** ****** ****** ****** ****** ****** ******
      ****** ****** ****** ****** ****** ****** ****** ****** ****** ******
      ****** ****** ****** ****** ****** ****** ****** ****** ****** ******
   5  ****** ****** ****** ****** ****** ****** ****** ****** ****** ******
      ****** ****** ****** ****** ****** ****** ****** ****** ****** ******
      ****** ****** ****** ****** ****** ****** ****** ****** ****** ******
   6  ****** ****** ****** ****** ****** ****** ****** ****** ****** ******
      ****** ****** ****** ****** ****** ****** ****** ****** ****** ******
      ****** ****** ****** ****** ****** ****** ****** ****** ****** ******
   7  ****** ****** ****** ****** ****** ****** ****** ****** ****** ******
      ****** ****** ****** ****** ****** ****** ****** ****** ****** ******
      ****** ****** ****** ****** ****** ****** ****** ****** ****** ******
   8  ****** ****** ****** ****** ****** ****** ****** ****** ****** ******
      ****** ****** ****** ****** ****** ****** ****** ****** ****** ******
      ****** ****** ****** ****** ****** ****** ****** ****** ****** ******
   9  ****** ****** ****** ****** ****** ****** ****** ****** ****** ******
      ****** ****** ****** ****** ****** ****** ****** ****** ****** ******
      ****** ****** ****** ****** ****** ****** ****** ****** ****** ******
  10  ****** ****** ****** ****** ****** ****** ****** ****** ****** ******
      ****** ****** ****** ****** ****** ****** ****** ****** ****** ******
      ****** ****** ****** ****** ****** ****** ****** ****** ****** ******
  11  ****** ****** ****** ****** ****** ****** ****** ****** ****** ******
      ****** ****** ****** ****** ****** ****** ****** ****** ****** ******
      ****** ****** ****** ****** ****** ****** ****** ****** ****** ******
  12  ****** ****** ****** ****** ****** ****** ****** ****** ****** ******
      ****** ****** ****** ****** ****** ****** ****** ****** ****** ******
      ****** ****** ****** ****** ****** ****** ****** ****** ****** ******
  13  ****** ****** ****** ****** ****** ****** ****** ****** ****** ******
      ****** ****** ****** ****** ****** ****** ****** ****** ****** ******
      ****** ****** ****** ****** ****** ****** ****** ****** ****** ******
  14  ****** ****** ****** ****** ****** ****** ****** ****** ****** ******
      ****** ****** ****** ****** ****** ****** ****** ****** ****** ******
      ****** ****** ****** ****** ****** ****** ****** ****** ****** ******
  15  ****** ****** ****** ****** ****** ****** ****** ****** ****** ******
      ****** ****** ****** ****** ****** ****** ****** ****** ****** ******
      ****** ****** ****** ****** ****** ****** ****** ****** ****** ******
  16  ****** ****** ****** ****** ****** ****** ****** ****** ****** ******
      ****** ****** ****** ****** ****** ****** ****** ****** ****** ******
      ****** ****** ****** ****** ****** ****** ****** ****** ****** ******
  17  ****** ****** ****** ****** ****** ****** ****** ****** ****** ******
      ****** ****** ****** ****** ****** ****** ****** ****** ****** ******
      ****** ****** ****** ****** ****** ****** ****** ****** ****** ******
  18  ****** ****** ****** ****** ****** ****** ****** ****** ****** ******
      ****** ****** ****** ****** ****** ****** ****** ****** ****** ******
      ****** ****** ****** ****** ****** ****** ****** ****** ****** ******
  19  ****** ****** ****** ****** ****** ****** ****** ****** ****** ******
      ****** ****** ****** ****** ****** ****** ****** ****** ****** ******
      ****** ****** ****** ****** ****** ****** ****** ****** ****** ******
  20  ****** ****** ****** ****** ****** ****** ****** ****** ****** ******
      ****** ****** ****** ****** ****** ****** ****** ****** ****** ******
      ****** ****** ****** ****** ****** ****** ****** ****** ****** ******
  21  ****** ****** ****** ****** ****** ****** ****** ****** ****** ******
      ****** ****** ****** ****** ****** ****** ****** ****** ****** ******
      ****** ****** ****** ****** ****** ****** ****** ****** ****** ******
  22  ****** ****** ****** ****** ****** ****** ****** ****** ****** ******
      ****** ****** ****** ****** ****** ****** ****** ****** ****** ******
      ****** ****** ****** ****** ****** ****** ****** ****** ****** ******
  23  ****** ****** ****** ****** ****** ****** ****** ****** ****** ******
      ****** ****** ****** ****** ****** ****** ****** ****** ****** ******
      ****** ****** ****** ****** ****** ****** ****** ****** ****** ******
  24  ****** ****** ****** ****** ****** ****** ****** ****** ****** ******
      ****** ****** ****** ****** ****** ****** ****** ****** ****** ******
      ****** ****** ****** ****** ****** ****** ****** ****** ****** ******
  25  ****** ****** ****** ****** ****** ****** ****** ****** ****** ******
      ****** ****** ****** ****** ****** ****** ****** ****** ****** ******
      ****** ****** ****** ****** ****** ****** ****** ****** ****** ******

 HEAD WILL BE SAVED ON UNIT   51 AT END OF TIME STEP    1, STRESS PERIOD   10
1
  VOLUMETRIC BUDGET FOR ENTIRE MODEL AT END OF TIME STEP    1, STRESS PERIOD  10
  ------------------------------------------------------------------------------

     CUMULATIVE VOLUMES      L**3       RATES FOR THIS TIME STEP      L**3/T
     ------------------                 ------------------------

           IN:                                      IN:
           ---                                      ---
             STORAGE =    34431295.9350               STORAGE =           0.0000
       CONSTANT HEAD =    25796761.9989         CONSTANT HEAD =       32010.8295
               WELLS =           0.0000                 WELLS =           0.0000
            RECHARGE =    23901600.0000              RECHARGE =       55200.0000
      STREAM LEAKAGE =    10329389.6587        STREAM LEAKAGE =       12230.1036

            TOTAL IN =    94459047.5926              TOTAL IN =       99440.9331

          OUT:                                     OUT:
          ----                                     ----
             STORAGE =     2336447.5525               STORAGE =       15686.0745
       CONSTANT HEAD =           0.0000         CONSTANT HEAD =           0.0000
               WELLS =    30543412.0714                 WELLS =       33453.9015
            RECHARGE =           0.0000              RECHARGE =           0.0000
      STREAM LEAKAGE =    61579189.5097        STREAM LEAKAGE =       50300.9532

           TOTAL OUT =    94459049.1336             TOTAL OUT =       99440.9292

            IN - OUT =          -1.5410              IN - OUT =       3.8852E-03

 PERCENT DISCREPANCY =          -0.00     PERCENT DISCREPANCY =           0.00






         TIME SUMMARY AT END OF TIME STEP    1 IN STRESS PERIOD   10
                    SECONDS     MINUTES      HOURS       DAYS        YEARS
                    -----------------------------------------------------------
   TIME STEP LENGTH 7.86240E+06 1.31040E+05  2184.0      91.000     0.24914    
 STRESS PERIOD TIME 7.86240E+06 1.31040E+05  2184.0      91.000     0.24914    
         TOTAL TIME 7.88832E+07 1.31472E+06  21912.      913.00      2.4997    
1
1
                            STRESS PERIOD NO.   11, LENGTH =   91.00000    
                            -----------------------------------------------

                              NUMBER OF TIME STEPS =     1

                               MULTIPLIER FOR DELT =     1.500

                            INITIAL TIME STEP SIZE =   91.00000    

 WELL NO.  LAYER   ROW   COL   STRESS RATE         
 --------------------------------------------------
      1      1     22     27      -6314.    
      2      1     16     14     -0.1197E+05
      3      1     11      6      -1537.    
      4      1     17     21     -0.1363E+05

      4 WELLS

                 RECHARGE =   0.00000    

 REUSING STREAM SEGMENT DATA FROM LAST STRESS PERIOD
 
 SOLVING FOR HEAD 


     7 CALLS TO PCG ROUTINE FOR TIME STEP   1 IN STRESS PERIOD   11
    26 TOTAL ITERATIONS

 OUTPUT CONTROL FOR STRESS PERIOD   11   TIME STEP    1
    SAVE BUDGET
    SAVE HEAD FOR ALL LAYERS
    PRINT HEAD FOR ALL LAYERS
 UBDSV2 SAVING "STREAMFLOW OUT  " ON UNIT  50 AT TIME STEP  1, STRESS PERIOD  11



 STREAM LISTING     PERIOD     11   STEP        1

 LAYER ROW COL. STREAM  RCH.  FLOW INTO     FLOW TO   FLOW OUT OF   OVRLND.     DIRECT     STREAM       STREAM     STREAM     STREAM   STREAMBED  STREAMBED
                SEG.NO.  NO.  STRM. RCH.    AQUIFER    STRM. RCH.    RUNOFF     PRECIP       ET          HEAD       DEPTH      WIDTH   CONDCTNC.   GRADIENT

   1   13    1     1     1    1.0000E+05 -1.4001E+03   1.0140E+05  0.000E+00  0.000E+00  0.000E+00  4.84066E+01  1.453E-01  2.000E+01  2.000E+04 -7.001E-02
   1   13    2     1     2    1.0140E+05 -2.2537E+03   1.0365E+05  0.000E+00  0.000E+00  0.000E+00  4.79309E+01  1.468E-01  2.000E+01  2.000E+04 -1.127E-01
   1   14    3     1     3    1.0365E+05 -2.7914E+02   1.0393E+05  0.000E+00  0.000E+00  0.000E+00  4.74547E+01  1.479E-01  2.000E+01  2.000E+04 -1.396E-02
   1   15    4     1     4    1.0393E+05 -2.5258E+02   1.0419E+05  0.000E+00  0.000E+00  0.000E+00  4.69777E+01  1.481E-01  2.000E+01  2.000E+04 -1.263E-02
   1   16    5     1     5    1.0419E+05 -1.1914E+03   1.0538E+05  0.000E+00  0.000E+00  0.000E+00  4.65010E+01  1.488E-01  2.000E+01  2.000E+04 -5.957E-02
   1   16    6     1     6    1.0538E+05 -7.1103E+02   1.0609E+05  0.000E+00  0.000E+00  0.000E+00  4.60246E+01  1.496E-01  2.000E+01  2.000E+04 -3.555E-02
   1   16    7     1     7    1.0609E+05 -6.7384E+02   1.0676E+05  0.000E+00  0.000E+00  0.000E+00  4.55479E+01  1.502E-01  2.000E+01  2.000E+04 -3.369E-02
   1   16    8     1     8    1.0676E+05 -6.3918E+02   1.0740E+05  0.000E+00  0.000E+00  0.000E+00  4.50712E+01  1.507E-01  2.000E+01  2.000E+04 -3.196E-02
   1   16    9     1     9    1.0740E+05 -5.7828E+02   1.0798E+05  0.000E+00  0.000E+00  0.000E+00  4.45944E+01  1.512E-01  2.000E+01  2.000E+04 -2.891E-02
   1   16   10     1    10    1.0798E+05 -4.6634E+02   1.0845E+05  0.000E+00  0.000E+00  0.000E+00  4.41176E+01  1.517E-01  2.000E+01  2.000E+04 -2.332E-02
   1   16   11     1    11    1.0845E+05 -2.2838E+02   1.0867E+05  0.000E+00  0.000E+00  0.000E+00  4.36406E+01  1.520E-01  2.000E+01  2.000E+04 -1.142E-02
   1   16   12     1    12    1.0867E+05  1.3812E+03   1.0729E+05  0.000E+00  0.000E+00  0.000E+00  4.31628E+01  1.515E-01  2.000E+01  2.000E+04  6.906E-02
   1   15   13     1    13    1.0729E+05  2.4065E+03   1.0489E+05  0.000E+00  0.000E+00  0.000E+00  4.26840E+01  1.499E-01  2.000E+01  2.000E+04  1.203E-01
   1   14   14     1    14    1.0489E+05  1.0480E+03   1.0384E+05  0.000E+00  0.000E+00  0.000E+00  4.22052E+01  1.484E-01  2.000E+01  2.000E+04  5.240E-02
   1   13   15     1    15    1.0384E+05 -7.1428E+02   1.0455E+05  0.000E+00  0.000E+00  0.000E+00  4.17278E+01  1.483E-01  2.000E+01  2.000E+04 -3.571E-02
   1   12   16     1    16    1.0455E+05 -2.1556E+03   1.0671E+05  0.000E+00  0.000E+00  0.000E+00  4.12518E+01  1.495E-01  2.000E+01  2.000E+04 -1.078E-01
   1   12   17     1    17    1.0671E+05 -1.1306E+03   1.0784E+05  0.000E+00  0.000E+00  0.000E+00  4.07759E+01  1.509E-01  2.000E+01  2.000E+04 -5.653E-02
   1   12   18     1    18    1.0784E+05 -1.0402E+03   1.0888E+05  0.000E+00  0.000E+00  0.000E+00  4.02995E+01  1.518E-01  2.000E+01  2.000E+04 -5.201E-02
   1   12   19     1    19    1.0888E+05 -1.6718E+03   1.1055E+05  0.000E+00  0.000E+00  0.000E+00  3.98234E+01  1.529E-01  2.000E+01  2.000E+04 -8.359E-02
   1   13   20     1    20    1.1055E+05 -1.4001E+02   1.1069E+05  0.000E+00  0.000E+00  0.000E+00  3.93469E+01  1.537E-01  2.000E+01  2.000E+04 -7.000E-03
   1   14   21     1    21    1.1069E+05  1.9452E+03   1.0875E+05  0.000E+00  0.000E+00  0.000E+00  3.88688E+01  1.529E-01  2.000E+01  2.000E+04  9.726E-02
   1   14   22     1    22    1.0875E+05  5.5531E+03   1.0319E+05  0.000E+00  0.000E+00  0.000E+00  3.83884E+01  1.498E-01  2.000E+01  2.000E+04  2.777E-01
   1    9   30     2     1    5.0000E+04 -4.9137E+02   5.0491E+04  0.000E+00  0.000E+00  0.000E+00  4.02412E+01  1.162E-01  2.000E+01  2.000E+04 -2.457E-02
   1    9   29     2     2    5.0491E+04 -7.9152E+02   5.1283E+04  0.000E+00  0.000E+00  0.000E+00  3.99921E+01  1.171E-01  2.000E+01  2.000E+04 -3.958E-02
   1    9   28     2     3    5.1283E+04 -1.0470E+03   5.2330E+04  0.000E+00  0.000E+00  0.000E+00  3.97434E+01  1.184E-01  2.000E+01  2.000E+04 -5.235E-02
   1    9   27     2     4    5.2330E+04 -2.2553E+03   5.4585E+04  0.000E+00  0.000E+00  0.000E+00  3.94956E+01  1.206E-01  2.000E+01  2.000E+04 -1.128E-01
   1   10   26     2     5    5.4585E+04 -1.4521E+03   5.6037E+04  0.000E+00  0.000E+00  0.000E+00  3.92481E+01  1.231E-01  2.000E+01  2.000E+04 -7.261E-02
   1   11   25     2     6    5.6037E+04 -1.2579E+03   5.7295E+04  0.000E+00  0.000E+00  0.000E+00  3.89999E+01  1.249E-01  2.000E+01  2.000E+04 -6.289E-02
   1   12   24     2     7    5.7295E+04 -1.3413E+03   5.8636E+04  0.000E+00  0.000E+00  0.000E+00  3.87516E+01  1.266E-01  2.000E+01  2.000E+04 -6.706E-02
   1   13   23     2     8    5.8636E+04 -1.8257E+02   5.8819E+04  0.000E+00  0.000E+00  0.000E+00  3.85026E+01  1.276E-01  2.000E+01  2.000E+04 -9.129E-03
   1   14   22     2     9    5.8819E+04  2.8027E+03   5.6016E+04  0.000E+00  0.000E+00  0.000E+00  3.82509E+01  1.259E-01  2.000E+01  2.000E+04  1.401E-01
   1   14   22     3     1    1.5921E+05 -7.8838E+03   1.6709E+05  0.000E+00  0.000E+00  0.000E+00  3.77166E+01  1.610E-01  2.000E+01  2.000E+04 -3.942E-01
   1   15   23     3     2    1.6709E+05  2.8430E+02   1.6681E+05  0.000E+00  0.000E+00  0.000E+00  3.68299E+01  1.632E-01  2.000E+01  2.000E+04  1.422E-02
   1   15   24     3     3    1.6681E+05 -1.0096E+01   1.6682E+05  0.000E+00  0.000E+00  0.000E+00  3.59409E+01  1.632E-01  2.000E+01  2.000E+04 -5.048E-04
   1   15   25     3     4    1.6682E+05 -7.4340E+01   1.6689E+05  0.000E+00  0.000E+00  0.000E+00  3.50521E+01  1.632E-01  2.000E+01  2.000E+04 -3.717E-03
   1   15   26     3     5    1.6689E+05 -1.7862E+02   1.6707E+05  0.000E+00  0.000E+00  0.000E+00  3.41633E+01  1.633E-01  2.000E+01  2.000E+04 -8.931E-03
   1   16   27     3     6    1.6707E+05 -1.2753E+02   1.6720E+05  0.000E+00  0.000E+00  0.000E+00  3.32745E+01  1.634E-01  2.000E+01  2.000E+04 -6.376E-03
   1   17   28     3     7    1.6720E+05 -4.5962E+02   1.6766E+05  0.000E+00  0.000E+00  0.000E+00  3.23858E+01  1.635E-01  2.000E+01  2.000E+04 -2.298E-02
   1   18   29     3     8    1.6766E+05 -4.9127E+02   1.6815E+05  0.000E+00  0.000E+00  0.000E+00  3.14971E+01  1.638E-01  2.000E+01  2.000E+04 -2.456E-02
   1   18   30     3     9    1.6815E+05 -1.6312E+03   1.6978E+05  0.000E+00  0.000E+00  0.000E+00  3.06089E+01  1.644E-01  2.000E+01  2.000E+04 -8.156E-02



1
              HEAD IN LAYER   1 AT END OF TIME STEP   1 IN STRESS PERIOD   11
  ---------------------------------------------------------------------------

          1      2      3      4      5      6      7      8      9     10
         11     12     13     14     15     16     17     18     19     20
         21     22     23     24     25     26     27     28     29     30
 .........................................................................
   1  ****** ****** ****** ****** ****** ****** ****** ****** ****** ******
      ****** ****** ****** ****** ****** ****** ****** ****** ****** ******
      ****** ****** ****** ****** ****** ****** ****** ****** ****** ******
   2  ****** ****** ****** ****** ****** ****** ****** ****** ****** ******
      ****** ****** ****** ****** ****** ****** ****** ****** ****** ******
      ****** ****** ****** ****** ****** ****** ****** ****** ****** ******
   3  ****** ****** ****** ****** ****** ****** ****** ****** ****** ******
      ****** ****** ****** ****** ****** ****** ****** ****** ****** ******
      ****** ****** ****** ****** ****** ****** ****** ****** ****** ******
   4  ****** ****** ****** ****** ****** ****** ****** ****** ****** ******
      ****** ****** ****** ****** ****** ****** ****** ****** ****** ******
      ****** ****** ****** ****** ****** ****** ****** ****** ****** ******
   5  ****** ****** ****** ****** ****** ****** ****** ****** ****** ******
      ****** ****** ****** ****** ****** ****** ****** ****** ****** ******
      ****** ****** ****** ****** ****** ****** ****** ****** ****** ******
   6  ****** ****** ****** ****** ****** ****** ****** ****** ****** ******
      ****** ****** ****** ****** ****** ****** ****** ****** ****** ******
      ****** ****** ****** ****** ****** ****** ****** ****** ****** ******
   7  ****** ****** ****** ****** ****** ****** ****** ****** ****** ******
      ****** ****** ****** ****** ****** ****** ****** ****** ****** ******
      ****** ****** ****** ****** ****** ****** ****** ****** ****** ******
   8  ****** ****** ****** ****** ****** ****** ****** ****** ****** ******
      ****** ****** ****** ****** ****** ****** ****** ****** ****** ******
      ****** ****** ****** ****** ****** ****** ****** ****** ****** ******
   9  ****** ****** ****** ****** ****** ****** ****** ****** ****** ******
      ****** ****** ****** ****** ****** ****** ****** ****** ****** ******
      ****** ****** ****** ****** ****** ****** ****** ****** ****** ******
  10  ****** ****** ****** ****** ****** ****** ****** ****** ****** ******
      ****** ****** ****** ****** ****** ****** ****** ****** ****** ******
      ****** ****** ****** ****** ****** ****** ****** ****** ****** ******
  11  ****** ****** ****** ****** ****** ****** ****** ****** ****** ******
      ****** ****** ****** ****** ****** ****** ****** ****** ****** ******
      ****** ****** ****** ****** ****** ****** ****** ****** ****** ******
  12  ****** ****** ****** ****** ****** ****** ****** ****** ****** ******
      ****** ****** ****** ****** ****** ****** ****** ****** ****** ******
      ****** ****** ****** ****** ****** ****** ****** ****** ****** ******
  13  ****** ****** ****** ****** ****** ****** ****** ****** ****** ******
      ****** ****** ****** ****** ****** ****** ****** ****** ****** ******
      ****** ****** ****** ****** ****** ****** ****** ****** ****** ******
  14  ****** ****** ****** ****** ****** ****** ****** ****** ****** ******
      ****** ****** ****** ****** ****** ****** ****** ****** ****** ******
      ****** ****** ****** ****** ****** ****** ****** ****** ****** ******
  15  ****** ****** ****** ****** ****** ****** ****** ****** ****** ******
      ****** ****** ****** ****** ****** ****** ****** ****** ****** ******
      ****** ****** ****** ****** ****** ****** ****** ****** ****** ******
  16  ****** ****** ****** ****** ****** ****** ****** ****** ****** ******
      ****** ****** ****** ****** ****** ****** ****** ****** ****** ******
      ****** ****** ****** ****** ****** ****** ****** ****** ****** ******
  17  ****** ****** ****** ****** ****** ****** ****** ****** ****** ******
      ****** ****** ****** ****** ****** ****** ****** ****** ****** ******
      ****** ****** ****** ****** ****** ****** ****** ****** ****** ******
  18  ****** ****** ****** ****** ****** ****** ****** ****** ****** ******
      ****** ****** ****** ****** ****** ****** ****** ****** ****** ******
      ****** ****** ****** ****** ****** ****** ****** ****** ****** ******
  19  ****** ****** ****** ****** ****** ****** ****** ****** ****** ******
      ****** ****** ****** ****** ****** ****** ****** ****** ****** ******
      ****** ****** ****** ****** ****** ****** ****** ****** ****** ******
  20  ****** ****** ****** ****** ****** ****** ****** ****** ****** ******
      ****** ****** ****** ****** ****** ****** ****** ****** ****** ******
      ****** ****** ****** ****** ****** ****** ****** ****** ****** ******
  21  ****** ****** ****** ****** ****** ****** ****** ****** ****** ******
      ****** ****** ****** ****** ****** ****** ****** ****** ****** ******
      ****** ****** ****** ****** ****** ****** ****** ****** ****** ******
  22  ****** ****** ****** ****** ****** ****** ****** ****** ****** ******
      ****** ****** ****** ****** ****** ****** ****** ****** ****** ******
      ****** ****** ****** ****** ****** ****** ****** ****** ****** ******
  23  ****** ****** ****** ****** ****** ****** ****** ****** ****** ******
      ****** ****** ****** ****** ****** ****** ****** ****** ****** ******
      ****** ****** ****** ****** ****** ****** ****** ****** ****** ******
  24  ****** ****** ****** ****** ****** ****** ****** ****** ****** ******
      ****** ****** ****** ****** ****** ****** ****** ****** ****** ******
      ****** ****** ****** ****** ****** ****** ****** ****** ****** ******
  25  ****** ****** ****** ****** ****** ****** ****** ****** ****** ******
      ****** ****** ****** ****** ****** ****** ****** ****** ****** ******
      ****** ****** ****** ****** ****** ****** ****** ****** ****** ******

 HEAD WILL BE SAVED ON UNIT   51 AT END OF TIME STEP    1, STRESS PERIOD   11
1
  VOLUMETRIC BUDGET FOR ENTIRE MODEL AT END OF TIME STEP    1, STRESS PERIOD  11
  ------------------------------------------------------------------------------

     CUMULATIVE VOLUMES      L**3       RATES FOR THIS TIME STEP      L**3/T
     ------------------                 ------------------------

           IN:                                      IN:
           ---                                      ---
             STORAGE =    36063631.8785               STORAGE =       17937.7576
       CONSTANT HEAD =    29008802.0547         CONSTANT HEAD =       35297.1435
               WELLS =           0.0000                 WELLS =           0.0000
            RECHARGE =    23901600.0000              RECHARGE =           0.0000
      STREAM LEAKAGE =    11732702.9359        STREAM LEAKAGE =       15421.0250

            TOTAL IN =   100706736.8691              TOTAL IN =       68655.9261

          OUT:                                     OUT:
          ----                                     ----
             STORAGE =     2336447.5525               STORAGE =           0.0000
       CONSTANT HEAD =           0.0000         CONSTANT HEAD =           0.0000
               WELLS =    33587717.1081                 WELLS =       33453.9015
            RECHARGE =           0.0000              RECHARGE =           0.0000
      STREAM LEAKAGE =    64782574.2040        STREAM LEAKAGE =       35202.0296

           TOTAL OUT =   100706738.8646             TOTAL OUT =       68655.9311

            IN - OUT =          -1.9956              IN - OUT =      -4.9951E-03

 PERCENT DISCREPANCY =          -0.00     PERCENT DISCREPANCY =          -0.00






         TIME SUMMARY AT END OF TIME STEP    1 IN STRESS PERIOD   11
                    SECONDS     MINUTES      HOURS       DAYS        YEARS
                    -----------------------------------------------------------
   TIME STEP LENGTH 7.86240E+06 1.31040E+05  2184.0      91.000     0.24914    
 STRESS PERIOD TIME 7.86240E+06 1.31040E+05  2184.0      91.000     0.24914    
         TOTAL TIME 8.67456E+07 1.44576E+06  24096.      1004.0      2.7488    
1
1
                            STRESS PERIOD NO.   12, LENGTH =   91.00000    
                            -----------------------------------------------

                              NUMBER OF TIME STEPS =     1

                               MULTIPLIER FOR DELT =     1.500

                            INITIAL TIME STEP SIZE =   91.00000    

 WELL NO.  LAYER   ROW   COL   STRESS RATE         
 --------------------------------------------------
      1      1     22     27      -6314.    
      2      1     16     14     -0.1197E+05
      3      1     11      6      -1537.    
      4      1     17     21     -0.1363E+05

      4 WELLS

                 RECHARGE =  1.000000E-03

 REUSING STREAM SEGMENT DATA FROM LAST STRESS PERIOD
 
 SOLVING FOR HEAD 


     7 CALLS TO PCG ROUTINE FOR TIME STEP   1 IN STRESS PERIOD   12
    24 TOTAL ITERATIONS

 OUTPUT CONTROL FOR STRESS PERIOD   12   TIME STEP    1
    SAVE BUDGET
    SAVE HEAD FOR ALL LAYERS
    PRINT HEAD FOR ALL LAYERS
 UBDSV2 SAVING "STREAMFLOW OUT  " ON UNIT  50 AT TIME STEP  1, STRESS PERIOD  12



 STREAM LISTING     PERIOD     12   STEP        1

 LAYER ROW COL. STREAM  RCH.  FLOW INTO     FLOW TO   FLOW OUT OF   OVRLND.     DIRECT     STREAM       STREAM     STREAM     STREAM   STREAMBED  STREAMBED
                SEG.NO.  NO.  STRM. RCH.    AQUIFER    STRM. RCH.    RUNOFF     PRECIP       ET          HEAD       DEPTH      WIDTH   CONDCTNC.   GRADIENT

   1   13    1     1     1    1.0000E+05 -1.5446E+03   1.0154E+05  0.000E+00  0.000E+00  0.000E+00  4.84067E+01  1.453E-01  2.000E+01  2.000E+04 -7.723E-02
   1   13    2     1     2    1.0154E+05 -2.4090E+03   1.0395E+05  0.000E+00  0.000E+00  0.000E+00  4.79311E+01  1.470E-01  2.000E+01  2.000E+04 -1.205E-01
   1   14    3     1     3    1.0395E+05 -3.5765E+02   1.0431E+05  0.000E+00  0.000E+00  0.000E+00  4.74550E+01  1.482E-01  2.000E+01  2.000E+04 -1.788E-02
   1   15    4     1     4    1.0431E+05 -3.3487E+02   1.0465E+05  0.000E+00  0.000E+00  0.000E+00  4.69781E+01  1.485E-01  2.000E+01  2.000E+04 -1.674E-02
   1   16    5     1     5    1.0465E+05 -1.4009E+03   1.0605E+05  0.000E+00  0.000E+00  0.000E+00  4.65015E+01  1.492E-01  2.000E+01  2.000E+04 -7.004E-02
   1   16    6     1     6    1.0605E+05 -8.4130E+02   1.0689E+05  0.000E+00  0.000E+00  0.000E+00  4.60252E+01  1.502E-01  2.000E+01  2.000E+04 -4.206E-02
   1   16    7     1     7    1.0689E+05 -7.9902E+02   1.0769E+05  0.000E+00  0.000E+00  0.000E+00  4.55486E+01  1.509E-01  2.000E+01  2.000E+04 -3.995E-02
   1   16    8     1     8    1.0769E+05 -7.6331E+02   1.0845E+05  0.000E+00  0.000E+00  0.000E+00  4.50720E+01  1.515E-01  2.000E+01  2.000E+04 -3.817E-02
   1   16    9     1     9    1.0845E+05 -7.0283E+02   1.0915E+05  0.000E+00  0.000E+00  0.000E+00  4.45953E+01  1.522E-01  2.000E+01  2.000E+04 -3.514E-02
   1   16   10     1    10    1.0915E+05 -5.9219E+02   1.0975E+05  0.000E+00  0.000E+00  0.000E+00  4.41186E+01  1.527E-01  2.000E+01  2.000E+04 -2.961E-02
   1   16   11     1    11    1.0975E+05 -3.5642E+02   1.1010E+05  0.000E+00  0.000E+00  0.000E+00  4.36417E+01  1.531E-01  2.000E+01  2.000E+04 -1.782E-02
   1   16   12     1    12    1.1010E+05  1.1800E+03   1.0892E+05  0.000E+00  0.000E+00  0.000E+00  4.31641E+01  1.528E-01  2.000E+01  2.000E+04  5.900E-02
   1   15   13     1    13    1.0892E+05  2.1898E+03   1.0673E+05  0.000E+00  0.000E+00  0.000E+00  4.26854E+01  1.513E-01  2.000E+01  2.000E+04  1.095E-01
   1   14   14     1    14    1.0673E+05  8.3064E+02   1.0590E+05  0.000E+00  0.000E+00  0.000E+00  4.22069E+01  1.501E-01  2.000E+01  2.000E+04  4.153E-02
   1   13   15     1    15    1.0590E+05 -9.2457E+02   1.0683E+05  0.000E+00  0.000E+00  0.000E+00  4.17297E+01  1.501E-01  2.000E+01  2.000E+04 -4.623E-02
   1   12   16     1    16    1.0683E+05 -2.3398E+03   1.0917E+05  0.000E+00  0.000E+00  0.000E+00  4.12538E+01  1.515E-01  2.000E+01  2.000E+04 -1.170E-01
   1   12   17     1    17    1.0917E+05 -1.2844E+03   1.1045E+05  0.000E+00  0.000E+00  0.000E+00  4.07780E+01  1.530E-01  2.000E+01  2.000E+04 -6.422E-02
   1   12   18     1    18    1.1045E+05 -1.1960E+03   1.1165E+05  0.000E+00  0.000E+00  0.000E+00  4.03018E+01  1.540E-01  2.000E+01  2.000E+04 -5.980E-02
   1   12   19     1    19    1.1165E+05 -1.8646E+03   1.1351E+05  0.000E+00  0.000E+00  0.000E+00  3.98258E+01  1.553E-01  2.000E+01  2.000E+04 -9.323E-02
   1   13   20     1    20    1.1351E+05 -3.5024E+02   1.1386E+05  0.000E+00  0.000E+00  0.000E+00  3.93494E+01  1.562E-01  2.000E+01  2.000E+04 -1.751E-02
   1   14   21     1    21    1.1386E+05  1.7518E+03   1.1211E+05  0.000E+00  0.000E+00  0.000E+00  3.88716E+01  1.556E-01  2.000E+01  2.000E+04  8.759E-02
   1   14   22     1    22    1.1211E+05  5.5015E+03   1.0661E+05  0.000E+00  0.000E+00  0.000E+00  3.83913E+01  1.526E-01  2.000E+01  2.000E+04  2.751E-01
   1    9   30     2     1    5.0000E+04 -6.6791E+02   5.0668E+04  0.000E+00  0.000E+00  0.000E+00  4.02413E+01  1.163E-01  2.000E+01  2.000E+04 -3.340E-02
   1    9   29     2     2    5.0668E+04 -9.6602E+02   5.1634E+04  0.000E+00  0.000E+00  0.000E+00  3.99925E+01  1.175E-01  2.000E+01  2.000E+04 -4.830E-02
   1    9   28     2     3    5.1634E+04 -1.2180E+03   5.2852E+04  0.000E+00  0.000E+00  0.000E+00  3.97440E+01  1.190E-01  2.000E+01  2.000E+04 -6.090E-02
   1    9   27     2     4    5.2852E+04 -2.4648E+03   5.5317E+04  0.000E+00  0.000E+00  0.000E+00  3.94965E+01  1.215E-01  2.000E+01  2.000E+04 -1.232E-01
   1   10   26     2     5    5.5317E+04 -1.6822E+03   5.6999E+04  0.000E+00  0.000E+00  0.000E+00  3.92492E+01  1.242E-01  2.000E+01  2.000E+04 -8.411E-02
   1   11   25     2     6    5.6999E+04 -1.4841E+03   5.8483E+04  0.000E+00  0.000E+00  0.000E+00  3.90013E+01  1.263E-01  2.000E+01  2.000E+04 -7.420E-02
   1   12   24     2     7    5.8483E+04 -1.5478E+03   6.0031E+04  0.000E+00  0.000E+00  0.000E+00  3.87533E+01  1.283E-01  2.000E+01  2.000E+04 -7.739E-02
   1   13   23     2     8    6.0031E+04 -2.6026E+02   6.0291E+04  0.000E+00  0.000E+00  0.000E+00  3.85045E+01  1.295E-01  2.000E+01  2.000E+04 -1.301E-02
   1   14   22     2     9    6.0291E+04  2.7335E+03   5.7557E+04  0.000E+00  0.000E+00  0.000E+00  3.82529E+01  1.279E-01  2.000E+01  2.000E+04  1.367E-01
   1   14   22     3     1    1.6417E+05 -7.9338E+03   1.7210E+05  0.000E+00  0.000E+00  0.000E+00  3.77195E+01  1.639E-01  2.000E+01  2.000E+04 -3.967E-01
   1   15   23     3     2    1.7210E+05  2.1244E+02   1.7189E+05  0.000E+00  0.000E+00  0.000E+00  3.68329E+01  1.662E-01  2.000E+01  2.000E+04  1.062E-02
   1   15   24     3     3    1.7189E+05 -7.5077E+01   1.7196E+05  0.000E+00  0.000E+00  0.000E+00  3.59439E+01  1.662E-01  2.000E+01  2.000E+04 -3.754E-03
   1   15   25     3     4    1.7196E+05 -1.4060E+02   1.7210E+05  0.000E+00  0.000E+00  0.000E+00  3.50551E+01  1.662E-01  2.000E+01  2.000E+04 -7.030E-03
   1   15   26     3     5    1.7210E+05 -2.5604E+02   1.7236E+05  0.000E+00  0.000E+00  0.000E+00  3.41663E+01  1.663E-01  2.000E+01  2.000E+04 -1.280E-02
   1   16   27     3     6    1.7236E+05 -2.1420E+02   1.7257E+05  0.000E+00  0.000E+00  0.000E+00  3.32776E+01  1.665E-01  2.000E+01  2.000E+04 -1.071E-02
   1   17   28     3     7    1.7257E+05 -6.7996E+02   1.7325E+05  0.000E+00  0.000E+00  0.000E+00  3.23889E+01  1.667E-01  2.000E+01  2.000E+04 -3.400E-02
   1   18   29     3     8    1.7325E+05 -6.9109E+02   1.7394E+05  0.000E+00  0.000E+00  0.000E+00  3.15005E+01  1.671E-01  2.000E+01  2.000E+04 -3.455E-02
   1   18   30     3     9    1.7394E+05 -1.7988E+03   1.7574E+05  0.000E+00  0.000E+00  0.000E+00  3.06123E+01  1.678E-01  2.000E+01  2.000E+04 -8.994E-02



1
              HEAD IN LAYER   1 AT END OF TIME STEP   1 IN STRESS PERIOD   12
  ---------------------------------------------------------------------------

          1      2      3      4      5      6      7      8      9     10
         11     12     13     14     15     16     17     18     19     20
         21     22     23     24     25     26     27     28     29     30
 .........................................................................
   1  ****** ****** ****** ****** ****** ****** ****** ****** ****** ******
      ****** ****** ****** ****** ****** ****** ****** ****** ****** ******
      ****** ****** ****** ****** ****** ****** ****** ****** ****** ******
   2  ****** ****** ****** ****** ****** ****** ****** ****** ****** ******
      ****** ****** ****** ****** ****** ****** ****** ****** ****** ******
      ****** ****** ****** ****** ****** ****** ****** ****** ****** ******
   3  ****** ****** ****** ****** ****** ****** ****** ****** ****** ******
      ****** ****** ****** ****** ****** ****** ****** ****** ****** ******
      ****** ****** ****** ****** ****** ****** ****** ****** ****** ******
   4  ****** ****** ****** ****** ****** ****** ****** ****** ****** ******
      ****** ****** ****** ****** ****** ****** ****** ****** ****** ******
      ****** ****** ****** ****** ****** ****** ****** ****** ****** ******
   5  ****** ****** ****** ****** ****** ****** ****** ****** ****** ******
      ****** ****** ****** ****** ****** ****** ****** ****** ****** ******
      ****** ****** ****** ****** ****** ****** ****** ****** ****** ******
   6  ****** ****** ****** ****** ****** ****** ****** ****** ****** ******
      ****** ****** ****** ****** ****** ****** ****** ****** ****** ******
      ****** ****** ****** ****** ****** ****** ****** ****** ****** ******
   7  ****** ****** ****** ****** ****** ****** ****** ****** ****** ******
      ****** ****** ****** ****** ****** ****** ****** ****** ****** ******
      ****** ****** ****** ****** ****** ****** ****** ****** ****** ******
   8  ****** ****** ****** ****** ****** ****** ****** ****** ****** ******
      ****** ****** ****** ****** ****** ****** ****** ****** ****** ******
      ****** ****** ****** ****** ****** ****** ****** ****** ****** ******
   9  ****** ****** ****** ****** ****** ****** ****** ****** ****** ******
      ****** ****** ****** ****** ****** ****** ****** ****** ****** ******
      ****** ****** ****** ****** ****** ****** ****** ****** ****** ******
  10  ****** ****** ****** ****** ****** ****** ****** ****** ****** ******
      ****** ****** ****** ****** ****** ****** ****** ****** ****** ******
      ****** ****** ****** ****** ****** ****** ****** ****** ****** ******
  11  ****** ****** ****** ****** ****** ****** ****** ****** ****** ******
      ****** ****** ****** ****** ****** ****** ****** ****** ****** ******
      ****** ****** ****** ****** ****** ****** ****** ****** ****** ******
  12  ****** ****** ****** ****** ****** ****** ****** ****** ****** ******
      ****** ****** ****** ****** ****** ****** ****** ****** ****** ******
      ****** ****** ****** ****** ****** ****** ****** ****** ****** ******
  13  ****** ****** ****** ****** ****** ****** ****** ****** ****** ******
      ****** ****** ****** ****** ****** ****** ****** ****** ****** ******
      ****** ****** ****** ****** ****** ****** ****** ****** ****** ******
  14  ****** ****** ****** ****** ****** ****** ****** ****** ****** ******
      ****** ****** ****** ****** ****** ****** ****** ****** ****** ******
      ****** ****** ****** ****** ****** ****** ****** ****** ****** ******
  15  ****** ****** ****** ****** ****** ****** ****** ****** ****** ******
      ****** ****** ****** ****** ****** ****** ****** ****** ****** ******
      ****** ****** ****** ****** ****** ****** ****** ****** ****** ******
  16  ****** ****** ****** ****** ****** ****** ****** ****** ****** ******
      ****** ****** ****** ****** ****** ****** ****** ****** ****** ******
      ****** ****** ****** ****** ****** ****** ****** ****** ****** ******
  17  ****** ****** ****** ****** ****** ****** ****** ****** ****** ******
      ****** ****** ****** ****** ****** ****** ****** ****** ****** ******
      ****** ****** ****** ****** ****** ****** ****** ****** ****** ******
  18  ****** ****** ****** ****** ****** ****** ****** ****** ****** ******
      ****** ****** ****** ****** ****** ****** ****** ****** ****** ******
      ****** ****** ****** ****** ****** ****** ****** ****** ****** ******
  19  ****** ****** ****** ****** ****** ****** ****** ****** ****** ******
      ****** ****** ****** ****** ****** ****** ****** ****** ****** ******
      ****** ****** ****** ****** ****** ****** ****** ****** ****** ******
  20  ****** ****** ****** ****** ****** ****** ****** ****** ****** ******
      ****** ****** ****** ****** ****** ****** ****** ****** ****** ******
      ****** ****** ****** ****** ****** ****** ****** ****** ****** ******
  21  ****** ****** ****** ****** ****** ****** ****** ****** ****** ******
      ****** ****** ****** ****** ****** ****** ****** ****** ****** ******
      ****** ****** ****** ****** ****** ****** ****** ****** ****** ******
  22  ****** ****** ****** ****** ****** ****** ****** ****** ****** ******
      ****** ****** ****** ****** ****** ****** ****** ****** ****** ******
      ****** ****** ****** ****** ****** ****** ****** ****** ****** ******
  23  ****** ****** ****** ****** ****** ****** ****** ****** ****** ******
      ****** ****** ****** ****** ****** ****** ****** ****** ****** ******
      ****** ****** ****** ****** ****** ****** ****** ****** ****** ******
  24  ****** ****** ****** ****** ****** ****** ****** ****** ****** ******
      ****** ****** ****** ****** ****** ****** ****** ****** ****** ******
      ****** ****** ****** ****** ****** ****** ****** ****** ****** ******
  25  ****** ****** ****** ****** ****** ****** ****** ****** ****** ******
      ****** ****** ****** ****** ****** ****** ****** ****** ****** ******
      ****** ****** ****** ****** ****** ****** ****** ****** ****** ******

 HEAD WILL BE SAVED ON UNIT   51 AT END OF TIME STEP    1, STRESS PERIOD   12
1
  VOLUMETRIC BUDGET FOR ENTIRE MODEL AT END OF TIME STEP    1, STRESS PERIOD  12
  ------------------------------------------------------------------------------

     CUMULATIVE VOLUMES      L**3       RATES FOR THIS TIME STEP      L**3/T
     ------------------                 ------------------------

           IN:                                      IN:
           ---                                      ---
             STORAGE =    36064542.3345               STORAGE =          10.0050
       CONSTANT HEAD =    32157492.1956         CONSTANT HEAD =       34600.9906
               WELLS =           0.0000                 WELLS =           0.0000
            RECHARGE =    26413200.0000              RECHARGE =       27600.0000
      STREAM LEAKAGE =    13043075.3029        STREAM LEAKAGE =       14399.6963

            TOTAL IN =   107678309.8329              TOTAL IN =       76610.6919

          OUT:                                     OUT:
          ----                                     ----
             STORAGE =     2610762.6689               STORAGE =        3014.4518
       CONSTANT HEAD =           0.0000         CONSTANT HEAD =           0.0000
               WELLS =    36632022.1448                 WELLS =       33453.9015
            RECHARGE =           0.0000              RECHARGE =           0.0000
      STREAM LEAKAGE =    68435526.9253        STREAM LEAKAGE =       40142.3376

           TOTAL OUT =   107678311.7390             TOTAL OUT =       76610.6909

            IN - OUT =          -1.9061              IN - OUT =       9.8368E-04

 PERCENT DISCREPANCY =          -0.00     PERCENT DISCREPANCY =           0.00






         TIME SUMMARY AT END OF TIME STEP    1 IN STRESS PERIOD   12
                    SECONDS     MINUTES      HOURS       DAYS        YEARS
                    -----------------------------------------------------------
   TIME STEP LENGTH 7.86240E+06 1.31040E+05  2184.0      91.000     0.24914    
 STRESS PERIOD TIME 7.86240E+06 1.31040E+05  2184.0      91.000     0.24914    
         TOTAL TIME 9.46080E+07 1.57680E+06  26280.      1095.0      2.9979    
1

 Run end date and time (yyyy/mm/dd hh:mm:ss): 2019/02/09 20:23:04
 Elapsed run time:  0.079 Seconds

