                                  MODFLOW-2005     
      U.S. GEOLOGICAL SURVEY MODULAR FINITE-DIFFERENCE GROUND-WATER FLOW MODEL
                            VERSION 1.11.00 8/8/2013

 LIST FILE: supply2.lst
                         UNIT   10

 OPENING ..\data\supply.dis
 FILE TYPE:DIS   UNIT   11   STATUS:OLD    
 FORMAT:FORMATTED              ACCESS:SEQUENTIAL          

 OPENING ..\data\supply.ba6
 FILE TYPE:BAS6   UNIT   12   STATUS:OLD    
 FORMAT:FORMATTED              ACCESS:SEQUENTIAL          

 OPENING ..\data\supply_het.bc6
 FILE TYPE:BCF6   UNIT   13   STATUS:OLD    
 FORMAT:FORMATTED              ACCESS:SEQUENTIAL          

 OPENING ..\data\supply.rch
 FILE TYPE:RCH   UNIT   15   STATUS:OLD    
 FORMAT:FORMATTED              ACCESS:SEQUENTIAL          

 OPENING ..\data\supply2.sfr
 FILE TYPE:SFR   UNIT   16   STATUS:OLD    
 FORMAT:FORMATTED              ACCESS:SEQUENTIAL          

 OPENING ..\data\supply.oc
 FILE TYPE:OC   UNIT   17   STATUS:OLD    
 FORMAT:FORMATTED              ACCESS:SEQUENTIAL          

 OPENING ..\data\supply.pcg
 FILE TYPE:PCG   UNIT   18   STATUS:OLD    
 FORMAT:FORMATTED              ACCESS:SEQUENTIAL          

 OPENING supply2.wel
 FILE TYPE:WEL   UNIT   19   STATUS:OLD    
 FORMAT:FORMATTED              ACCESS:SEQUENTIAL          

 OPENING supply2sf.cbc
 FILE TYPE:DATA(BINARY)   UNIT   50   STATUS:UNKNOWN
 FORMAT:BINARY                 ACCESS:SEQUENTIAL          

 OPENING supply2hd.bhd
 FILE TYPE:DATA(BINARY)   UNIT   51   STATUS:UNKNOWN
 FORMAT:BINARY                 ACCESS:SEQUENTIAL          

 BAS -- BASIC PACKAGE, VERSION 7, 5/2/2005 INPUT READ FROM UNIT   12
 
 MODFLOW was compiled using uniform precision
 Precision of REAL and DOUBLE PRECISION variables:          15

 DISCRETIZATION INPUT DATA READ FROM UNIT   11
    1 LAYERS        25 ROWS        30 COLUMNS
   12 STRESS PERIOD(S) IN SIMULATION
 MODEL TIME UNIT IS DAYS
 MODEL LENGTH UNIT IS UNDEFINED
  Confining bed flag for each layer:
   0

                     DELR =   200.000    

                     DELC =   200.000    

 TOP ELEVATION OF LAYER 1 =  100.0000    

   MODEL LAYER BOTTOM EL. =   0.00000     FOR LAYER   1


 STRESS PERIOD     LENGTH       TIME STEPS     MULTIPLIER FOR DELT    SS FLAG
 ----------------------------------------------------------------------------
        1         92.00000          1                    1.500         TR
        2         91.00000          1                    1.500         TR
        3         91.00000          1                    1.500         TR
        4         91.00000          1                    1.500         TR
        5         92.00000          1                    1.500         TR
        6         91.00000          1                    1.500         TR
        7         91.00000          1                    1.500         TR
        8         91.00000          1                    1.500         TR
        9         92.00000          1                    1.500         TR
       10         91.00000          1                    1.500         TR
       11         91.00000          1                    1.500         TR
       12         91.00000          1                    1.500         TR

 TRANSIENT SIMULATION



 
 #MODOFC transient water supply sample problem                                   
 #                                                                               
 THE FREE FORMAT OPTION HAS BEEN SELECTED



                     BOUNDARY ARRAY FOR LAYER   1
 READING ON UNIT   12 WITH FORMAT: (20I4)              

 AQUIFER HEAD WILL BE SET TO   0.0000     AT ALL NO-FLOW NODES (IBOUND=0).



                       INITIAL HEAD FOR LAYER   1
 READING ON UNIT   12 WITH FORMAT: (10F13.0)           

 OUTPUT CONTROL IS SPECIFIED ONLY AT TIME STEPS FOR WHICH OUTPUT IS DESIRED
 COMPACT CELL-BY-CELL BUDGET FILES WILL BE WRITTEN
 HEAD PRINT FORMAT CODE IS  18    DRAWDOWN PRINT FORMAT CODE IS   0
 HEADS WILL BE SAVED ON UNIT   51    DRAWDOWNS WILL BE SAVED ON UNIT    0

 BCF -- BLOCK-CENTERED FLOW PACKAGE, VERSION 7, 5/2/2005
         INPUT READ FROM UNIT 13
 TRANSIENT SIMULATION
 HEAD AT CELLS THAT CONVERT TO DRY=   0.0000    
 WETTING CAPABILITY IS NOT ACTIVE
      LAYER  LAYER-TYPE CODE     INTERBLOCK T
      --------------------------------------------
         1            0          0 -- HARMONIC    

 COLUMN TO ROW ANISOTROPY =  1.000000    

     PRIMARY STORAGE COEF =  5.000000E-02 FOR LAYER   1



               TRANSMIS. ALONG ROWS FOR LAYER   1
 READING ON UNIT   13 WITH FORMAT: (FREE)              

 WEL -- WELL PACKAGE, VERSION 7, 5/2/2005 INPUT READ FROM UNIT   19
 # Well package input file written by MMProc
 No named parameters
 MAXIMUM OF      4 ACTIVE WELLS AT ONE TIME


     0 Well parameters

 RCH -- RECHARGE PACKAGE, VERSION 7, 5/2/2005 INPUT READ FROM UNIT   15
 No named parameters
 OPTION 1 -- RECHARGE TO TOP LAYER


     0 Recharge parameters

 SFR7 -- STREAMFLOW ROUTING PACKAGE, VERSION 1.0.7, 2013-01-15
         INPUT READ FROM UNIT  16
 #  Supply2 test problem for GWM-VI
 #  The eighth entry in the first data line is ISTCB2 -
 #    Setting this to a negative number indicates that
 #    streamflows out of the reach will be saved to a
 #    binary file.  The absolute value of ISTCB2 is the
 #    unit to which unformatted flows will be written.
 #
 No named parameters
 Segment information will not be 
 read by reach
 No named parameters
 No specifed inflow files


 NUMBER OF STREAM REACHES IS   40

 NUMBER OF STREAM SEGMENTS IS    3

 NUMBER OF STREAM PARAMETERS IS    0

 NUMBER OF STREAM SEGMENTS DEFINED USING PARAMETERS IS              0

 MAXIMUM ERROR FOR STREAM LEAKAGE RATES IS  1.00E-04

 CONSTANT FOR MANNINGS EQUATION IS  1.2839E+05





   STREAM NETWORK DESCRIPTION: 

   LAYER    ROW    COL   SEGMENT   REACH     LENGTH
                          NUMBER   NUMBER    IN CELL        
   --------------------------------------------------
      1     13      1       1        1    2.0000E+02
      1     13      2       1        2    2.0000E+02
      1     14      3       1        3    2.0000E+02
      1     15      4       1        4    2.0000E+02
      1     16      5       1        5    2.0000E+02
      1     16      6       1        6    2.0000E+02
      1     16      7       1        7    2.0000E+02
      1     16      8       1        8    2.0000E+02
      1     16      9       1        9    2.0000E+02
      1     16     10       1       10    2.0000E+02
      1     16     11       1       11    2.0000E+02
      1     16     12       1       12    2.0000E+02
      1     15     13       1       13    2.0000E+02
      1     14     14       1       14    2.0000E+02
      1     13     15       1       15    2.0000E+02
      1     12     16       1       16    2.0000E+02
      1     12     17       1       17    2.0000E+02
      1     12     18       1       18    2.0000E+02
      1     12     19       1       19    2.0000E+02
      1     13     20       1       20    2.0000E+02
      1     14     21       1       21    2.0000E+02
      1     14     22       1       22    2.0000E+02
      1      9     30       2        1    2.0000E+02
      1      9     29       2        2    2.0000E+02
      1      9     28       2        3    2.0000E+02
      1      9     27       2        4    2.0000E+02
      1     10     26       2        5    2.0000E+02
      1     11     25       2        6    2.0000E+02
      1     12     24       2        7    2.0000E+02
      1     13     23       2        8    2.0000E+02
      1     14     22       2        9    2.0000E+02
      1     14     22       3        1    2.0000E+02
      1     15     23       3        2    2.0000E+02
      1     15     24       3        3    2.0000E+02
      1     15     25       3        4    2.0000E+02
      1     15     26       3        5    2.0000E+02
      1     16     27       3        6    2.0000E+02
      1     17     28       3        7    2.0000E+02
      1     18     29       3        8    2.0000E+02
      1     18     30       3        9    2.0000E+02




 PCG -- CONJUGATE-GRADIENT SOLUTION PACKAGE, VERSION 7, 5/2/2005
 MAXIMUM OF    500 CALLS OF SOLUTION ROUTINE
 MAXIMUM OF      5 INTERNAL ITERATIONS PER CALL TO SOLUTION ROUTINE
 MATRIX PRECONDITIONING TYPE :    1



                                    SOLUTION BY THE CONJUGATE-GRADIENT METHOD
                                   -------------------------------------------
                    MAXIMUM NUMBER OF CALLS TO PCG ROUTINE =      500
                        MAXIMUM ITERATIONS PER CALL TO PCG =        5
                               MATRIX PRECONDITIONING TYPE =        1
        RELAXATION FACTOR (ONLY USED WITH PRECOND. TYPE 1) =    0.10000E+01
 PARAMETER OF POLYNOMIAL PRECOND. = 2 (2) OR IS CALCULATED :        0
                         HEAD CHANGE CRITERION FOR CLOSURE =    0.10000E-05
                     RESIDUAL CHANGE CRITERION FOR CLOSURE =    0.10000E+01
            PCG HEAD AND RESIDUAL CHANGE PRINTOUT INTERVAL =        1
     PRINTING FROM SOLVER IS LIMITED(1) OR SUPPRESSED (>1) =        1
                            STEADY-STATE DAMPING PARAMETER =    0.10000E+01
                               TRANSIENT DAMPING PARAMETER =    0.10000E+01
1
                            STRESS PERIOD NO.    1, LENGTH =   92.00000    
                            -----------------------------------------------

                              NUMBER OF TIME STEPS =     1

                               MULTIPLIER FOR DELT =     1.500

                            INITIAL TIME STEP SIZE =   92.00000    

 WELL NO.  LAYER   ROW   COL   STRESS RATE         
 --------------------------------------------------
      1      1     10     24     -0.1046E+05
      2      1      7      8      -7751.    
      3      1      5     20     -0.1234E+05
      4      1     11     21      -9620.    

      4 WELLS

                 RECHARGE =  5.000000E-04



 CLASSIFICATION & COUNT OF STREAM SEGMENTS BASED ON SOURCE OF INFLOW:

                HEADWATER     DIVERSION     RECEIVES TRIBUTARY FLOW
                ---------     ---------     -----------------------
                     2              0               1



                    INPUT DATA FOR EACH STREAM SEGMENT
 ---------------------------------------------------------------------------------------------

 SEGMENT    SEG.     INFLOW   OVERLAND   STREAM    STREAM   ICALC  OUTFLOW  DIVERSION PRIORITY
    NO.    LENGTH     RATE     RUNOFF      ET       PPT.    METH.  TO SEG.  FROM SEG.    NO.

      1  4.400E+03 1.000E+05 0.000E+00 0.000E+00 0.000E+00    1        3        0        0
      2  1.800E+03 5.000E+04 0.000E+00 0.000E+00 0.000E+00    1        3        0        0
      3  1.800E+03 0.000E+00 0.000E+00 0.000E+00 0.000E+00    1        0        0        0


         STREAMBED PROPERTIES AND STREAM DIMENSIONS

 SEGMENT     BED HYD. COND.      BED THICKNESS     ELEV.-TOP OF BED     WIDTH OF STREAM     DEPTH OF STREAM    STREAM ROUGHNESS
    No.     UPPER     LOWER     UPPER     LOWER     UPPER     LOWER     UPPER     LOWER     UPPER     LOWER   CHANNEL      BANK

     1  5.000E+00 5.000E+00 1.000E+00 1.000E+00 4.850E+01 3.800E+01 2.000E+01 2.000E+01                     5.000E-02
     2  5.000E+00 5.000E+00 1.000E+00 1.000E+00 4.025E+01 3.800E+01 2.000E+01 2.000E+01                     5.000E-02
     3  5.000E+00 5.000E+00 1.000E+00 1.000E+00 3.800E+01 3.000E+01 2.000E+01 2.000E+01                     5.000E-02



 
 SOLVING FOR HEAD 


     9 CALLS TO PCG ROUTINE FOR TIME STEP   1 IN STRESS PERIOD    1
    36 TOTAL ITERATIONS

 OUTPUT CONTROL FOR STRESS PERIOD    1   TIME STEP    1
    SAVE BUDGET
    SAVE HEAD FOR ALL LAYERS
    PRINT HEAD FOR ALL LAYERS
 UBDSV2 SAVING "STREAMFLOW OUT  " ON UNIT  50 AT TIME STEP  1, STRESS PERIOD   1



 STREAM LISTING     PERIOD      1   STEP        1

 LAYER ROW COL. STREAM  RCH.  FLOW INTO     FLOW TO   FLOW OUT OF   OVRLND.     DIRECT     STREAM       STREAM     STREAM     STREAM   STREAMBED  STREAMBED
                SEG.NO.  NO.  STRM. RCH.    AQUIFER    STRM. RCH.    RUNOFF     PRECIP       ET          HEAD       DEPTH      WIDTH   CONDCTNC.   GRADIENT

   1   13    1     1     1    1.0000E+05 -6.0065E+03   1.0601E+05  0.000E+00  0.000E+00  0.000E+00  4.84086E+01  1.472E-01  2.000E+01  2.000E+04 -3.003E-01
   1   13    2     1     2    1.0601E+05 -7.4708E+03   1.1348E+05  0.000E+00  0.000E+00  0.000E+00  4.79370E+01  1.529E-01  2.000E+01  2.000E+04 -3.735E-01
   1   14    3     1     3    1.1348E+05 -2.1931E+03   1.1567E+05  0.000E+00  0.000E+00  0.000E+00  4.74638E+01  1.570E-01  2.000E+01  2.000E+04 -1.097E-01
   1   15    4     1     4    1.1567E+05 -2.2674E+03   1.1794E+05  0.000E+00  0.000E+00  0.000E+00  4.69883E+01  1.588E-01  2.000E+01  2.000E+04 -1.134E-01
   1   16    5     1     5    1.1794E+05 -7.1852E+03   1.2512E+05  0.000E+00  0.000E+00  0.000E+00  4.65149E+01  1.626E-01  2.000E+01  2.000E+04 -3.593E-01
   1   16    6     1     6    1.2512E+05 -4.3030E+03   1.2943E+05  0.000E+00  0.000E+00  0.000E+00  4.60422E+01  1.672E-01  2.000E+01  2.000E+04 -2.152E-01
   1   16    7     1     7    1.2943E+05 -4.1381E+03   1.3356E+05  0.000E+00  0.000E+00  0.000E+00  4.55682E+01  1.705E-01  2.000E+01  2.000E+04 -2.069E-01
   1   16    8     1     8    1.3356E+05 -4.0977E+03   1.3766E+05  0.000E+00  0.000E+00  0.000E+00  4.50941E+01  1.737E-01  2.000E+01  2.000E+04 -2.049E-01
   1   16    9     1     9    1.3766E+05 -4.0880E+03   1.4175E+05  0.000E+00  0.000E+00  0.000E+00  4.46200E+01  1.768E-01  2.000E+01  2.000E+04 -2.044E-01
   1   16   10     1    10    1.4175E+05 -4.0866E+03   1.4584E+05  0.000E+00  0.000E+00  0.000E+00  4.41458E+01  1.799E-01  2.000E+01  2.000E+04 -2.043E-01
   1   16   11     1    11    1.4584E+05 -4.1234E+03   1.4996E+05  0.000E+00  0.000E+00  0.000E+00  4.36716E+01  1.829E-01  2.000E+01  2.000E+04 -2.062E-01
   1   16   12     1    12    1.4996E+05 -6.9952E+03   1.5695E+05  0.000E+00  0.000E+00  0.000E+00  4.31984E+01  1.870E-01  2.000E+01  2.000E+04 -3.498E-01
   1   15   13     1    13    1.5695E+05 -7.2601E+03   1.6422E+05  0.000E+00  0.000E+00  0.000E+00  4.27263E+01  1.922E-01  2.000E+01  2.000E+04 -3.630E-01
   1   14   14     1    14    1.6422E+05 -7.6918E+03   1.7191E+05  0.000E+00  0.000E+00  0.000E+00  4.22543E+01  1.975E-01  2.000E+01  2.000E+04 -3.846E-01
   1   13   15     1    15    1.7191E+05 -7.9333E+03   1.7984E+05  0.000E+00  0.000E+00  0.000E+00  4.17825E+01  2.030E-01  2.000E+01  2.000E+04 -3.967E-01
   1   12   16     1    16    1.7984E+05 -8.2867E+03   1.8813E+05  0.000E+00  0.000E+00  0.000E+00  4.13108E+01  2.085E-01  2.000E+01  2.000E+04 -4.143E-01
   1   12   17     1    17    1.8813E+05 -5.7825E+03   1.9391E+05  0.000E+00  0.000E+00  0.000E+00  4.08383E+01  2.133E-01  2.000E+01  2.000E+04 -2.891E-01
   1   12   18     1    18    1.9391E+05 -5.3896E+03   1.9930E+05  0.000E+00  0.000E+00  0.000E+00  4.03647E+01  2.170E-01  2.000E+01  2.000E+04 -2.695E-01
   1   12   19     1    19    1.9930E+05 -5.4922E+03   2.0479E+05  0.000E+00  0.000E+00  0.000E+00  3.98910E+01  2.206E-01  2.000E+01  2.000E+04 -2.746E-01
   1   13   20     1    20    2.0479E+05 -5.0457E+03   2.0984E+05  0.000E+00  0.000E+00  0.000E+00  3.94172E+01  2.240E-01  2.000E+01  2.000E+04 -2.523E-01
   1   14   21     1    21    2.0984E+05 -5.7209E+03   2.1556E+05  0.000E+00  0.000E+00  0.000E+00  3.89434E+01  2.275E-01  2.000E+01  2.000E+04 -2.860E-01
   1   14   22     1    22    2.1556E+05  3.9790E+03   2.1158E+05  0.000E+00  0.000E+00  0.000E+00  3.84667E+01  2.281E-01  2.000E+01  2.000E+04  1.989E-01
   1    9   30     2     1    5.0000E+04 -4.6872E+03   5.4687E+04  0.000E+00  0.000E+00  0.000E+00  4.02441E+01  1.191E-01  2.000E+01  2.000E+04 -2.344E-01
   1    9   29     2     2    5.4687E+04 -4.9463E+03   5.9633E+04  0.000E+00  0.000E+00  0.000E+00  4.00006E+01  1.256E-01  2.000E+01  2.000E+04 -2.473E-01
   1    9   28     2     3    5.9633E+04 -5.1274E+03   6.4761E+04  0.000E+00  0.000E+00  0.000E+00  3.97571E+01  1.321E-01  2.000E+01  2.000E+04 -2.564E-01
   1    9   27     2     4    6.4761E+04 -7.2047E+03   7.1966E+04  0.000E+00  0.000E+00  0.000E+00  3.95148E+01  1.398E-01  2.000E+01  2.000E+04 -3.602E-01
   1   10   26     2     5    7.1966E+04 -5.1004E+03   7.7066E+04  0.000E+00  0.000E+00  0.000E+00  3.92722E+01  1.472E-01  2.000E+01  2.000E+04 -2.550E-01
   1   11   25     2     6    7.7066E+04 -3.4489E+03   8.0515E+04  0.000E+00  0.000E+00  0.000E+00  3.90272E+01  1.522E-01  2.000E+01  2.000E+04 -1.724E-01
   1   12   24     2     7    8.0515E+04 -3.2890E+03   8.3804E+04  0.000E+00  0.000E+00  0.000E+00  3.87811E+01  1.561E-01  2.000E+01  2.000E+04 -1.645E-01
   1   13   23     2     8    8.3804E+04 -1.2692E+03   8.5073E+04  0.000E+00  0.000E+00  0.000E+00  3.85337E+01  1.587E-01  2.000E+01  2.000E+04 -6.346E-02
   1   14   22     2     9    8.5073E+04  3.2910E+02   8.4744E+04  0.000E+00  0.000E+00  0.000E+00  3.82842E+01  1.592E-01  2.000E+01  2.000E+04  1.646E-02
   1   14   22     3     1    2.9632E+05 -9.5925E+03   3.0592E+05  0.000E+00  0.000E+00  0.000E+00  3.77881E+01  2.326E-01  2.000E+01  2.000E+04 -4.796E-01
   1   15   23     3     2    3.0592E+05 -1.9875E+03   3.0790E+05  0.000E+00  0.000E+00  0.000E+00  3.69019E+01  2.352E-01  2.000E+01  2.000E+04 -9.938E-02
   1   15   24     3     3    3.0790E+05 -1.5290E+03   3.0943E+05  0.000E+00  0.000E+00  0.000E+00  3.60138E+01  2.360E-01  2.000E+01  2.000E+04 -7.645E-02
   1   15   25     3     4    3.0943E+05 -1.5784E+03   3.1101E+05  0.000E+00  0.000E+00  0.000E+00  3.51256E+01  2.368E-01  2.000E+01  2.000E+04 -7.892E-02
   1   15   26     3     5    3.1101E+05 -1.8816E+03   3.1289E+05  0.000E+00  0.000E+00  0.000E+00  3.42375E+01  2.375E-01  2.000E+01  2.000E+04 -9.408E-02
   1   16   27     3     6    3.1289E+05 -2.1641E+03   3.1506E+05  0.000E+00  0.000E+00  0.000E+00  3.33496E+01  2.385E-01  2.000E+01  2.000E+04 -1.082E-01
   1   17   28     3     7    3.1506E+05 -6.5776E+03   3.2163E+05  0.000E+00  0.000E+00  0.000E+00  3.24627E+01  2.405E-01  2.000E+01  2.000E+04 -3.289E-01
   1   18   29     3     8    3.2163E+05 -7.9946E+03   3.2963E+05  0.000E+00  0.000E+00  0.000E+00  3.15771E+01  2.437E-01  2.000E+01  2.000E+04 -3.997E-01
   1   18   30     3     9    3.2963E+05 -7.1743E+03   3.3680E+05  0.000E+00  0.000E+00  0.000E+00  3.06916E+01  2.471E-01  2.000E+01  2.000E+04 -3.587E-01



1
              HEAD IN LAYER   1 AT END OF TIME STEP   1 IN STRESS PERIOD    1
  ---------------------------------------------------------------------------

          1      2      3      4      5      6      7      8      9     10
         11     12     13     14     15     16     17     18     19     20
         21     22     23     24     25     26     27     28     29     30
 .........................................................................
   1  ****** ****** ****** ****** ****** ****** ****** ****** ****** ******
      ****** ****** ****** ****** ****** ****** ****** ****** ****** ******
      ****** ****** ****** ****** ****** ****** ****** ****** ****** ******
   2  ****** ****** ****** ****** ****** ****** ****** ****** ****** ******
      ****** ****** ****** ****** ****** ****** ****** ****** ****** ******
      ****** ****** ****** ****** ****** ****** ****** ****** ****** ******
   3  ****** ****** ****** ****** ****** ****** ****** ****** ****** ******
      ****** ****** ****** ****** ****** ****** ****** ****** ****** ******
      ****** ****** ****** ****** ****** ****** ****** ****** ****** ******
   4  ****** ****** ****** ****** ****** ****** ****** ****** ****** ******
      ****** ****** ****** ****** ****** ****** ****** ****** ****** ******
      ****** ****** ****** ****** ****** ****** ****** ****** ****** ******
   5  ****** ****** ****** ****** ****** ****** ****** ****** ****** ******
      ****** ****** ****** ****** ****** ****** ****** ****** ****** ******
      ****** ****** ****** ****** ****** ****** ****** ****** ****** ******
   6  ****** ****** ****** ****** ****** ****** ****** ****** ****** ******
      ****** ****** ****** ****** ****** ****** ****** ****** ****** ******
      ****** ****** ****** ****** ****** ****** ****** ****** ****** ******
   7  ****** ****** ****** ****** ****** ****** ****** ****** ****** ******
      ****** ****** ****** ****** ****** ****** ****** ****** ****** ******
      ****** ****** ****** ****** ****** ****** ****** ****** ****** ******
   8  ****** ****** ****** ****** ****** ****** ****** ****** ****** ******
      ****** ****** ****** ****** ****** ****** ****** ****** ****** ******
      ****** ****** ****** ****** ****** ****** ****** ****** ****** ******
   9  ****** ****** ****** ****** ****** ****** ****** ****** ****** ******
      ****** ****** ****** ****** ****** ****** ****** ****** ****** ******
      ****** ****** ****** ****** ****** ****** ****** ****** ****** ******
  10  ****** ****** ****** ****** ****** ****** ****** ****** ****** ******
      ****** ****** ****** ****** ****** ****** ****** ****** ****** ******
      ****** ****** ****** ****** ****** ****** ****** ****** ****** ******
  11  ****** ****** ****** ****** ****** ****** ****** ****** ****** ******
      ****** ****** ****** ****** ****** ****** ****** ****** ****** ******
      ****** ****** ****** ****** ****** ****** ****** ****** ****** ******
  12  ****** ****** ****** ****** ****** ****** ****** ****** ****** ******
      ****** ****** ****** ****** ****** ****** ****** ****** ****** ******
      ****** ****** ****** ****** ****** ****** ****** ****** ****** ******
  13  ****** ****** ****** ****** ****** ****** ****** ****** ****** ******
      ****** ****** ****** ****** ****** ****** ****** ****** ****** ******
      ****** ****** ****** ****** ****** ****** ****** ****** ****** ******
  14  ****** ****** ****** ****** ****** ****** ****** ****** ****** ******
      ****** ****** ****** ****** ****** ****** ****** ****** ****** ******
      ****** ****** ****** ****** ****** ****** ****** ****** ****** ******
  15  ****** ****** ****** ****** ****** ****** ****** ****** ****** ******
      ****** ****** ****** ****** ****** ****** ****** ****** ****** ******
      ****** ****** ****** ****** ****** ****** ****** ****** ****** ******
  16  ****** ****** ****** ****** ****** ****** ****** ****** ****** ******
      ****** ****** ****** ****** ****** ****** ****** ****** ****** ******
      ****** ****** ****** ****** ****** ****** ****** ****** ****** ******
  17  ****** ****** ****** ****** ****** ****** ****** ****** ****** ******
      ****** ****** ****** ****** ****** ****** ****** ****** ****** ******
      ****** ****** ****** ****** ****** ****** ****** ****** ****** ******
  18  ****** ****** ****** ****** ****** ****** ****** ****** ****** ******
      ****** ****** ****** ****** ****** ****** ****** ****** ****** ******
      ****** ****** ****** ****** ****** ****** ****** ****** ****** ******
  19  ****** ****** ****** ****** ****** ****** ****** ****** ****** ******
      ****** ****** ****** ****** ****** ****** ****** ****** ****** ******
      ****** ****** ****** ****** ****** ****** ****** ****** ****** ******
  20  ****** ****** ****** ****** ****** ****** ****** ****** ****** ******
      ****** ****** ****** ****** ****** ****** ****** ****** ****** ******
      ****** ****** ****** ****** ****** ****** ****** ****** ****** ******
  21  ****** ****** ****** ****** ****** ****** ****** ****** ****** ******
      ****** ****** ****** ****** ****** ****** ****** ****** ****** ******
      ****** ****** ****** ****** ****** ****** ****** ****** ****** ******
  22  ****** ****** ****** ****** ****** ****** ****** ****** ****** ******
      ****** ****** ****** ****** ****** ****** ****** ****** ****** ******
      ****** ****** ****** ****** ****** ****** ****** ****** ****** ******
  23  ****** ****** ****** ****** ****** ****** ****** ****** ****** ******
      ****** ****** ****** ****** ****** ****** ****** ****** ****** ******
      ****** ****** ****** ****** ****** ****** ****** ****** ****** ******
  24  ****** ****** ****** ****** ****** ****** ****** ****** ****** ******
      ****** ****** ****** ****** ****** ****** ****** ****** ****** ******
      ****** ****** ****** ****** ****** ****** ****** ****** ****** ******
  25  ****** ****** ****** ****** ****** ****** ****** ****** ****** ******
      ****** ****** ****** ****** ****** ****** ****** ****** ****** ******
      ****** ****** ****** ****** ****** ****** ****** ****** ****** ******

 HEAD WILL BE SAVED ON UNIT   51 AT END OF TIME STEP    1, STRESS PERIOD    1
1
  VOLUMETRIC BUDGET FOR ENTIRE MODEL AT END OF TIME STEP    1, STRESS PERIOD   1
  ------------------------------------------------------------------------------

     CUMULATIVE VOLUMES      L**3       RATES FOR THIS TIME STEP      L**3/T
     ------------------                 ------------------------

           IN:                                      IN:
           ---                                      ---
             STORAGE =    18391259.5408               STORAGE =      199904.9950
       CONSTANT HEAD =     1219893.2032         CONSTANT HEAD =       13259.7087
               WELLS =           0.0000                 WELLS =           0.0000
            RECHARGE =     1269600.0000              RECHARGE =       13800.0000
      STREAM LEAKAGE =      396345.0250        STREAM LEAKAGE =        4308.0981

            TOTAL IN =    21277097.7690              TOTAL IN =      231272.8018

          OUT:                                     OUT:
          ----                                     ----
             STORAGE =           0.0000               STORAGE =           0.0000
       CONSTANT HEAD =           0.0000         CONSTANT HEAD =           0.0000
               WELLS =     3694936.5452                 WELLS =       40162.3538
            RECHARGE =           0.0000              RECHARGE =           0.0000
      STREAM LEAKAGE =    17582161.5131        STREAM LEAKAGE =      191110.4512

           TOTAL OUT =    21277098.0583             TOTAL OUT =      231272.8050

            IN - OUT =          -0.2893              IN - OUT =      -3.1449E-03

 PERCENT DISCREPANCY =          -0.00     PERCENT DISCREPANCY =          -0.00






         TIME SUMMARY AT END OF TIME STEP    1 IN STRESS PERIOD    1
                    SECONDS     MINUTES      HOURS       DAYS        YEARS
                    -----------------------------------------------------------
   TIME STEP LENGTH 7.94880E+06 1.32480E+05  2208.0      92.000     0.25188    
 STRESS PERIOD TIME 7.94880E+06 1.32480E+05  2208.0      92.000     0.25188    
         TOTAL TIME 7.94880E+06 1.32480E+05  2208.0      92.000     0.25188    
1
1
                            STRESS PERIOD NO.    2, LENGTH =   91.00000    
                            -----------------------------------------------

                              NUMBER OF TIME STEPS =     1

                               MULTIPLIER FOR DELT =     1.500

                            INITIAL TIME STEP SIZE =   91.00000    

 WELL NO.  LAYER   ROW   COL   STRESS RATE         
 --------------------------------------------------
      1      1     10     24     -0.1046E+05
      2      1      7      8      -7751.    
      3      1      5     20     -0.1234E+05
      4      1     11     21      -9620.    

      4 WELLS

                 RECHARGE =  2.000000E-03

 REUSING STREAM SEGMENT DATA FROM LAST STRESS PERIOD
 
 SOLVING FOR HEAD 


     7 CALLS TO PCG ROUTINE FOR TIME STEP   1 IN STRESS PERIOD    2
    27 TOTAL ITERATIONS

 OUTPUT CONTROL FOR STRESS PERIOD    2   TIME STEP    1
    SAVE BUDGET
    SAVE HEAD FOR ALL LAYERS
    PRINT HEAD FOR ALL LAYERS
 UBDSV2 SAVING "STREAMFLOW OUT  " ON UNIT  50 AT TIME STEP  1, STRESS PERIOD   2



 STREAM LISTING     PERIOD      2   STEP        1

 LAYER ROW COL. STREAM  RCH.  FLOW INTO     FLOW TO   FLOW OUT OF   OVRLND.     DIRECT     STREAM       STREAM     STREAM     STREAM   STREAMBED  STREAMBED
                SEG.NO.  NO.  STRM. RCH.    AQUIFER    STRM. RCH.    RUNOFF     PRECIP       ET          HEAD       DEPTH      WIDTH   CONDCTNC.   GRADIENT

   1   13    1     1     1    1.0000E+05 -3.7486E+03   1.0375E+05  0.000E+00  0.000E+00  0.000E+00  4.84076E+01  1.463E-01  2.000E+01  2.000E+04 -1.874E-01
   1   13    2     1     2    1.0375E+05 -4.9947E+03   1.0874E+05  0.000E+00  0.000E+00  0.000E+00  4.79341E+01  1.500E-01  2.000E+01  2.000E+04 -2.497E-01
   1   14    3     1     3    1.0874E+05 -1.1000E+03   1.0984E+05  0.000E+00  0.000E+00  0.000E+00  4.74594E+01  1.526E-01  2.000E+01  2.000E+04 -5.500E-02
   1   15    4     1     4    1.0984E+05 -1.1353E+03   1.1098E+05  0.000E+00  0.000E+00  0.000E+00  4.69831E+01  1.535E-01  2.000E+01  2.000E+04 -5.676E-02
   1   16    5     1     5    1.1098E+05 -4.2546E+03   1.1523E+05  0.000E+00  0.000E+00  0.000E+00  4.65080E+01  1.557E-01  2.000E+01  2.000E+04 -2.127E-01
   1   16    6     1     6    1.1523E+05 -2.5054E+03   1.1774E+05  0.000E+00  0.000E+00  0.000E+00  4.60335E+01  1.585E-01  2.000E+01  2.000E+04 -1.253E-01
   1   16    7     1     7    1.1774E+05 -2.4113E+03   1.2015E+05  0.000E+00  0.000E+00  0.000E+00  4.55582E+01  1.605E-01  2.000E+01  2.000E+04 -1.206E-01
   1   16    8     1     8    1.2015E+05 -2.3832E+03   1.2253E+05  0.000E+00  0.000E+00  0.000E+00  4.50829E+01  1.625E-01  2.000E+01  2.000E+04 -1.192E-01
   1   16    9     1     9    1.2253E+05 -2.3645E+03   1.2490E+05  0.000E+00  0.000E+00  0.000E+00  4.46075E+01  1.644E-01  2.000E+01  2.000E+04 -1.182E-01
   1   16   10     1    10    1.2490E+05 -2.3431E+03   1.2724E+05  0.000E+00  0.000E+00  0.000E+00  4.41321E+01  1.662E-01  2.000E+01  2.000E+04 -1.172E-01
   1   16   11     1    11    1.2724E+05 -2.3526E+03   1.2959E+05  0.000E+00  0.000E+00  0.000E+00  4.36567E+01  1.681E-01  2.000E+01  2.000E+04 -1.176E-01
   1   16   12     1    12    1.2959E+05 -4.1124E+03   1.3371E+05  0.000E+00  0.000E+00  0.000E+00  4.31820E+01  1.706E-01  2.000E+01  2.000E+04 -2.056E-01
   1   15   13     1    13    1.3371E+05 -3.9779E+03   1.3768E+05  0.000E+00  0.000E+00  0.000E+00  4.27078E+01  1.737E-01  2.000E+01  2.000E+04 -1.989E-01
   1   14   14     1    14    1.3768E+05 -4.2356E+03   1.4192E+05  0.000E+00  0.000E+00  0.000E+00  4.22337E+01  1.769E-01  2.000E+01  2.000E+04 -2.118E-01
   1   13   15     1    15    1.4192E+05 -4.4070E+03   1.4633E+05  0.000E+00  0.000E+00  0.000E+00  4.17597E+01  1.801E-01  2.000E+01  2.000E+04 -2.203E-01
   1   12   16     1    16    1.4633E+05 -4.7706E+03   1.5110E+05  0.000E+00  0.000E+00  0.000E+00  4.12858E+01  1.835E-01  2.000E+01  2.000E+04 -2.385E-01
   1   12   17     1    17    1.5110E+05 -3.0274E+03   1.5412E+05  0.000E+00  0.000E+00  0.000E+00  4.08114E+01  1.864E-01  2.000E+01  2.000E+04 -1.514E-01
   1   12   18     1    18    1.5412E+05 -2.5978E+03   1.5672E+05  0.000E+00  0.000E+00  0.000E+00  4.03362E+01  1.885E-01  2.000E+01  2.000E+04 -1.299E-01
   1   12   19     1    19    1.5672E+05 -1.8283E+03   1.5855E+05  0.000E+00  0.000E+00  0.000E+00  3.98605E+01  1.901E-01  2.000E+01  2.000E+04 -9.141E-02
   1   13   20     1    20    1.5855E+05 -1.6281E+03   1.6018E+05  0.000E+00  0.000E+00  0.000E+00  3.93845E+01  1.913E-01  2.000E+01  2.000E+04 -8.140E-02
   1   14   21     1    21    1.6018E+05 -2.9110E+03   1.6309E+05  0.000E+00  0.000E+00  0.000E+00  3.89089E+01  1.929E-01  2.000E+01  2.000E+04 -1.455E-01
   1   14   22     1    22    1.6309E+05  4.8021E+03   1.5829E+05  0.000E+00  0.000E+00  0.000E+00  3.84309E+01  1.923E-01  2.000E+01  2.000E+04  2.401E-01
   1    9   30     2     1    5.0000E+04 -1.8431E+03   5.1843E+04  0.000E+00  0.000E+00  0.000E+00  4.02421E+01  1.171E-01  2.000E+01  2.000E+04 -9.215E-02
   1    9   29     2     2    5.1843E+04 -2.0999E+03   5.3943E+04  0.000E+00  0.000E+00  0.000E+00  3.99948E+01  1.198E-01  2.000E+01  2.000E+04 -1.050E-01
   1    9   28     2     3    5.3943E+04 -2.2568E+03   5.6200E+04  0.000E+00  0.000E+00  0.000E+00  3.97478E+01  1.228E-01  2.000E+01  2.000E+04 -1.128E-01
   1    9   27     2     4    5.6200E+04 -3.2974E+03   5.9497E+04  0.000E+00  0.000E+00  0.000E+00  3.95015E+01  1.265E-01  2.000E+01  2.000E+04 -1.649E-01
   1   10   26     2     5    5.9497E+04 -1.0441E+03   6.0541E+04  0.000E+00  0.000E+00  0.000E+00  3.92543E+01  1.293E-01  2.000E+01  2.000E+04 -5.221E-02
   1   11   25     2     6    6.0541E+04  4.9006E+02   6.0051E+04  0.000E+00  0.000E+00  0.000E+00  3.90046E+01  1.296E-01  2.000E+01  2.000E+04  2.450E-02
   1   12   24     2     7    6.0051E+04  3.0488E+02   5.9746E+04  0.000E+00  0.000E+00  0.000E+00  3.87541E+01  1.291E-01  2.000E+01  2.000E+04  1.524E-02
   1   13   23     2     8    5.9746E+04 -1.4899E+02   5.9895E+04  0.000E+00  0.000E+00  0.000E+00  3.85040E+01  1.290E-01  2.000E+01  2.000E+04 -7.449E-03
   1   14   22     2     9    5.9895E+04  1.2502E+03   5.8645E+04  0.000E+00  0.000E+00  0.000E+00  3.82533E+01  1.283E-01  2.000E+01  2.000E+04  6.251E-02
   1   14   22     3     1    2.1693E+05 -8.8379E+03   2.2577E+05  0.000E+00  0.000E+00  0.000E+00  3.77489E+01  1.934E-01  2.000E+01  2.000E+04 -4.419E-01
   1   15   23     3     2    2.2577E+05 -1.0533E+03   2.2682E+05  0.000E+00  0.000E+00  0.000E+00  3.68626E+01  1.959E-01  2.000E+01  2.000E+04 -5.266E-02
   1   15   24     3     3    2.2682E+05 -6.6386E+02   2.2749E+05  0.000E+00  0.000E+00  0.000E+00  3.59742E+01  1.964E-01  2.000E+01  2.000E+04 -3.319E-02
   1   15   25     3     4    2.2749E+05 -6.6968E+02   2.2816E+05  0.000E+00  0.000E+00  0.000E+00  3.50856E+01  1.967E-01  2.000E+01  2.000E+04 -3.348E-02
   1   15   26     3     5    2.2816E+05 -7.7090E+02   2.2893E+05  0.000E+00  0.000E+00  0.000E+00  3.41971E+01  1.971E-01  2.000E+01  2.000E+04 -3.855E-02
   1   16   27     3     6    2.2893E+05 -8.9776E+02   2.2983E+05  0.000E+00  0.000E+00  0.000E+00  3.33086E+01  1.975E-01  2.000E+01  2.000E+04 -4.489E-02
   1   17   28     3     7    2.2983E+05 -3.2546E+03   2.3308E+05  0.000E+00  0.000E+00  0.000E+00  3.24208E+01  1.986E-01  2.000E+01  2.000E+04 -1.627E-01
   1   18   29     3     8    2.3308E+05 -5.0574E+03   2.3814E+05  0.000E+00  0.000E+00  0.000E+00  3.15341E+01  2.007E-01  2.000E+01  2.000E+04 -2.529E-01
   1   18   30     3     9    2.3814E+05 -4.6845E+03   2.4282E+05  0.000E+00  0.000E+00  0.000E+00  3.06477E+01  2.032E-01  2.000E+01  2.000E+04 -2.342E-01



1
              HEAD IN LAYER   1 AT END OF TIME STEP   1 IN STRESS PERIOD    2
  ---------------------------------------------------------------------------

          1      2      3      4      5      6      7      8      9     10
         11     12     13     14     15     16     17     18     19     20
         21     22     23     24     25     26     27     28     29     30
 .........................................................................
   1  ****** ****** ****** ****** ****** ****** ****** ****** ****** ******
      ****** ****** ****** ****** ****** ****** ****** ****** ****** ******
      ****** ****** ****** ****** ****** ****** ****** ****** ****** ******
   2  ****** ****** ****** ****** ****** ****** ****** ****** ****** ******
      ****** ****** ****** ****** ****** ****** ****** ****** ****** ******
      ****** ****** ****** ****** ****** ****** ****** ****** ****** ******
   3  ****** ****** ****** ****** ****** ****** ****** ****** ****** ******
      ****** ****** ****** ****** ****** ****** ****** ****** ****** ******
      ****** ****** ****** ****** ****** ****** ****** ****** ****** ******
   4  ****** ****** ****** ****** ****** ****** ****** ****** ****** ******
      ****** ****** ****** ****** ****** ****** ****** ****** ****** ******
      ****** ****** ****** ****** ****** ****** ****** ****** ****** ******
   5  ****** ****** ****** ****** ****** ****** ****** ****** ****** ******
      ****** ****** ****** ****** ****** ****** ****** ****** ****** ******
      ****** ****** ****** ****** ****** ****** ****** ****** ****** ******
   6  ****** ****** ****** ****** ****** ****** ****** ****** ****** ******
      ****** ****** ****** ****** ****** ****** ****** ****** ****** ******
      ****** ****** ****** ****** ****** ****** ****** ****** ****** ******
   7  ****** ****** ****** ****** ****** ****** ****** ****** ****** ******
      ****** ****** ****** ****** ****** ****** ****** ****** ****** ******
      ****** ****** ****** ****** ****** ****** ****** ****** ****** ******
   8  ****** ****** ****** ****** ****** ****** ****** ****** ****** ******
      ****** ****** ****** ****** ****** ****** ****** ****** ****** ******
      ****** ****** ****** ****** ****** ****** ****** ****** ****** ******
   9  ****** ****** ****** ****** ****** ****** ****** ****** ****** ******
      ****** ****** ****** ****** ****** ****** ****** ****** ****** ******
      ****** ****** ****** ****** ****** ****** ****** ****** ****** ******
  10  ****** ****** ****** ****** ****** ****** ****** ****** ****** ******
      ****** ****** ****** ****** ****** ****** ****** ****** ****** ******
      ****** ****** ****** ****** ****** ****** ****** ****** ****** ******
  11  ****** ****** ****** ****** ****** ****** ****** ****** ****** ******
      ****** ****** ****** ****** ****** ****** ****** ****** ****** ******
      ****** ****** ****** ****** ****** ****** ****** ****** ****** ******
  12  ****** ****** ****** ****** ****** ****** ****** ****** ****** ******
      ****** ****** ****** ****** ****** ****** ****** ****** ****** ******
      ****** ****** ****** ****** ****** ****** ****** ****** ****** ******
  13  ****** ****** ****** ****** ****** ****** ****** ****** ****** ******
      ****** ****** ****** ****** ****** ****** ****** ****** ****** ******
      ****** ****** ****** ****** ****** ****** ****** ****** ****** ******
  14  ****** ****** ****** ****** ****** ****** ****** ****** ****** ******
      ****** ****** ****** ****** ****** ****** ****** ****** ****** ******
      ****** ****** ****** ****** ****** ****** ****** ****** ****** ******
  15  ****** ****** ****** ****** ****** ****** ****** ****** ****** ******
      ****** ****** ****** ****** ****** ****** ****** ****** ****** ******
      ****** ****** ****** ****** ****** ****** ****** ****** ****** ******
  16  ****** ****** ****** ****** ****** ****** ****** ****** ****** ******
      ****** ****** ****** ****** ****** ****** ****** ****** ****** ******
      ****** ****** ****** ****** ****** ****** ****** ****** ****** ******
  17  ****** ****** ****** ****** ****** ****** ****** ****** ****** ******
      ****** ****** ****** ****** ****** ****** ****** ****** ****** ******
      ****** ****** ****** ****** ****** ****** ****** ****** ****** ******
  18  ****** ****** ****** ****** ****** ****** ****** ****** ****** ******
      ****** ****** ****** ****** ****** ****** ****** ****** ****** ******
      ****** ****** ****** ****** ****** ****** ****** ****** ****** ******
  19  ****** ****** ****** ****** ****** ****** ****** ****** ****** ******
      ****** ****** ****** ****** ****** ****** ****** ****** ****** ******
      ****** ****** ****** ****** ****** ****** ****** ****** ****** ******
  20  ****** ****** ****** ****** ****** ****** ****** ****** ****** ******
      ****** ****** ****** ****** ****** ****** ****** ****** ****** ******
      ****** ****** ****** ****** ****** ****** ****** ****** ****** ******
  21  ****** ****** ****** ****** ****** ****** ****** ****** ****** ******
      ****** ****** ****** ****** ****** ****** ****** ****** ****** ******
      ****** ****** ****** ****** ****** ****** ****** ****** ****** ******
  22  ****** ****** ****** ****** ****** ****** ****** ****** ****** ******
      ****** ****** ****** ****** ****** ****** ****** ****** ****** ******
      ****** ****** ****** ****** ****** ****** ****** ****** ****** ******
  23  ****** ****** ****** ****** ****** ****** ****** ****** ****** ******
      ****** ****** ****** ****** ****** ****** ****** ****** ****** ******
      ****** ****** ****** ****** ****** ****** ****** ****** ****** ******
  24  ****** ****** ****** ****** ****** ****** ****** ****** ****** ******
      ****** ****** ****** ****** ****** ****** ****** ****** ****** ******
      ****** ****** ****** ****** ****** ****** ****** ****** ****** ******
  25  ****** ****** ****** ****** ****** ****** ****** ****** ****** ******
      ****** ****** ****** ****** ****** ****** ****** ****** ****** ******
      ****** ****** ****** ****** ****** ****** ****** ****** ****** ******

 HEAD WILL BE SAVED ON UNIT   51 AT END OF TIME STEP    1, STRESS PERIOD    2
1
  VOLUMETRIC BUDGET FOR ENTIRE MODEL AT END OF TIME STEP    1, STRESS PERIOD   2
  ------------------------------------------------------------------------------

     CUMULATIVE VOLUMES      L**3       RATES FOR THIS TIME STEP      L**3/T
     ------------------                 ------------------------

           IN:                                      IN:
           ---                                      ---
             STORAGE =    23788612.3213               STORAGE =       59311.5690
       CONSTANT HEAD =     2900949.0354         CONSTANT HEAD =       18473.1410
               WELLS =           0.0000                 WELLS =           0.0000
            RECHARGE =     6292800.0000              RECHARGE =       55200.0000
      STREAM LEAKAGE =     1019447.8665        STREAM LEAKAGE =        6847.2840

            TOTAL IN =    34001809.2232              TOTAL IN =      139831.9940

          OUT:                                     OUT:
          ----                                     ----
             STORAGE =           0.0000               STORAGE =           0.0000
       CONSTANT HEAD =           0.0000         CONSTANT HEAD =           0.0000
               WELLS =     7349710.7367                 WELLS =       40162.3538
            RECHARGE =           0.0000              RECHARGE =           0.0000
      STREAM LEAKAGE =    26652099.7438        STREAM LEAKAGE =       99669.6509

           TOTAL OUT =    34001810.4805             TOTAL OUT =      139832.0046

            IN - OUT =          -1.2572              IN - OUT =      -1.0636E-02

 PERCENT DISCREPANCY =          -0.00     PERCENT DISCREPANCY =          -0.00






         TIME SUMMARY AT END OF TIME STEP    1 IN STRESS PERIOD    2
                    SECONDS     MINUTES      HOURS       DAYS        YEARS
                    -----------------------------------------------------------
   TIME STEP LENGTH 7.86240E+06 1.31040E+05  2184.0      91.000     0.24914    
 STRESS PERIOD TIME 7.86240E+06 1.31040E+05  2184.0      91.000     0.24914    
         TOTAL TIME 1.58112E+07 2.63520E+05  4392.0      183.00     0.50103    
1
1
                            STRESS PERIOD NO.    3, LENGTH =   91.00000    
                            -----------------------------------------------

                              NUMBER OF TIME STEPS =     1

                               MULTIPLIER FOR DELT =     1.500

                            INITIAL TIME STEP SIZE =   91.00000    

 WELL NO.  LAYER   ROW   COL   STRESS RATE         
 --------------------------------------------------
      1      1     10     24     -0.1046E+05
      2      1      7      8      -7751.    
      3      1      5     20     -0.1234E+05
      4      1     11     21      -9620.    

      4 WELLS

                 RECHARGE =   0.00000    

 REUSING STREAM SEGMENT DATA FROM LAST STRESS PERIOD
 
 SOLVING FOR HEAD 


     7 CALLS TO PCG ROUTINE FOR TIME STEP   1 IN STRESS PERIOD    3
    27 TOTAL ITERATIONS

 OUTPUT CONTROL FOR STRESS PERIOD    3   TIME STEP    1
    SAVE BUDGET
    SAVE HEAD FOR ALL LAYERS
    PRINT HEAD FOR ALL LAYERS
 UBDSV2 SAVING "STREAMFLOW OUT  " ON UNIT  50 AT TIME STEP  1, STRESS PERIOD   3



 STREAM LISTING     PERIOD      3   STEP        1

 LAYER ROW COL. STREAM  RCH.  FLOW INTO     FLOW TO   FLOW OUT OF   OVRLND.     DIRECT     STREAM       STREAM     STREAM     STREAM   STREAMBED  STREAMBED
                SEG.NO.  NO.  STRM. RCH.    AQUIFER    STRM. RCH.    RUNOFF     PRECIP       ET          HEAD       DEPTH      WIDTH   CONDCTNC.   GRADIENT

   1   13    1     1     1    1.0000E+05 -2.3754E+03   1.0238E+05  0.000E+00  0.000E+00  0.000E+00  4.84070E+01  1.457E-01  2.000E+01  2.000E+04 -1.188E-01
   1   13    2     1     2    1.0238E+05 -3.4553E+03   1.0583E+05  0.000E+00  0.000E+00  0.000E+00  4.79323E+01  1.482E-01  2.000E+01  2.000E+04 -1.728E-01
   1   14    3     1     3    1.0583E+05 -6.2759E+02   1.0646E+05  0.000E+00  0.000E+00  0.000E+00  4.74567E+01  1.499E-01  2.000E+01  2.000E+04 -3.138E-02
   1   15    4     1     4    1.0646E+05 -6.2312E+02   1.0708E+05  0.000E+00  0.000E+00  0.000E+00  4.69800E+01  1.505E-01  2.000E+01  2.000E+04 -3.116E-02
   1   16    5     1     5    1.0708E+05 -2.4612E+03   1.0954E+05  0.000E+00  0.000E+00  0.000E+00  4.65040E+01  1.518E-01  2.000E+01  2.000E+04 -1.231E-01
   1   16    6     1     6    1.0954E+05 -1.5002E+03   1.1104E+05  0.000E+00  0.000E+00  0.000E+00  4.60284E+01  1.534E-01  2.000E+01  2.000E+04 -7.501E-02
   1   16    7     1     7    1.1104E+05 -1.4637E+03   1.1251E+05  0.000E+00  0.000E+00  0.000E+00  4.55524E+01  1.546E-01  2.000E+01  2.000E+04 -7.318E-02
   1   16    8     1     8    1.1251E+05 -1.4540E+03   1.1396E+05  0.000E+00  0.000E+00  0.000E+00  4.50763E+01  1.559E-01  2.000E+01  2.000E+04 -7.270E-02
   1   16    9     1     9    1.1396E+05 -1.4408E+03   1.1540E+05  0.000E+00  0.000E+00  0.000E+00  4.46002E+01  1.570E-01  2.000E+01  2.000E+04 -7.204E-02
   1   16   10     1    10    1.1540E+05 -1.4216E+03   1.1682E+05  0.000E+00  0.000E+00  0.000E+00  4.41241E+01  1.582E-01  2.000E+01  2.000E+04 -7.108E-02
   1   16   11     1    11    1.1682E+05 -1.4279E+03   1.1825E+05  0.000E+00  0.000E+00  0.000E+00  4.36480E+01  1.594E-01  2.000E+01  2.000E+04 -7.139E-02
   1   16   12     1    12    1.1825E+05 -2.4970E+03   1.2075E+05  0.000E+00  0.000E+00  0.000E+00  4.31723E+01  1.610E-01  2.000E+01  2.000E+04 -1.248E-01
   1   15   13     1    13    1.2075E+05 -2.2786E+03   1.2303E+05  0.000E+00  0.000E+00  0.000E+00  4.26970E+01  1.629E-01  2.000E+01  2.000E+04 -1.139E-01
   1   14   14     1    14    1.2303E+05 -2.4480E+03   1.2547E+05  0.000E+00  0.000E+00  0.000E+00  4.22216E+01  1.648E-01  2.000E+01  2.000E+04 -1.224E-01
   1   13   15     1    15    1.2547E+05 -2.5669E+03   1.2804E+05  0.000E+00  0.000E+00  0.000E+00  4.17463E+01  1.668E-01  2.000E+01  2.000E+04 -1.283E-01
   1   12   16     1    16    1.2804E+05 -2.7688E+03   1.3081E+05  0.000E+00  0.000E+00  0.000E+00  4.12711E+01  1.689E-01  2.000E+01  2.000E+04 -1.384E-01
   1   12   17     1    17    1.3081E+05 -1.6078E+03   1.3242E+05  0.000E+00  0.000E+00  0.000E+00  4.07956E+01  1.706E-01  2.000E+01  2.000E+04 -8.039E-02
   1   12   18     1    18    1.3242E+05 -1.1998E+03   1.3362E+05  0.000E+00  0.000E+00  0.000E+00  4.03194E+01  1.717E-01  2.000E+01  2.000E+04 -5.999E-02
   1   12   19     1    19    1.3362E+05 -3.5059E+01   1.3365E+05  0.000E+00  0.000E+00  0.000E+00  3.98426E+01  1.721E-01  2.000E+01  2.000E+04 -1.753E-03
   1   13   20     1    20    1.3365E+05 -8.5227E+01   1.3374E+05  0.000E+00  0.000E+00  0.000E+00  3.93654E+01  1.722E-01  2.000E+01  2.000E+04 -4.261E-03
   1   14   21     1    21    1.3374E+05 -1.4285E+03   1.3517E+05  0.000E+00  0.000E+00  0.000E+00  3.88887E+01  1.728E-01  2.000E+01  2.000E+04 -7.143E-02
   1   14   22     1    22    1.3517E+05  5.1767E+03   1.2999E+05  0.000E+00  0.000E+00  0.000E+00  3.84100E+01  1.713E-01  2.000E+01  2.000E+04  2.588E-01
   1    9   30     2     1    5.0000E+04 -5.6995E+02   5.0570E+04  0.000E+00  0.000E+00  0.000E+00  4.02413E+01  1.163E-01  2.000E+01  2.000E+04 -2.850E-02
   1    9   29     2     2    5.0570E+04 -8.2200E+02   5.1392E+04  0.000E+00  0.000E+00  0.000E+00  3.99922E+01  1.172E-01  2.000E+01  2.000E+04 -4.110E-02
   1    9   28     2     3    5.1392E+04 -9.4897E+02   5.2341E+04  0.000E+00  0.000E+00  0.000E+00  3.97434E+01  1.184E-01  2.000E+01  2.000E+04 -4.745E-02
   1    9   27     2     4    5.2341E+04 -1.3488E+03   5.3690E+04  0.000E+00  0.000E+00  0.000E+00  3.94950E+01  1.200E-01  2.000E+01  2.000E+04 -6.744E-02
   1   10   26     2     5    5.3690E+04  7.5496E+02   5.2935E+04  0.000E+00  0.000E+00  0.000E+00  3.92454E+01  1.204E-01  2.000E+01  2.000E+04  3.775E-02
   1   11   25     2     6    5.2935E+04  2.1660E+03   5.0769E+04  0.000E+00  0.000E+00  0.000E+00  3.89934E+01  1.184E-01  2.000E+01  2.000E+04  1.083E-01
   1   12   24     2     7    5.0769E+04  1.8157E+03   4.8953E+04  0.000E+00  0.000E+00  0.000E+00  3.87407E+01  1.157E-01  2.000E+01  2.000E+04  9.078E-02
   1   13   23     2     8    4.8953E+04  2.1058E+02   4.8742E+04  0.000E+00  0.000E+00  0.000E+00  3.84893E+01  1.143E-01  2.000E+01  2.000E+04  1.053E-02
   1   14   22     2     9    4.8742E+04  1.7352E+03   4.7007E+04  0.000E+00  0.000E+00  0.000E+00  3.82379E+01  1.129E-01  2.000E+01  2.000E+04  8.676E-02
   1   14   22     3     1    1.7700E+05 -8.4815E+03   1.8548E+05  0.000E+00  0.000E+00  0.000E+00  3.77270E+01  1.715E-01  2.000E+01  2.000E+04 -4.241E-01
   1   15   23     3     2    1.8548E+05 -6.6755E+02   1.8615E+05  0.000E+00  0.000E+00  0.000E+00  3.68407E+01  1.741E-01  2.000E+01  2.000E+04 -3.338E-02
   1   15   24     3     3    1.8615E+05 -3.4376E+02   1.8649E+05  0.000E+00  0.000E+00  0.000E+00  3.59521E+01  1.744E-01  2.000E+01  2.000E+04 -1.719E-02
   1   15   25     3     4    1.8649E+05 -3.3235E+02   1.8682E+05  0.000E+00  0.000E+00  0.000E+00  3.50634E+01  1.746E-01  2.000E+01  2.000E+04 -1.662E-02
   1   15   26     3     5    1.8682E+05 -3.6795E+02   1.8719E+05  0.000E+00  0.000E+00  0.000E+00  3.41747E+01  1.747E-01  2.000E+01  2.000E+04 -1.840E-02
   1   16   27     3     6    1.8719E+05 -4.3404E+02   1.8762E+05  0.000E+00  0.000E+00  0.000E+00  3.32861E+01  1.750E-01  2.000E+01  2.000E+04 -2.170E-02
   1   17   28     3     7    1.8762E+05 -1.8490E+03   1.8947E+05  0.000E+00  0.000E+00  0.000E+00  3.23978E+01  1.756E-01  2.000E+01  2.000E+04 -9.245E-02
   1   18   29     3     8    1.8947E+05 -3.5547E+03   1.9303E+05  0.000E+00  0.000E+00  0.000E+00  3.15105E+01  1.771E-01  2.000E+01  2.000E+04 -1.777E-01
   1   18   30     3     9    1.9303E+05 -3.5565E+03   1.9658E+05  0.000E+00  0.000E+00  0.000E+00  3.06235E+01  1.791E-01  2.000E+01  2.000E+04 -1.778E-01



1
              HEAD IN LAYER   1 AT END OF TIME STEP   1 IN STRESS PERIOD    3
  ---------------------------------------------------------------------------

          1      2      3      4      5      6      7      8      9     10
         11     12     13     14     15     16     17     18     19     20
         21     22     23     24     25     26     27     28     29     30
 .........................................................................
   1  ****** ****** ****** ****** ****** ****** ****** ****** ****** ******
      ****** ****** ****** ****** ****** ****** ****** ****** ****** ******
      ****** ****** ****** ****** ****** ****** ****** ****** ****** ******
   2  ****** ****** ****** ****** ****** ****** ****** ****** ****** ******
      ****** ****** ****** ****** ****** ****** ****** ****** ****** ******
      ****** ****** ****** ****** ****** ****** ****** ****** ****** ******
   3  ****** ****** ****** ****** ****** ****** ****** ****** ****** ******
      ****** ****** ****** ****** ****** ****** ****** ****** ****** ******
      ****** ****** ****** ****** ****** ****** ****** ****** ****** ******
   4  ****** ****** ****** ****** ****** ****** ****** ****** ****** ******
      ****** ****** ****** ****** ****** ****** ****** ****** ****** ******
      ****** ****** ****** ****** ****** ****** ****** ****** ****** ******
   5  ****** ****** ****** ****** ****** ****** ****** ****** ****** ******
      ****** ****** ****** ****** ****** ****** ****** ****** ****** ******
      ****** ****** ****** ****** ****** ****** ****** ****** ****** ******
   6  ****** ****** ****** ****** ****** ****** ****** ****** ****** ******
      ****** ****** ****** ****** ****** ****** ****** ****** ****** ******
      ****** ****** ****** ****** ****** ****** ****** ****** ****** ******
   7  ****** ****** ****** ****** ****** ****** ****** ****** ****** ******
      ****** ****** ****** ****** ****** ****** ****** ****** ****** ******
      ****** ****** ****** ****** ****** ****** ****** ****** ****** ******
   8  ****** ****** ****** ****** ****** ****** ****** ****** ****** ******
      ****** ****** ****** ****** ****** ****** ****** ****** ****** ******
      ****** ****** ****** ****** ****** ****** ****** ****** ****** ******
   9  ****** ****** ****** ****** ****** ****** ****** ****** ****** ******
      ****** ****** ****** ****** ****** ****** ****** ****** ****** ******
      ****** ****** ****** ****** ****** ****** ****** ****** ****** ******
  10  ****** ****** ****** ****** ****** ****** ****** ****** ****** ******
      ****** ****** ****** ****** ****** ****** ****** ****** ****** ******
      ****** ****** ****** ****** ****** ****** ****** ****** ****** ******
  11  ****** ****** ****** ****** ****** ****** ****** ****** ****** ******
      ****** ****** ****** ****** ****** ****** ****** ****** ****** ******
      ****** ****** ****** ****** ****** ****** ****** ****** ****** ******
  12  ****** ****** ****** ****** ****** ****** ****** ****** ****** ******
      ****** ****** ****** ****** ****** ****** ****** ****** ****** ******
      ****** ****** ****** ****** ****** ****** ****** ****** ****** ******
  13  ****** ****** ****** ****** ****** ****** ****** ****** ****** ******
      ****** ****** ****** ****** ****** ****** ****** ****** ****** ******
      ****** ****** ****** ****** ****** ****** ****** ****** ****** ******
  14  ****** ****** ****** ****** ****** ****** ****** ****** ****** ******
      ****** ****** ****** ****** ****** ****** ****** ****** ****** ******
      ****** ****** ****** ****** ****** ****** ****** ****** ****** ******
  15  ****** ****** ****** ****** ****** ****** ****** ****** ****** ******
      ****** ****** ****** ****** ****** ****** ****** ****** ****** ******
      ****** ****** ****** ****** ****** ****** ****** ****** ****** ******
  16  ****** ****** ****** ****** ****** ****** ****** ****** ****** ******
      ****** ****** ****** ****** ****** ****** ****** ****** ****** ******
      ****** ****** ****** ****** ****** ****** ****** ****** ****** ******
  17  ****** ****** ****** ****** ****** ****** ****** ****** ****** ******
      ****** ****** ****** ****** ****** ****** ****** ****** ****** ******
      ****** ****** ****** ****** ****** ****** ****** ****** ****** ******
  18  ****** ****** ****** ****** ****** ****** ****** ****** ****** ******
      ****** ****** ****** ****** ****** ****** ****** ****** ****** ******
      ****** ****** ****** ****** ****** ****** ****** ****** ****** ******
  19  ****** ****** ****** ****** ****** ****** ****** ****** ****** ******
      ****** ****** ****** ****** ****** ****** ****** ****** ****** ******
      ****** ****** ****** ****** ****** ****** ****** ****** ****** ******
  20  ****** ****** ****** ****** ****** ****** ****** ****** ****** ******
      ****** ****** ****** ****** ****** ****** ****** ****** ****** ******
      ****** ****** ****** ****** ****** ****** ****** ****** ****** ******
  21  ****** ****** ****** ****** ****** ****** ****** ****** ****** ******
      ****** ****** ****** ****** ****** ****** ****** ****** ****** ******
      ****** ****** ****** ****** ****** ****** ****** ****** ****** ******
  22  ****** ****** ****** ****** ****** ****** ****** ****** ****** ******
      ****** ****** ****** ****** ****** ****** ****** ****** ****** ******
      ****** ****** ****** ****** ****** ****** ****** ****** ****** ******
  23  ****** ****** ****** ****** ****** ****** ****** ****** ****** ******
      ****** ****** ****** ****** ****** ****** ****** ****** ****** ******
      ****** ****** ****** ****** ****** ****** ****** ****** ****** ******
  24  ****** ****** ****** ****** ****** ****** ****** ****** ****** ******
      ****** ****** ****** ****** ****** ****** ****** ****** ****** ******
      ****** ****** ****** ****** ****** ****** ****** ****** ****** ******
  25  ****** ****** ****** ****** ****** ****** ****** ****** ****** ******
      ****** ****** ****** ****** ****** ****** ****** ****** ****** ******
      ****** ****** ****** ****** ****** ****** ****** ****** ****** ******

 HEAD WILL BE SAVED ON UNIT   51 AT END OF TIME STEP    1, STRESS PERIOD    3
1
  VOLUMETRIC BUDGET FOR ENTIRE MODEL AT END OF TIME STEP    1, STRESS PERIOD   3
  ------------------------------------------------------------------------------

     CUMULATIVE VOLUMES      L**3       RATES FOR THIS TIME STEP      L**3/T
     ------------------                 ------------------------

           IN:                                      IN:
           ---                                      ---
             STORAGE =    29174649.0734               STORAGE =       59187.2171
       CONSTANT HEAD =     5408870.8416         CONSTANT HEAD =       27559.5803
               WELLS =           0.0000                 WELLS =           0.0000
            RECHARGE =     6292800.0000              RECHARGE =           0.0000
      STREAM LEAKAGE =     2098627.7227        STREAM LEAKAGE =       11859.1193

            TOTAL IN =    42974947.6377              TOTAL IN =       98605.9166

          OUT:                                     OUT:
          ----                                     ----
             STORAGE =           0.0000               STORAGE =           0.0000
       CONSTANT HEAD =           0.0000         CONSTANT HEAD =           0.0000
               WELLS =    11004484.9281                 WELLS =       40162.3538
            RECHARGE =           0.0000              RECHARGE =           0.0000
      STREAM LEAKAGE =    31970464.6782        STREAM LEAKAGE =       58443.5707

           TOTAL OUT =    42974949.6063             TOTAL OUT =       98605.9245

            IN - OUT =          -1.9687              IN - OUT =      -7.8182E-03

 PERCENT DISCREPANCY =          -0.00     PERCENT DISCREPANCY =          -0.00






         TIME SUMMARY AT END OF TIME STEP    1 IN STRESS PERIOD    3
                    SECONDS     MINUTES      HOURS       DAYS        YEARS
                    -----------------------------------------------------------
   TIME STEP LENGTH 7.86240E+06 1.31040E+05  2184.0      91.000     0.24914    
 STRESS PERIOD TIME 7.86240E+06 1.31040E+05  2184.0      91.000     0.24914    
         TOTAL TIME 2.36736E+07 3.94560E+05  6576.0      274.00     0.75017    
1
1
                            STRESS PERIOD NO.    4, LENGTH =   91.00000    
                            -----------------------------------------------

                              NUMBER OF TIME STEPS =     1

                               MULTIPLIER FOR DELT =     1.500

                            INITIAL TIME STEP SIZE =   91.00000    

 WELL NO.  LAYER   ROW   COL   STRESS RATE         
 --------------------------------------------------
      1      1     10     24     -0.1046E+05
      2      1      7      8      -7751.    
      3      1      5     20     -0.1234E+05
      4      1     11     21      -9620.    

      4 WELLS

                 RECHARGE =  1.000000E-03

 REUSING STREAM SEGMENT DATA FROM LAST STRESS PERIOD
 
 SOLVING FOR HEAD 


     6 CALLS TO PCG ROUTINE FOR TIME STEP   1 IN STRESS PERIOD    4
    23 TOTAL ITERATIONS

 OUTPUT CONTROL FOR STRESS PERIOD    4   TIME STEP    1
    SAVE BUDGET
    SAVE HEAD FOR ALL LAYERS
    PRINT HEAD FOR ALL LAYERS
 UBDSV2 SAVING "STREAMFLOW OUT  " ON UNIT  50 AT TIME STEP  1, STRESS PERIOD   4



 STREAM LISTING     PERIOD      4   STEP        1

 LAYER ROW COL. STREAM  RCH.  FLOW INTO     FLOW TO   FLOW OUT OF   OVRLND.     DIRECT     STREAM       STREAM     STREAM     STREAM   STREAMBED  STREAMBED
                SEG.NO.  NO.  STRM. RCH.    AQUIFER    STRM. RCH.    RUNOFF     PRECIP       ET          HEAD       DEPTH      WIDTH   CONDCTNC.   GRADIENT

   1   13    1     1     1    1.0000E+05 -2.0439E+03   1.0204E+05  0.000E+00  0.000E+00  0.000E+00  4.84069E+01  1.455E-01  2.000E+01  2.000E+04 -1.022E-01
   1   13    2     1     2    1.0204E+05 -3.0735E+03   1.0512E+05  0.000E+00  0.000E+00  0.000E+00  4.79318E+01  1.477E-01  2.000E+01  2.000E+04 -1.537E-01
   1   14    3     1     3    1.0512E+05 -5.8821E+02   1.0571E+05  0.000E+00  0.000E+00  0.000E+00  4.74561E+01  1.493E-01  2.000E+01  2.000E+04 -2.941E-02
   1   15    4     1     4    1.0571E+05 -5.7767E+02   1.0628E+05  0.000E+00  0.000E+00  0.000E+00  4.69793E+01  1.498E-01  2.000E+01  2.000E+04 -2.888E-02
   1   16    5     1     5    1.0628E+05 -2.1611E+03   1.0844E+05  0.000E+00  0.000E+00  0.000E+00  4.65032E+01  1.510E-01  2.000E+01  2.000E+04 -1.081E-01
   1   16    6     1     6    1.0844E+05 -1.3493E+03   1.0979E+05  0.000E+00  0.000E+00  0.000E+00  4.60274E+01  1.524E-01  2.000E+01  2.000E+04 -6.747E-02
   1   16    7     1     7    1.0979E+05 -1.3237E+03   1.1112E+05  0.000E+00  0.000E+00  0.000E+00  4.55513E+01  1.535E-01  2.000E+01  2.000E+04 -6.618E-02
   1   16    8     1     8    1.1112E+05 -1.3187E+03   1.1244E+05  0.000E+00  0.000E+00  0.000E+00  4.50751E+01  1.546E-01  2.000E+01  2.000E+04 -6.594E-02
   1   16    9     1     9    1.1244E+05 -1.3097E+03   1.1375E+05  0.000E+00  0.000E+00  0.000E+00  4.45989E+01  1.557E-01  2.000E+01  2.000E+04 -6.549E-02
   1   16   10     1    10    1.1375E+05 -1.2961E+03   1.1504E+05  0.000E+00  0.000E+00  0.000E+00  4.41227E+01  1.568E-01  2.000E+01  2.000E+04 -6.481E-02
   1   16   11     1    11    1.1504E+05 -1.3055E+03   1.1635E+05  0.000E+00  0.000E+00  0.000E+00  4.36465E+01  1.579E-01  2.000E+01  2.000E+04 -6.528E-02
   1   16   12     1    12    1.1635E+05 -2.2335E+03   1.1858E+05  0.000E+00  0.000E+00  0.000E+00  4.31707E+01  1.593E-01  2.000E+01  2.000E+04 -1.117E-01
   1   15   13     1    13    1.1858E+05 -2.0022E+03   1.2058E+05  0.000E+00  0.000E+00  0.000E+00  4.26951E+01  1.610E-01  2.000E+01  2.000E+04 -1.001E-01
   1   14   14     1    14    1.2058E+05 -2.1226E+03   1.2271E+05  0.000E+00  0.000E+00  0.000E+00  4.22195E+01  1.627E-01  2.000E+01  2.000E+04 -1.061E-01
   1   13   15     1    15    1.2271E+05 -2.1882E+03   1.2489E+05  0.000E+00  0.000E+00  0.000E+00  4.17440E+01  1.644E-01  2.000E+01  2.000E+04 -1.094E-01
   1   12   16     1    16    1.2489E+05 -2.2385E+03   1.2713E+05  0.000E+00  0.000E+00  0.000E+00  4.12685E+01  1.662E-01  2.000E+01  2.000E+04 -1.119E-01
   1   12   17     1    17    1.2713E+05 -1.2976E+03   1.2843E+05  0.000E+00  0.000E+00  0.000E+00  4.07926E+01  1.676E-01  2.000E+01  2.000E+04 -6.488E-02
   1   12   18     1    18    1.2843E+05 -9.1284E+02   1.2934E+05  0.000E+00  0.000E+00  0.000E+00  4.03162E+01  1.684E-01  2.000E+01  2.000E+04 -4.564E-02
   1   12   19     1    19    1.2934E+05  3.3335E+02   1.2901E+05  0.000E+00  0.000E+00  0.000E+00  3.98391E+01  1.687E-01  2.000E+01  2.000E+04  1.667E-02
   1   13   20     1    20    1.2901E+05  1.2226E+02   1.2889E+05  0.000E+00  0.000E+00  0.000E+00  3.93617E+01  1.685E-01  2.000E+01  2.000E+04  6.113E-03
   1   14   21     1    21    1.2889E+05 -1.2041E+03   1.3009E+05  0.000E+00  0.000E+00  0.000E+00  3.88848E+01  1.689E-01  2.000E+01  2.000E+04 -6.020E-02
   1   14   22     1    22    1.3009E+05  5.2147E+03   1.2488E+05  0.000E+00  0.000E+00  0.000E+00  3.84060E+01  1.673E-01  2.000E+01  2.000E+04  2.607E-01
   1    9   30     2     1    5.0000E+04 -4.4235E+02   5.0442E+04  0.000E+00  0.000E+00  0.000E+00  4.02412E+01  1.162E-01  2.000E+01  2.000E+04 -2.212E-02
   1    9   29     2     2    5.0442E+04 -6.8450E+02   5.1127E+04  0.000E+00  0.000E+00  0.000E+00  3.99920E+01  1.170E-01  2.000E+01  2.000E+04 -3.423E-02
   1    9   28     2     3    5.1127E+04 -7.8359E+02   5.1910E+04  0.000E+00  0.000E+00  0.000E+00  3.97430E+01  1.180E-01  2.000E+01  2.000E+04 -3.918E-02
   1    9   27     2     4    5.1910E+04 -9.8140E+02   5.2892E+04  0.000E+00  0.000E+00  0.000E+00  3.94942E+01  1.192E-01  2.000E+01  2.000E+04 -4.907E-02
   1   10   26     2     5    5.2892E+04  9.9075E+02   5.1901E+04  0.000E+00  0.000E+00  0.000E+00  3.92442E+01  1.192E-01  2.000E+01  2.000E+04  4.954E-02
   1   11   25     2     6    5.1901E+04  2.3537E+03   4.9547E+04  0.000E+00  0.000E+00  0.000E+00  3.89919E+01  1.169E-01  2.000E+01  2.000E+04  1.177E-01
   1   12   24     2     7    4.9547E+04  1.9829E+03   4.7565E+04  0.000E+00  0.000E+00  0.000E+00  3.87388E+01  1.138E-01  2.000E+01  2.000E+04  9.914E-02
   1   13   23     2     8    4.7565E+04  1.9545E+02   4.7369E+04  0.000E+00  0.000E+00  0.000E+00  3.84873E+01  1.123E-01  2.000E+01  2.000E+04  9.772E-03
   1   14   22     2     9    4.7369E+04  1.8127E+03   4.5556E+04  0.000E+00  0.000E+00  0.000E+00  3.82359E+01  1.109E-01  2.000E+01  2.000E+04  9.063E-02
   1   14   22     3     1    1.7043E+05 -8.4392E+03   1.7887E+05  0.000E+00  0.000E+00  0.000E+00  3.77233E+01  1.677E-01  2.000E+01  2.000E+04 -4.220E-01
   1   15   23     3     2    1.7887E+05 -6.4905E+02   1.7952E+05  0.000E+00  0.000E+00  0.000E+00  3.68370E+01  1.703E-01  2.000E+01  2.000E+04 -3.245E-02
   1   15   24     3     3    1.7952E+05 -3.4537E+02   1.7987E+05  0.000E+00  0.000E+00  0.000E+00  3.59484E+01  1.706E-01  2.000E+01  2.000E+04 -1.727E-02
   1   15   25     3     4    1.7987E+05 -3.3336E+02   1.8020E+05  0.000E+00  0.000E+00  0.000E+00  3.50597E+01  1.708E-01  2.000E+01  2.000E+04 -1.667E-02
   1   15   26     3     5    1.8020E+05 -3.7807E+02   1.8058E+05  0.000E+00  0.000E+00  0.000E+00  3.41710E+01  1.710E-01  2.000E+01  2.000E+04 -1.890E-02
   1   16   27     3     6    1.8058E+05 -4.3636E+02   1.8101E+05  0.000E+00  0.000E+00  0.000E+00  3.32824E+01  1.712E-01  2.000E+01  2.000E+04 -2.182E-02
   1   17   28     3     7    1.8101E+05 -1.7928E+03   1.8281E+05  0.000E+00  0.000E+00  0.000E+00  3.23941E+01  1.719E-01  2.000E+01  2.000E+04 -8.964E-02
   1   18   29     3     8    1.8281E+05 -3.3536E+03   1.8616E+05  0.000E+00  0.000E+00  0.000E+00  3.15067E+01  1.733E-01  2.000E+01  2.000E+04 -1.677E-01
   1   18   30     3     9    1.8616E+05 -3.4584E+03   1.8962E+05  0.000E+00  0.000E+00  0.000E+00  3.06197E+01  1.752E-01  2.000E+01  2.000E+04 -1.729E-01



1
              HEAD IN LAYER   1 AT END OF TIME STEP   1 IN STRESS PERIOD    4
  ---------------------------------------------------------------------------

          1      2      3      4      5      6      7      8      9     10
         11     12     13     14     15     16     17     18     19     20
         21     22     23     24     25     26     27     28     29     30
 .........................................................................
   1  ****** ****** ****** ****** ****** ****** ****** ****** ****** ******
      ****** ****** ****** ****** ****** ****** ****** ****** ****** ******
      ****** ****** ****** ****** ****** ****** ****** ****** ****** ******
   2  ****** ****** ****** ****** ****** ****** ****** ****** ****** ******
      ****** ****** ****** ****** ****** ****** ****** ****** ****** ******
      ****** ****** ****** ****** ****** ****** ****** ****** ****** ******
   3  ****** ****** ****** ****** ****** ****** ****** ****** ****** ******
      ****** ****** ****** ****** ****** ****** ****** ****** ****** ******
      ****** ****** ****** ****** ****** ****** ****** ****** ****** ******
   4  ****** ****** ****** ****** ****** ****** ****** ****** ****** ******
      ****** ****** ****** ****** ****** ****** ****** ****** ****** ******
      ****** ****** ****** ****** ****** ****** ****** ****** ****** ******
   5  ****** ****** ****** ****** ****** ****** ****** ****** ****** ******
      ****** ****** ****** ****** ****** ****** ****** ****** ****** ******
      ****** ****** ****** ****** ****** ****** ****** ****** ****** ******
   6  ****** ****** ****** ****** ****** ****** ****** ****** ****** ******
      ****** ****** ****** ****** ****** ****** ****** ****** ****** ******
      ****** ****** ****** ****** ****** ****** ****** ****** ****** ******
   7  ****** ****** ****** ****** ****** ****** ****** ****** ****** ******
      ****** ****** ****** ****** ****** ****** ****** ****** ****** ******
      ****** ****** ****** ****** ****** ****** ****** ****** ****** ******
   8  ****** ****** ****** ****** ****** ****** ****** ****** ****** ******
      ****** ****** ****** ****** ****** ****** ****** ****** ****** ******
      ****** ****** ****** ****** ****** ****** ****** ****** ****** ******
   9  ****** ****** ****** ****** ****** ****** ****** ****** ****** ******
      ****** ****** ****** ****** ****** ****** ****** ****** ****** ******
      ****** ****** ****** ****** ****** ****** ****** ****** ****** ******
  10  ****** ****** ****** ****** ****** ****** ****** ****** ****** ******
      ****** ****** ****** ****** ****** ****** ****** ****** ****** ******
      ****** ****** ****** ****** ****** ****** ****** ****** ****** ******
  11  ****** ****** ****** ****** ****** ****** ****** ****** ****** ******
      ****** ****** ****** ****** ****** ****** ****** ****** ****** ******
      ****** ****** ****** ****** ****** ****** ****** ****** ****** ******
  12  ****** ****** ****** ****** ****** ****** ****** ****** ****** ******
      ****** ****** ****** ****** ****** ****** ****** ****** ****** ******
      ****** ****** ****** ****** ****** ****** ****** ****** ****** ******
  13  ****** ****** ****** ****** ****** ****** ****** ****** ****** ******
      ****** ****** ****** ****** ****** ****** ****** ****** ****** ******
      ****** ****** ****** ****** ****** ****** ****** ****** ****** ******
  14  ****** ****** ****** ****** ****** ****** ****** ****** ****** ******
      ****** ****** ****** ****** ****** ****** ****** ****** ****** ******
      ****** ****** ****** ****** ****** ****** ****** ****** ****** ******
  15  ****** ****** ****** ****** ****** ****** ****** ****** ****** ******
      ****** ****** ****** ****** ****** ****** ****** ****** ****** ******
      ****** ****** ****** ****** ****** ****** ****** ****** ****** ******
  16  ****** ****** ****** ****** ****** ****** ****** ****** ****** ******
      ****** ****** ****** ****** ****** ****** ****** ****** ****** ******
      ****** ****** ****** ****** ****** ****** ****** ****** ****** ******
  17  ****** ****** ****** ****** ****** ****** ****** ****** ****** ******
      ****** ****** ****** ****** ****** ****** ****** ****** ****** ******
      ****** ****** ****** ****** ****** ****** ****** ****** ****** ******
  18  ****** ****** ****** ****** ****** ****** ****** ****** ****** ******
      ****** ****** ****** ****** ****** ****** ****** ****** ****** ******
      ****** ****** ****** ****** ****** ****** ****** ****** ****** ******
  19  ****** ****** ****** ****** ****** ****** ****** ****** ****** ******
      ****** ****** ****** ****** ****** ****** ****** ****** ****** ******
      ****** ****** ****** ****** ****** ****** ****** ****** ****** ******
  20  ****** ****** ****** ****** ****** ****** ****** ****** ****** ******
      ****** ****** ****** ****** ****** ****** ****** ****** ****** ******
      ****** ****** ****** ****** ****** ****** ****** ****** ****** ******
  21  ****** ****** ****** ****** ****** ****** ****** ****** ****** ******
      ****** ****** ****** ****** ****** ****** ****** ****** ****** ******
      ****** ****** ****** ****** ****** ****** ****** ****** ****** ******
  22  ****** ****** ****** ****** ****** ****** ****** ****** ****** ******
      ****** ****** ****** ****** ****** ****** ****** ****** ****** ******
      ****** ****** ****** ****** ****** ****** ****** ****** ****** ******
  23  ****** ****** ****** ****** ****** ****** ****** ****** ****** ******
      ****** ****** ****** ****** ****** ****** ****** ****** ****** ******
      ****** ****** ****** ****** ****** ****** ****** ****** ****** ******
  24  ****** ****** ****** ****** ****** ****** ****** ****** ****** ******
      ****** ****** ****** ****** ****** ****** ****** ****** ****** ******
      ****** ****** ****** ****** ****** ****** ****** ****** ****** ******
  25  ****** ****** ****** ****** ****** ****** ****** ****** ****** ******
      ****** ****** ****** ****** ****** ****** ****** ****** ****** ******
      ****** ****** ****** ****** ****** ****** ****** ****** ****** ******

 HEAD WILL BE SAVED ON UNIT   51 AT END OF TIME STEP    1, STRESS PERIOD    4
1
  VOLUMETRIC BUDGET FOR ENTIRE MODEL AT END OF TIME STEP    1, STRESS PERIOD   4
  ------------------------------------------------------------------------------

     CUMULATIVE VOLUMES      L**3       RATES FOR THIS TIME STEP      L**3/T
     ------------------                 ------------------------

           IN:                                      IN:
           ---                                      ---
             STORAGE =    31144180.9902               STORAGE =       21643.2079
       CONSTANT HEAD =     8188959.1182         CONSTANT HEAD =       30550.4206
               WELLS =           0.0000                 WELLS =           0.0000
            RECHARGE =     8804400.0000              RECHARGE =       27600.0000
      STREAM LEAKAGE =     3282143.0791        STREAM LEAKAGE =       13005.6633

            TOTAL IN =    51419683.1875              TOTAL IN =       92799.2918

          OUT:                                     OUT:
          ----                                     ----
             STORAGE =        1095.1651               STORAGE =          12.0348
       CONSTANT HEAD =           0.0000         CONSTANT HEAD =           0.0000
               WELLS =    14659259.1196                 WELLS =       40162.3538
            RECHARGE =           0.0000              RECHARGE =           0.0000
      STREAM LEAKAGE =    36759330.9638        STREAM LEAKAGE =       52624.9042

           TOTAL OUT =    51419685.2485             TOTAL OUT =       92799.2928

            IN - OUT =          -2.0610              IN - OUT =      -1.0148E-03

 PERCENT DISCREPANCY =          -0.00     PERCENT DISCREPANCY =          -0.00






         TIME SUMMARY AT END OF TIME STEP    1 IN STRESS PERIOD    4
                    SECONDS     MINUTES      HOURS       DAYS        YEARS
                    -----------------------------------------------------------
   TIME STEP LENGTH 7.86240E+06 1.31040E+05  2184.0      91.000     0.24914    
 STRESS PERIOD TIME 7.86240E+06 1.31040E+05  2184.0      91.000     0.24914    
         TOTAL TIME 3.15360E+07 5.25600E+05  8760.0      365.00     0.99932    
1
1
                            STRESS PERIOD NO.    5, LENGTH =   92.00000    
                            -----------------------------------------------

                              NUMBER OF TIME STEPS =     1

                               MULTIPLIER FOR DELT =     1.500

                            INITIAL TIME STEP SIZE =   92.00000    

 WELL NO.  LAYER   ROW   COL   STRESS RATE         
 --------------------------------------------------
      1      1     10     24     -0.1046E+05
      2      1      7      8      -7751.    
      3      1      5     20     -0.1234E+05
      4      1     11     21      -9620.    

      4 WELLS

                 RECHARGE =  5.000000E-04

 REUSING STREAM SEGMENT DATA FROM LAST STRESS PERIOD
 
 SOLVING FOR HEAD 


     7 CALLS TO PCG ROUTINE FOR TIME STEP   1 IN STRESS PERIOD    5
    26 TOTAL ITERATIONS

 OUTPUT CONTROL FOR STRESS PERIOD    5   TIME STEP    1
    SAVE BUDGET
    SAVE HEAD FOR ALL LAYERS
    PRINT HEAD FOR ALL LAYERS
 UBDSV2 SAVING "STREAMFLOW OUT  " ON UNIT  50 AT TIME STEP  1, STRESS PERIOD   5



 STREAM LISTING     PERIOD      5   STEP        1

 LAYER ROW COL. STREAM  RCH.  FLOW INTO     FLOW TO   FLOW OUT OF   OVRLND.     DIRECT     STREAM       STREAM     STREAM     STREAM   STREAMBED  STREAMBED
                SEG.NO.  NO.  STRM. RCH.    AQUIFER    STRM. RCH.    RUNOFF     PRECIP       ET          HEAD       DEPTH      WIDTH   CONDCTNC.   GRADIENT

   1   13    1     1     1    1.0000E+05 -1.5552E+03   1.0156E+05  0.000E+00  0.000E+00  0.000E+00  4.84067E+01  1.453E-01  2.000E+01  2.000E+04 -7.776E-02
   1   13    2     1     2    1.0156E+05 -2.5204E+03   1.0408E+05  0.000E+00  0.000E+00  0.000E+00  4.79312E+01  1.471E-01  2.000E+01  2.000E+04 -1.260E-01
   1   14    3     1     3    1.0408E+05 -4.5641E+02   1.0453E+05  0.000E+00  0.000E+00  0.000E+00  4.74552E+01  1.484E-01  2.000E+01  2.000E+04 -2.282E-02
   1   15    4     1     4    1.0453E+05 -4.4225E+02   1.0497E+05  0.000E+00  0.000E+00  0.000E+00  4.69783E+01  1.487E-01  2.000E+01  2.000E+04 -2.211E-02
   1   16    5     1     5    1.0497E+05 -1.7308E+03   1.0671E+05  0.000E+00  0.000E+00  0.000E+00  4.65019E+01  1.497E-01  2.000E+01  2.000E+04 -8.654E-02
   1   16    6     1     6    1.0671E+05 -1.0941E+03   1.0780E+05  0.000E+00  0.000E+00  0.000E+00  4.60259E+01  1.509E-01  2.000E+01  2.000E+04 -5.470E-02
   1   16    7     1     7    1.0780E+05 -1.0782E+03   1.0888E+05  0.000E+00  0.000E+00  0.000E+00  4.55495E+01  1.518E-01  2.000E+01  2.000E+04 -5.391E-02
   1   16    8     1     8    1.0888E+05 -1.0773E+03   1.0995E+05  0.000E+00  0.000E+00  0.000E+00  4.50731E+01  1.527E-01  2.000E+01  2.000E+04 -5.387E-02
   1   16    9     1     9    1.0995E+05 -1.0723E+03   1.1103E+05  0.000E+00  0.000E+00  0.000E+00  4.45968E+01  1.536E-01  2.000E+01  2.000E+04 -5.361E-02
   1   16   10     1    10    1.1103E+05 -1.0639E+03   1.1209E+05  0.000E+00  0.000E+00  0.000E+00  4.41204E+01  1.545E-01  2.000E+01  2.000E+04 -5.320E-02
   1   16   11     1    11    1.1209E+05 -1.0755E+03   1.1317E+05  0.000E+00  0.000E+00  0.000E+00  4.36440E+01  1.554E-01  2.000E+01  2.000E+04 -5.377E-02
   1   16   12     1    12    1.1317E+05 -1.8181E+03   1.1498E+05  0.000E+00  0.000E+00  0.000E+00  4.31679E+01  1.565E-01  2.000E+01  2.000E+04 -9.091E-02
   1   15   13     1    13    1.1498E+05 -1.5423E+03   1.1653E+05  0.000E+00  0.000E+00  0.000E+00  4.26920E+01  1.579E-01  2.000E+01  2.000E+04 -7.711E-02
   1   14   14     1    14    1.1653E+05 -1.6174E+03   1.1814E+05  0.000E+00  0.000E+00  0.000E+00  4.22160E+01  1.592E-01  2.000E+01  2.000E+04 -8.087E-02
   1   13   15     1    15    1.1814E+05 -1.6481E+03   1.1979E+05  0.000E+00  0.000E+00  0.000E+00  4.17401E+01  1.605E-01  2.000E+01  2.000E+04 -8.240E-02
   1   12   16     1    16    1.1979E+05 -1.6196E+03   1.2141E+05  0.000E+00  0.000E+00  0.000E+00  4.12641E+01  1.619E-01  2.000E+01  2.000E+04 -8.098E-02
   1   12   17     1    17    1.2141E+05 -8.9546E+02   1.2231E+05  0.000E+00  0.000E+00  0.000E+00  4.07879E+01  1.629E-01  2.000E+01  2.000E+04 -4.477E-02
   1   12   18     1    18    1.2231E+05 -5.3361E+02   1.2284E+05  0.000E+00  0.000E+00  0.000E+00  4.03112E+01  1.634E-01  2.000E+01  2.000E+04 -2.668E-02
   1   12   19     1    19    1.2284E+05  7.9832E+02   1.2204E+05  0.000E+00  0.000E+00  0.000E+00  3.98338E+01  1.633E-01  2.000E+01  2.000E+04  3.992E-02
   1   13   20     1    20    1.2204E+05  4.9724E+02   1.2155E+05  0.000E+00  0.000E+00  0.000E+00  3.93560E+01  1.628E-01  2.000E+01  2.000E+04  2.486E-02
   1   14   21     1    21    1.2155E+05 -8.2909E+02   1.2237E+05  0.000E+00  0.000E+00  0.000E+00  3.88789E+01  1.630E-01  2.000E+01  2.000E+04 -4.145E-02
   1   14   22     1    22    1.2237E+05  5.2959E+03   1.1708E+05  0.000E+00  0.000E+00  0.000E+00  3.83998E+01  1.612E-01  2.000E+01  2.000E+04  2.648E-01
   1    9   30     2     1    5.0000E+04 -1.9000E+02   5.0190E+04  0.000E+00  0.000E+00  0.000E+00  4.02410E+01  1.160E-01  2.000E+01  2.000E+04 -9.500E-03
   1    9   29     2     2    5.0190E+04 -4.2719E+02   5.0617E+04  0.000E+00  0.000E+00  0.000E+00  3.99914E+01  1.164E-01  2.000E+01  2.000E+04 -2.136E-02
   1    9   28     2     3    5.0617E+04 -5.1064E+02   5.1128E+04  0.000E+00  0.000E+00  0.000E+00  3.97421E+01  1.171E-01  2.000E+01  2.000E+04 -2.553E-02
   1    9   27     2     4    5.1128E+04 -5.4006E+02   5.1668E+04  0.000E+00  0.000E+00  0.000E+00  3.94928E+01  1.178E-01  2.000E+01  2.000E+04 -2.700E-02
   1   10   26     2     5    5.1668E+04  1.3717E+03   5.0296E+04  0.000E+00  0.000E+00  0.000E+00  3.92422E+01  1.172E-01  2.000E+01  2.000E+04  6.858E-02
   1   11   25     2     6    5.0296E+04  2.7025E+03   4.7594E+04  0.000E+00  0.000E+00  0.000E+00  3.89894E+01  1.144E-01  2.000E+01  2.000E+04  1.351E-01
   1   12   24     2     7    4.7594E+04  2.3030E+03   4.5291E+04  0.000E+00  0.000E+00  0.000E+00  3.87358E+01  1.108E-01  2.000E+01  2.000E+04  1.152E-01
   1   13   23     2     8    4.5291E+04  2.6933E+02   4.5021E+04  0.000E+00  0.000E+00  0.000E+00  3.84840E+01  1.090E-01  2.000E+01  2.000E+04  1.347E-02
   1   14   22     2     9    4.5021E+04  1.9477E+03   4.3074E+04  0.000E+00  0.000E+00  0.000E+00  3.82324E+01  1.074E-01  2.000E+01  2.000E+04  9.738E-02
   1   14   22     3     1    1.6015E+05 -8.3547E+03   1.6851E+05  0.000E+00  0.000E+00  0.000E+00  3.77173E+01  1.617E-01  2.000E+01  2.000E+04 -4.177E-01
   1   15   23     3     2    1.6851E+05 -5.5312E+02   1.6906E+05  0.000E+00  0.000E+00  0.000E+00  3.68310E+01  1.643E-01  2.000E+01  2.000E+04 -2.766E-02
   1   15   24     3     3    1.6906E+05 -2.7447E+02   1.6933E+05  0.000E+00  0.000E+00  0.000E+00  3.59423E+01  1.646E-01  2.000E+01  2.000E+04 -1.372E-02
   1   15   25     3     4    1.6933E+05 -2.6286E+02   1.6960E+05  0.000E+00  0.000E+00  0.000E+00  3.50536E+01  1.647E-01  2.000E+01  2.000E+04 -1.314E-02
   1   15   26     3     5    1.6960E+05 -3.0642E+02   1.6990E+05  0.000E+00  0.000E+00  0.000E+00  3.41649E+01  1.649E-01  2.000E+01  2.000E+04 -1.532E-02
   1   16   27     3     6    1.6990E+05 -3.4674E+02   1.7025E+05  0.000E+00  0.000E+00  0.000E+00  3.32762E+01  1.651E-01  2.000E+01  2.000E+04 -1.734E-02
   1   17   28     3     7    1.7025E+05 -1.5281E+03   1.7178E+05  0.000E+00  0.000E+00  0.000E+00  3.23878E+01  1.656E-01  2.000E+01  2.000E+04 -7.641E-02
   1   18   29     3     8    1.7178E+05 -2.9869E+03   1.7477E+05  0.000E+00  0.000E+00  0.000E+00  3.15003E+01  1.669E-01  2.000E+01  2.000E+04 -1.493E-01
   1   18   30     3     9    1.7477E+05 -3.2052E+03   1.7797E+05  0.000E+00  0.000E+00  0.000E+00  3.06132E+01  1.687E-01  2.000E+01  2.000E+04 -1.603E-01



1
              HEAD IN LAYER   1 AT END OF TIME STEP   1 IN STRESS PERIOD    5
  ---------------------------------------------------------------------------

          1      2      3      4      5      6      7      8      9     10
         11     12     13     14     15     16     17     18     19     20
         21     22     23     24     25     26     27     28     29     30
 .........................................................................
   1  ****** ****** ****** ****** ****** ****** ****** ****** ****** ******
      ****** ****** ****** ****** ****** ****** ****** ****** ****** ******
      ****** ****** ****** ****** ****** ****** ****** ****** ****** ******
   2  ****** ****** ****** ****** ****** ****** ****** ****** ****** ******
      ****** ****** ****** ****** ****** ****** ****** ****** ****** ******
      ****** ****** ****** ****** ****** ****** ****** ****** ****** ******
   3  ****** ****** ****** ****** ****** ****** ****** ****** ****** ******
      ****** ****** ****** ****** ****** ****** ****** ****** ****** ******
      ****** ****** ****** ****** ****** ****** ****** ****** ****** ******
   4  ****** ****** ****** ****** ****** ****** ****** ****** ****** ******
      ****** ****** ****** ****** ****** ****** ****** ****** ****** ******
      ****** ****** ****** ****** ****** ****** ****** ****** ****** ******
   5  ****** ****** ****** ****** ****** ****** ****** ****** ****** ******
      ****** ****** ****** ****** ****** ****** ****** ****** ****** ******
      ****** ****** ****** ****** ****** ****** ****** ****** ****** ******
   6  ****** ****** ****** ****** ****** ****** ****** ****** ****** ******
      ****** ****** ****** ****** ****** ****** ****** ****** ****** ******
      ****** ****** ****** ****** ****** ****** ****** ****** ****** ******
   7  ****** ****** ****** ****** ****** ****** ****** ****** ****** ******
      ****** ****** ****** ****** ****** ****** ****** ****** ****** ******
      ****** ****** ****** ****** ****** ****** ****** ****** ****** ******
   8  ****** ****** ****** ****** ****** ****** ****** ****** ****** ******
      ****** ****** ****** ****** ****** ****** ****** ****** ****** ******
      ****** ****** ****** ****** ****** ****** ****** ****** ****** ******
   9  ****** ****** ****** ****** ****** ****** ****** ****** ****** ******
      ****** ****** ****** ****** ****** ****** ****** ****** ****** ******
      ****** ****** ****** ****** ****** ****** ****** ****** ****** ******
  10  ****** ****** ****** ****** ****** ****** ****** ****** ****** ******
      ****** ****** ****** ****** ****** ****** ****** ****** ****** ******
      ****** ****** ****** ****** ****** ****** ****** ****** ****** ******
  11  ****** ****** ****** ****** ****** ****** ****** ****** ****** ******
      ****** ****** ****** ****** ****** ****** ****** ****** ****** ******
      ****** ****** ****** ****** ****** ****** ****** ****** ****** ******
  12  ****** ****** ****** ****** ****** ****** ****** ****** ****** ******
      ****** ****** ****** ****** ****** ****** ****** ****** ****** ******
      ****** ****** ****** ****** ****** ****** ****** ****** ****** ******
  13  ****** ****** ****** ****** ****** ****** ****** ****** ****** ******
      ****** ****** ****** ****** ****** ****** ****** ****** ****** ******
      ****** ****** ****** ****** ****** ****** ****** ****** ****** ******
  14  ****** ****** ****** ****** ****** ****** ****** ****** ****** ******
      ****** ****** ****** ****** ****** ****** ****** ****** ****** ******
      ****** ****** ****** ****** ****** ****** ****** ****** ****** ******
  15  ****** ****** ****** ****** ****** ****** ****** ****** ****** ******
      ****** ****** ****** ****** ****** ****** ****** ****** ****** ******
      ****** ****** ****** ****** ****** ****** ****** ****** ****** ******
  16  ****** ****** ****** ****** ****** ****** ****** ****** ****** ******
      ****** ****** ****** ****** ****** ****** ****** ****** ****** ******
      ****** ****** ****** ****** ****** ****** ****** ****** ****** ******
  17  ****** ****** ****** ****** ****** ****** ****** ****** ****** ******
      ****** ****** ****** ****** ****** ****** ****** ****** ****** ******
      ****** ****** ****** ****** ****** ****** ****** ****** ****** ******
  18  ****** ****** ****** ****** ****** ****** ****** ****** ****** ******
      ****** ****** ****** ****** ****** ****** ****** ****** ****** ******
      ****** ****** ****** ****** ****** ****** ****** ****** ****** ******
  19  ****** ****** ****** ****** ****** ****** ****** ****** ****** ******
      ****** ****** ****** ****** ****** ****** ****** ****** ****** ******
      ****** ****** ****** ****** ****** ****** ****** ****** ****** ******
  20  ****** ****** ****** ****** ****** ****** ****** ****** ****** ******
      ****** ****** ****** ****** ****** ****** ****** ****** ****** ******
      ****** ****** ****** ****** ****** ****** ****** ****** ****** ******
  21  ****** ****** ****** ****** ****** ****** ****** ****** ****** ******
      ****** ****** ****** ****** ****** ****** ****** ****** ****** ******
      ****** ****** ****** ****** ****** ****** ****** ****** ****** ******
  22  ****** ****** ****** ****** ****** ****** ****** ****** ****** ******
      ****** ****** ****** ****** ****** ****** ****** ****** ****** ******
      ****** ****** ****** ****** ****** ****** ****** ****** ****** ******
  23  ****** ****** ****** ****** ****** ****** ****** ****** ****** ******
      ****** ****** ****** ****** ****** ****** ****** ****** ****** ******
      ****** ****** ****** ****** ****** ****** ****** ****** ****** ******
  24  ****** ****** ****** ****** ****** ****** ****** ****** ****** ******
      ****** ****** ****** ****** ****** ****** ****** ****** ****** ******
      ****** ****** ****** ****** ****** ****** ****** ****** ****** ******
  25  ****** ****** ****** ****** ****** ****** ****** ****** ****** ******
      ****** ****** ****** ****** ****** ****** ****** ****** ****** ******
      ****** ****** ****** ****** ****** ****** ****** ****** ****** ******

 HEAD WILL BE SAVED ON UNIT   51 AT END OF TIME STEP    1, STRESS PERIOD    5
1
  VOLUMETRIC BUDGET FOR ENTIRE MODEL AT END OF TIME STEP    1, STRESS PERIOD   5
  ------------------------------------------------------------------------------

     CUMULATIVE VOLUMES      L**3       RATES FOR THIS TIME STEP      L**3/T
     ------------------                 ------------------------

           IN:                                      IN:
           ---                                      ---
             STORAGE =    33037733.1740               STORAGE =       20582.0890
       CONSTANT HEAD =    11294053.4442         CONSTANT HEAD =       33751.0253
               WELLS =           0.0000                 WELLS =           0.0000
            RECHARGE =    10074000.0000              RECHARGE =       13800.0000
      STREAM LEAKAGE =     4679218.9179        STREAM LEAKAGE =       15185.6069

            TOTAL IN =    59085005.5361              TOTAL IN =       83318.7212

          OUT:                                     OUT:
          ----                                     ----
             STORAGE =        1095.1651               STORAGE =           0.0000
       CONSTANT HEAD =           0.0000         CONSTANT HEAD =           0.0000
               WELLS =    18354195.6648                 WELLS =       40162.3538
            RECHARGE =           0.0000              RECHARGE =           0.0000
      STREAM LEAKAGE =    40729717.0856        STREAM LEAKAGE =       43156.3709

           TOTAL OUT =    59085007.9155             TOTAL OUT =       83318.7246

            IN - OUT =          -2.3794              IN - OUT =      -3.4607E-03

 PERCENT DISCREPANCY =          -0.00     PERCENT DISCREPANCY =          -0.00






         TIME SUMMARY AT END OF TIME STEP    1 IN STRESS PERIOD    5
                    SECONDS     MINUTES      HOURS       DAYS        YEARS
                    -----------------------------------------------------------
   TIME STEP LENGTH 7.94880E+06 1.32480E+05  2208.0      92.000     0.25188    
 STRESS PERIOD TIME 7.94880E+06 1.32480E+05  2208.0      92.000     0.25188    
         TOTAL TIME 3.94848E+07 6.58080E+05  10968.      457.00      1.2512    
1
1
                            STRESS PERIOD NO.    6, LENGTH =   91.00000    
                            -----------------------------------------------

                              NUMBER OF TIME STEPS =     1

                               MULTIPLIER FOR DELT =     1.500

                            INITIAL TIME STEP SIZE =   91.00000    

 WELL NO.  LAYER   ROW   COL   STRESS RATE         
 --------------------------------------------------
      1      1     10     24     -0.1046E+05
      2      1      7      8      -7751.    
      3      1      5     20     -0.1234E+05
      4      1     11     21      -9620.    

      4 WELLS

                 RECHARGE =  2.000000E-03

 REUSING STREAM SEGMENT DATA FROM LAST STRESS PERIOD
 
 SOLVING FOR HEAD 


     7 CALLS TO PCG ROUTINE FOR TIME STEP   1 IN STRESS PERIOD    6
    26 TOTAL ITERATIONS

 OUTPUT CONTROL FOR STRESS PERIOD    6   TIME STEP    1
    SAVE BUDGET
    SAVE HEAD FOR ALL LAYERS
    PRINT HEAD FOR ALL LAYERS
 UBDSV2 SAVING "STREAMFLOW OUT  " ON UNIT  50 AT TIME STEP  1, STRESS PERIOD   6



 STREAM LISTING     PERIOD      6   STEP        1

 LAYER ROW COL. STREAM  RCH.  FLOW INTO     FLOW TO   FLOW OUT OF   OVRLND.     DIRECT     STREAM       STREAM     STREAM     STREAM   STREAMBED  STREAMBED
                SEG.NO.  NO.  STRM. RCH.    AQUIFER    STRM. RCH.    RUNOFF     PRECIP       ET          HEAD       DEPTH      WIDTH   CONDCTNC.   GRADIENT

   1   13    1     1     1    1.0000E+05 -1.8159E+03   1.0182E+05  0.000E+00  0.000E+00  0.000E+00  4.84068E+01  1.454E-01  2.000E+01  2.000E+04 -9.080E-02
   1   13    2     1     2    1.0182E+05 -2.8027E+03   1.0462E+05  0.000E+00  0.000E+00  0.000E+00  4.79315E+01  1.474E-01  2.000E+01  2.000E+04 -1.401E-01
   1   14    3     1     3    1.0462E+05 -6.0354E+02   1.0522E+05  0.000E+00  0.000E+00  0.000E+00  4.74557E+01  1.489E-01  2.000E+01  2.000E+04 -3.018E-02
   1   15    4     1     4    1.0522E+05 -6.0297E+02   1.0583E+05  0.000E+00  0.000E+00  0.000E+00  4.69789E+01  1.494E-01  2.000E+01  2.000E+04 -3.015E-02
   1   16    5     1     5    1.0583E+05 -2.2267E+03   1.0805E+05  0.000E+00  0.000E+00  0.000E+00  4.65029E+01  1.506E-01  2.000E+01  2.000E+04 -1.113E-01
   1   16    6     1     6    1.0805E+05 -1.3820E+03   1.0943E+05  0.000E+00  0.000E+00  0.000E+00  4.60271E+01  1.521E-01  2.000E+01  2.000E+04 -6.910E-02
   1   16    7     1     7    1.0943E+05 -1.3504E+03   1.1078E+05  0.000E+00  0.000E+00  0.000E+00  4.55510E+01  1.533E-01  2.000E+01  2.000E+04 -6.752E-02
   1   16    8     1     8    1.1078E+05 -1.3451E+03   1.1213E+05  0.000E+00  0.000E+00  0.000E+00  4.50748E+01  1.544E-01  2.000E+01  2.000E+04 -6.726E-02
   1   16    9     1     9    1.1213E+05 -1.3405E+03   1.1347E+05  0.000E+00  0.000E+00  0.000E+00  4.45987E+01  1.555E-01  2.000E+01  2.000E+04 -6.702E-02
   1   16   10     1    10    1.1347E+05 -1.3352E+03   1.1481E+05  0.000E+00  0.000E+00  0.000E+00  4.41225E+01  1.566E-01  2.000E+01  2.000E+04 -6.676E-02
   1   16   11     1    11    1.1481E+05 -1.3519E+03   1.1616E+05  0.000E+00  0.000E+00  0.000E+00  4.36463E+01  1.577E-01  2.000E+01  2.000E+04 -6.760E-02
   1   16   12     1    12    1.1616E+05 -2.2623E+03   1.1842E+05  0.000E+00  0.000E+00  0.000E+00  4.31705E+01  1.592E-01  2.000E+01  2.000E+04 -1.131E-01
   1   15   13     1    13    1.1842E+05 -1.9810E+03   1.2040E+05  0.000E+00  0.000E+00  0.000E+00  4.26950E+01  1.609E-01  2.000E+01  2.000E+04 -9.905E-02
   1   14   14     1    14    1.2040E+05 -2.0396E+03   1.2244E+05  0.000E+00  0.000E+00  0.000E+00  4.22193E+01  1.625E-01  2.000E+01  2.000E+04 -1.020E-01
   1   13   15     1    15    1.2244E+05 -2.0401E+03   1.2448E+05  0.000E+00  0.000E+00  0.000E+00  4.17437E+01  1.641E-01  2.000E+01  2.000E+04 -1.020E-01
   1   12   16     1    16    1.2448E+05 -1.9456E+03   1.2643E+05  0.000E+00  0.000E+00  0.000E+00  4.12680E+01  1.657E-01  2.000E+01  2.000E+04 -9.728E-02
   1   12   17     1    17    1.2643E+05 -1.1793E+03   1.2760E+05  0.000E+00  0.000E+00  0.000E+00  4.07920E+01  1.670E-01  2.000E+01  2.000E+04 -5.896E-02
   1   12   18     1    18    1.2760E+05 -8.2552E+02   1.2843E+05  0.000E+00  0.000E+00  0.000E+00  4.03155E+01  1.678E-01  2.000E+01  2.000E+04 -4.128E-02
   1   12   19     1    19    1.2843E+05  4.3689E+02   1.2799E+05  0.000E+00  0.000E+00  0.000E+00  3.98384E+01  1.679E-01  2.000E+01  2.000E+04  2.184E-02
   1   13   20     1    20    1.2799E+05  8.6235E+01   1.2791E+05  0.000E+00  0.000E+00  0.000E+00  3.93609E+01  1.677E-01  2.000E+01  2.000E+04  4.312E-03
   1   14   21     1    21    1.2791E+05 -1.2436E+03   1.2915E+05  0.000E+00  0.000E+00  0.000E+00  3.88841E+01  1.682E-01  2.000E+01  2.000E+04 -6.218E-02
   1   14   22     1    22    1.2915E+05  5.1853E+03   1.2397E+05  0.000E+00  0.000E+00  0.000E+00  3.84052E+01  1.666E-01  2.000E+01  2.000E+04  2.593E-01
   1    9   30     2     1    5.0000E+04 -5.4257E+02   5.0543E+04  0.000E+00  0.000E+00  0.000E+00  4.02412E+01  1.162E-01  2.000E+01  2.000E+04 -2.713E-02
   1    9   29     2     2    5.0543E+04 -7.7465E+02   5.1317E+04  0.000E+00  0.000E+00  0.000E+00  3.99922E+01  1.172E-01  2.000E+01  2.000E+04 -3.873E-02
   1    9   28     2     3    5.1317E+04 -8.4933E+02   5.2167E+04  0.000E+00  0.000E+00  0.000E+00  3.97433E+01  1.183E-01  2.000E+01  2.000E+04 -4.247E-02
   1    9   27     2     4    5.2167E+04 -9.5792E+02   5.3124E+04  0.000E+00  0.000E+00  0.000E+00  3.94945E+01  1.195E-01  2.000E+01  2.000E+04 -4.790E-02
   1   10   26     2     5    5.3124E+04  9.2397E+02   5.2201E+04  0.000E+00  0.000E+00  0.000E+00  3.92445E+01  1.195E-01  2.000E+01  2.000E+04  4.620E-02
   1   11   25     2     6    5.2201E+04  2.2674E+03   4.9933E+04  0.000E+00  0.000E+00  0.000E+00  3.89923E+01  1.173E-01  2.000E+01  2.000E+04  1.134E-01
   1   12   24     2     7    4.9933E+04  1.9122E+03   4.8021E+04  0.000E+00  0.000E+00  0.000E+00  3.87394E+01  1.144E-01  2.000E+01  2.000E+04  9.561E-02
   1   13   23     2     8    4.8021E+04  1.3442E+02   4.7886E+04  0.000E+00  0.000E+00  0.000E+00  3.84880E+01  1.130E-01  2.000E+01  2.000E+04  6.721E-03
   1   14   22     2     9    4.7886E+04  1.8127E+03   4.6074E+04  0.000E+00  0.000E+00  0.000E+00  3.82366E+01  1.116E-01  2.000E+01  2.000E+04  9.064E-02
   1   14   22     3     1    1.7004E+05 -8.4583E+03   1.7850E+05  0.000E+00  0.000E+00  0.000E+00  3.77231E+01  1.675E-01  2.000E+01  2.000E+04 -4.229E-01
   1   15   23     3     2    1.7850E+05 -6.9231E+02   1.7919E+05  0.000E+00  0.000E+00  0.000E+00  3.68368E+01  1.701E-01  2.000E+01  2.000E+04 -3.462E-02
   1   15   24     3     3    1.7919E+05 -3.9744E+02   1.7959E+05  0.000E+00  0.000E+00  0.000E+00  3.59482E+01  1.704E-01  2.000E+01  2.000E+04 -1.987E-02
   1   15   25     3     4    1.7959E+05 -3.9016E+02   1.7998E+05  0.000E+00  0.000E+00  0.000E+00  3.50596E+01  1.707E-01  2.000E+01  2.000E+04 -1.951E-02
   1   15   26     3     5    1.7998E+05 -4.5836E+02   1.8044E+05  0.000E+00  0.000E+00  0.000E+00  3.41709E+01  1.709E-01  2.000E+01  2.000E+04 -2.292E-02
   1   16   27     3     6    1.8044E+05 -5.1652E+02   1.8095E+05  0.000E+00  0.000E+00  0.000E+00  3.32823E+01  1.712E-01  2.000E+01  2.000E+04 -2.583E-02
   1   17   28     3     7    1.8095E+05 -1.9948E+03   1.8295E+05  0.000E+00  0.000E+00  0.000E+00  3.23941E+01  1.719E-01  2.000E+01  2.000E+04 -9.974E-02
   1   18   29     3     8    1.8295E+05 -3.4353E+03   1.8638E+05  0.000E+00  0.000E+00  0.000E+00  3.15068E+01  1.734E-01  2.000E+01  2.000E+04 -1.718E-01
   1   18   30     3     9    1.8638E+05 -3.5668E+03   1.8995E+05  0.000E+00  0.000E+00  0.000E+00  3.06198E+01  1.754E-01  2.000E+01  2.000E+04 -1.783E-01



1
              HEAD IN LAYER   1 AT END OF TIME STEP   1 IN STRESS PERIOD    6
  ---------------------------------------------------------------------------

          1      2      3      4      5      6      7      8      9     10
         11     12     13     14     15     16     17     18     19     20
         21     22     23     24     25     26     27     28     29     30
 .........................................................................
   1  ****** ****** ****** ****** ****** ****** ****** ****** ****** ******
      ****** ****** ****** ****** ****** ****** ****** ****** ****** ******
      ****** ****** ****** ****** ****** ****** ****** ****** ****** ******
   2  ****** ****** ****** ****** ****** ****** ****** ****** ****** ******
      ****** ****** ****** ****** ****** ****** ****** ****** ****** ******
      ****** ****** ****** ****** ****** ****** ****** ****** ****** ******
   3  ****** ****** ****** ****** ****** ****** ****** ****** ****** ******
      ****** ****** ****** ****** ****** ****** ****** ****** ****** ******
      ****** ****** ****** ****** ****** ****** ****** ****** ****** ******
   4  ****** ****** ****** ****** ****** ****** ****** ****** ****** ******
      ****** ****** ****** ****** ****** ****** ****** ****** ****** ******
      ****** ****** ****** ****** ****** ****** ****** ****** ****** ******
   5  ****** ****** ****** ****** ****** ****** ****** ****** ****** ******
      ****** ****** ****** ****** ****** ****** ****** ****** ****** ******
      ****** ****** ****** ****** ****** ****** ****** ****** ****** ******
   6  ****** ****** ****** ****** ****** ****** ****** ****** ****** ******
      ****** ****** ****** ****** ****** ****** ****** ****** ****** ******
      ****** ****** ****** ****** ****** ****** ****** ****** ****** ******
   7  ****** ****** ****** ****** ****** ****** ****** ****** ****** ******
      ****** ****** ****** ****** ****** ****** ****** ****** ****** ******
      ****** ****** ****** ****** ****** ****** ****** ****** ****** ******
   8  ****** ****** ****** ****** ****** ****** ****** ****** ****** ******
      ****** ****** ****** ****** ****** ****** ****** ****** ****** ******
      ****** ****** ****** ****** ****** ****** ****** ****** ****** ******
   9  ****** ****** ****** ****** ****** ****** ****** ****** ****** ******
      ****** ****** ****** ****** ****** ****** ****** ****** ****** ******
      ****** ****** ****** ****** ****** ****** ****** ****** ****** ******
  10  ****** ****** ****** ****** ****** ****** ****** ****** ****** ******
      ****** ****** ****** ****** ****** ****** ****** ****** ****** ******
      ****** ****** ****** ****** ****** ****** ****** ****** ****** ******
  11  ****** ****** ****** ****** ****** ****** ****** ****** ****** ******
      ****** ****** ****** ****** ****** ****** ****** ****** ****** ******
      ****** ****** ****** ****** ****** ****** ****** ****** ****** ******
  12  ****** ****** ****** ****** ****** ****** ****** ****** ****** ******
      ****** ****** ****** ****** ****** ****** ****** ****** ****** ******
      ****** ****** ****** ****** ****** ****** ****** ****** ****** ******
  13  ****** ****** ****** ****** ****** ****** ****** ****** ****** ******
      ****** ****** ****** ****** ****** ****** ****** ****** ****** ******
      ****** ****** ****** ****** ****** ****** ****** ****** ****** ******
  14  ****** ****** ****** ****** ****** ****** ****** ****** ****** ******
      ****** ****** ****** ****** ****** ****** ****** ****** ****** ******
      ****** ****** ****** ****** ****** ****** ****** ****** ****** ******
  15  ****** ****** ****** ****** ****** ****** ****** ****** ****** ******
      ****** ****** ****** ****** ****** ****** ****** ****** ****** ******
      ****** ****** ****** ****** ****** ****** ****** ****** ****** ******
  16  ****** ****** ****** ****** ****** ****** ****** ****** ****** ******
      ****** ****** ****** ****** ****** ****** ****** ****** ****** ******
      ****** ****** ****** ****** ****** ****** ****** ****** ****** ******
  17  ****** ****** ****** ****** ****** ****** ****** ****** ****** ******
      ****** ****** ****** ****** ****** ****** ****** ****** ****** ******
      ****** ****** ****** ****** ****** ****** ****** ****** ****** ******
  18  ****** ****** ****** ****** ****** ****** ****** ****** ****** ******
      ****** ****** ****** ****** ****** ****** ****** ****** ****** ******
      ****** ****** ****** ****** ****** ****** ****** ****** ****** ******
  19  ****** ****** ****** ****** ****** ****** ****** ****** ****** ******
      ****** ****** ****** ****** ****** ****** ****** ****** ****** ******
      ****** ****** ****** ****** ****** ****** ****** ****** ****** ******
  20  ****** ****** ****** ****** ****** ****** ****** ****** ****** ******
      ****** ****** ****** ****** ****** ****** ****** ****** ****** ******
      ****** ****** ****** ****** ****** ****** ****** ****** ****** ******
  21  ****** ****** ****** ****** ****** ****** ****** ****** ****** ******
      ****** ****** ****** ****** ****** ****** ****** ****** ****** ******
      ****** ****** ****** ****** ****** ****** ****** ****** ****** ******
  22  ****** ****** ****** ****** ****** ****** ****** ****** ****** ******
      ****** ****** ****** ****** ****** ****** ****** ****** ****** ******
      ****** ****** ****** ****** ****** ****** ****** ****** ****** ******
  23  ****** ****** ****** ****** ****** ****** ****** ****** ****** ******
      ****** ****** ****** ****** ****** ****** ****** ****** ****** ******
      ****** ****** ****** ****** ****** ****** ****** ****** ****** ******
  24  ****** ****** ****** ****** ****** ****** ****** ****** ****** ******
      ****** ****** ****** ****** ****** ****** ****** ****** ****** ******
      ****** ****** ****** ****** ****** ****** ****** ****** ****** ******
  25  ****** ****** ****** ****** ****** ****** ****** ****** ****** ******
      ****** ****** ****** ****** ****** ****** ****** ****** ****** ******
      ****** ****** ****** ****** ****** ****** ****** ****** ****** ******

 HEAD WILL BE SAVED ON UNIT   51 AT END OF TIME STEP    1, STRESS PERIOD    6
1
  VOLUMETRIC BUDGET FOR ENTIRE MODEL AT END OF TIME STEP    1, STRESS PERIOD   6
  ------------------------------------------------------------------------------

     CUMULATIVE VOLUMES      L**3       RATES FOR THIS TIME STEP      L**3/T
     ------------------                 ------------------------

           IN:                                      IN:
           ---                                      ---
             STORAGE =    33073649.8111               STORAGE =         394.6883
       CONSTANT HEAD =    14209531.2409         CONSTANT HEAD =       32038.2175
               WELLS =           0.0000                 WELLS =           0.0000
            RECHARGE =    15097200.0000              RECHARGE =       55200.0000
      STREAM LEAKAGE =     5840301.8947        STREAM LEAKAGE =       12759.1536

            TOTAL IN =    68220682.9468              TOTAL IN =      100392.0595

          OUT:                                     OUT:
          ----                                     ----
             STORAGE =      685525.9947               STORAGE =        7521.2179
       CONSTANT HEAD =           0.0000         CONSTANT HEAD =           0.0000
               WELLS =    22008969.8563                 WELLS =       40162.3538
            RECHARGE =           0.0000              RECHARGE =           0.0000
      STREAM LEAKAGE =    45526189.2174        STREAM LEAKAGE =       52708.4850

           TOTAL OUT =    68220685.0683             TOTAL OUT =      100392.0566

            IN - OUT =          -2.1215              IN - OUT =       2.8337E-03

 PERCENT DISCREPANCY =          -0.00     PERCENT DISCREPANCY =           0.00






         TIME SUMMARY AT END OF TIME STEP    1 IN STRESS PERIOD    6
                    SECONDS     MINUTES      HOURS       DAYS        YEARS
                    -----------------------------------------------------------
   TIME STEP LENGTH 7.86240E+06 1.31040E+05  2184.0      91.000     0.24914    
 STRESS PERIOD TIME 7.86240E+06 1.31040E+05  2184.0      91.000     0.24914    
         TOTAL TIME 4.73472E+07 7.89120E+05  13152.      548.00      1.5003    
1
1
                            STRESS PERIOD NO.    7, LENGTH =   91.00000    
                            -----------------------------------------------

                              NUMBER OF TIME STEPS =     1

                               MULTIPLIER FOR DELT =     1.500

                            INITIAL TIME STEP SIZE =   91.00000    

 WELL NO.  LAYER   ROW   COL   STRESS RATE         
 --------------------------------------------------
      1      1     10     24     -0.1046E+05
      2      1      7      8      -7751.    
      3      1      5     20     -0.1234E+05
      4      1     11     21      -9620.    

      4 WELLS

                 RECHARGE =   0.00000    

 REUSING STREAM SEGMENT DATA FROM LAST STRESS PERIOD
 
 SOLVING FOR HEAD 


     7 CALLS TO PCG ROUTINE FOR TIME STEP   1 IN STRESS PERIOD    7
    26 TOTAL ITERATIONS

 OUTPUT CONTROL FOR STRESS PERIOD    7   TIME STEP    1
    SAVE BUDGET
    SAVE HEAD FOR ALL LAYERS
    PRINT HEAD FOR ALL LAYERS
 UBDSV2 SAVING "STREAMFLOW OUT  " ON UNIT  50 AT TIME STEP  1, STRESS PERIOD   7



 STREAM LISTING     PERIOD      7   STEP        1

 LAYER ROW COL. STREAM  RCH.  FLOW INTO     FLOW TO   FLOW OUT OF   OVRLND.     DIRECT     STREAM       STREAM     STREAM     STREAM   STREAMBED  STREAMBED
                SEG.NO.  NO.  STRM. RCH.    AQUIFER    STRM. RCH.    RUNOFF     PRECIP       ET          HEAD       DEPTH      WIDTH   CONDCTNC.   GRADIENT

   1   13    1     1     1    1.0000E+05 -1.1104E+03   1.0111E+05  0.000E+00  0.000E+00  0.000E+00  4.84065E+01  1.451E-01  2.000E+01  2.000E+04 -5.552E-02
   1   13    2     1     2    1.0111E+05 -2.0115E+03   1.0312E+05  0.000E+00  0.000E+00  0.000E+00  4.79306E+01  1.465E-01  2.000E+01  2.000E+04 -1.006E-01
   1   14    3     1     3    1.0312E+05 -3.4546E+02   1.0347E+05  0.000E+00  0.000E+00  0.000E+00  4.74543E+01  1.475E-01  2.000E+01  2.000E+04 -1.727E-02
   1   15    4     1     4    1.0347E+05 -3.3567E+02   1.0380E+05  0.000E+00  0.000E+00  0.000E+00  4.69773E+01  1.478E-01  2.000E+01  2.000E+04 -1.678E-02
   1   16    5     1     5    1.0380E+05 -1.4723E+03   1.0528E+05  0.000E+00  0.000E+00  0.000E+00  4.65008E+01  1.486E-01  2.000E+01  2.000E+04 -7.361E-02
   1   16    6     1     6    1.0528E+05 -9.2453E+02   1.0620E+05  0.000E+00  0.000E+00  0.000E+00  4.60246E+01  1.496E-01  2.000E+01  2.000E+04 -4.623E-02
   1   16    7     1     7    1.0620E+05 -9.1085E+02   1.0711E+05  0.000E+00  0.000E+00  0.000E+00  4.55481E+01  1.504E-01  2.000E+01  2.000E+04 -4.554E-02
   1   16    8     1     8    1.0711E+05 -9.1164E+02   1.0802E+05  0.000E+00  0.000E+00  0.000E+00  4.50716E+01  1.511E-01  2.000E+01  2.000E+04 -4.558E-02
   1   16    9     1     9    1.0802E+05 -9.1074E+02   1.0893E+05  0.000E+00  0.000E+00  0.000E+00  4.45951E+01  1.519E-01  2.000E+01  2.000E+04 -4.554E-02
   1   16   10     1    10    1.0893E+05 -9.0895E+02   1.0984E+05  0.000E+00  0.000E+00  0.000E+00  4.41186E+01  1.527E-01  2.000E+01  2.000E+04 -4.545E-02
   1   16   11     1    11    1.0984E+05 -9.2596E+02   1.1077E+05  0.000E+00  0.000E+00  0.000E+00  4.36421E+01  1.534E-01  2.000E+01  2.000E+04 -4.630E-02
   1   16   12     1    12    1.1077E+05 -1.5446E+03   1.1231E+05  0.000E+00  0.000E+00  0.000E+00  4.31658E+01  1.544E-01  2.000E+01  2.000E+04 -7.723E-02
   1   15   13     1    13    1.1231E+05 -1.2009E+03   1.1351E+05  0.000E+00  0.000E+00  0.000E+00  4.26897E+01  1.556E-01  2.000E+01  2.000E+04 -6.005E-02
   1   14   14     1    14    1.1351E+05 -1.2242E+03   1.1474E+05  0.000E+00  0.000E+00  0.000E+00  4.22134E+01  1.566E-01  2.000E+01  2.000E+04 -6.121E-02
   1   13   15     1    15    1.1474E+05 -1.2158E+03   1.1595E+05  0.000E+00  0.000E+00  0.000E+00  4.17371E+01  1.576E-01  2.000E+01  2.000E+04 -6.079E-02
   1   12   16     1    16    1.1595E+05 -1.1154E+03   1.1707E+05  0.000E+00  0.000E+00  0.000E+00  4.12608E+01  1.585E-01  2.000E+01  2.000E+04 -5.577E-02
   1   12   17     1    17    1.1707E+05 -5.8411E+02   1.1765E+05  0.000E+00  0.000E+00  0.000E+00  4.07842E+01  1.592E-01  2.000E+01  2.000E+04 -2.921E-02
   1   12   18     1    18    1.1765E+05 -2.4739E+02   1.1790E+05  0.000E+00  0.000E+00  0.000E+00  4.03073E+01  1.596E-01  2.000E+01  2.000E+04 -1.237E-02
   1   12   19     1    19    1.1790E+05  1.1438E+03   1.1676E+05  0.000E+00  0.000E+00  0.000E+00  3.98297E+01  1.592E-01  2.000E+01  2.000E+04  5.719E-02
   1   13   20     1    20    1.1676E+05  7.6198E+02   1.1599E+05  0.000E+00  0.000E+00  0.000E+00  3.93516E+01  1.584E-01  2.000E+01  2.000E+04  3.810E-02
   1   14   21     1    21    1.1599E+05 -5.8468E+02   1.1658E+05  0.000E+00  0.000E+00  0.000E+00  3.88743E+01  1.584E-01  2.000E+01  2.000E+04 -2.923E-02
   1   14   22     1    22    1.1658E+05  5.3466E+03   1.1123E+05  0.000E+00  0.000E+00  0.000E+00  3.83950E+01  1.564E-01  2.000E+01  2.000E+04  2.673E-01
   1    9   30     2     1    5.0000E+04 -2.2709E+01   5.0023E+04  0.000E+00  0.000E+00  0.000E+00  4.02409E+01  1.159E-01  2.000E+01  2.000E+04 -1.135E-03
   1    9   29     2     2    5.0023E+04 -2.5613E+02   5.0279E+04  0.000E+00  0.000E+00  0.000E+00  3.99911E+01  1.161E-01  2.000E+01  2.000E+04 -1.281E-02
   1    9   28     2     3    5.0279E+04 -3.2829E+02   5.0607E+04  0.000E+00  0.000E+00  0.000E+00  3.97415E+01  1.165E-01  2.000E+01  2.000E+04 -1.641E-02
   1    9   27     2     4    5.0607E+04 -2.4471E+02   5.0852E+04  0.000E+00  0.000E+00  0.000E+00  3.94919E+01  1.169E-01  2.000E+01  2.000E+04 -1.224E-02
   1   10   26     2     5    5.0852E+04  1.6360E+03   4.9216E+04  0.000E+00  0.000E+00  0.000E+00  3.92409E+01  1.159E-01  2.000E+01  2.000E+04  8.180E-02
   1   11   25     2     6    4.9216E+04  2.9496E+03   4.6266E+04  0.000E+00  0.000E+00  0.000E+00  3.89877E+01  1.127E-01  2.000E+01  2.000E+04  1.475E-01
   1   12   24     2     7    4.6266E+04  2.5347E+03   4.3732E+04  0.000E+00  0.000E+00  0.000E+00  3.87338E+01  1.088E-01  2.000E+01  2.000E+04  1.267E-01
   1   13   23     2     8    4.3732E+04  3.2794E+02   4.3404E+04  0.000E+00  0.000E+00  0.000E+00  3.84817E+01  1.067E-01  2.000E+01  2.000E+04  1.640E-02
   1   14   22     2     9    4.3404E+04  2.0442E+03   4.1359E+04  0.000E+00  0.000E+00  0.000E+00  3.82299E+01  1.049E-01  2.000E+01  2.000E+04  1.022E-01
   1   14   22     3     1    1.5259E+05 -8.2995E+03   1.6089E+05  0.000E+00  0.000E+00  0.000E+00  3.77127E+01  1.572E-01  2.000E+01  2.000E+04 -4.150E-01
   1   15   23     3     2    1.6089E+05 -4.8741E+02   1.6138E+05  0.000E+00  0.000E+00  0.000E+00  3.68265E+01  1.598E-01  2.000E+01  2.000E+04 -2.437E-02
   1   15   24     3     3    1.6138E+05 -2.2469E+02   1.6160E+05  0.000E+00  0.000E+00  0.000E+00  3.59378E+01  1.600E-01  2.000E+01  2.000E+04 -1.123E-02
   1   15   25     3     4    1.6160E+05 -2.1425E+02   1.6182E+05  0.000E+00  0.000E+00  0.000E+00  3.50490E+01  1.602E-01  2.000E+01  2.000E+04 -1.071E-02
   1   15   26     3     5    1.6182E+05 -2.5769E+02   1.6208E+05  0.000E+00  0.000E+00  0.000E+00  3.41603E+01  1.603E-01  2.000E+01  2.000E+04 -1.288E-02
   1   16   27     3     6    1.6208E+05 -2.8514E+02   1.6236E+05  0.000E+00  0.000E+00  0.000E+00  3.32716E+01  1.605E-01  2.000E+01  2.000E+04 -1.426E-02
   1   17   28     3     7    1.6236E+05 -1.3567E+03   1.6372E+05  0.000E+00  0.000E+00  0.000E+00  3.23832E+01  1.609E-01  2.000E+01  2.000E+04 -6.784E-02
   1   18   29     3     8    1.6372E+05 -2.7562E+03   1.6647E+05  0.000E+00  0.000E+00  0.000E+00  3.14955E+01  1.622E-01  2.000E+01  2.000E+04 -1.378E-01
   1   18   30     3     9    1.6647E+05 -3.0426E+03   1.6952E+05  0.000E+00  0.000E+00  0.000E+00  3.06083E+01  1.639E-01  2.000E+01  2.000E+04 -1.521E-01



1
              HEAD IN LAYER   1 AT END OF TIME STEP   1 IN STRESS PERIOD    7
  ---------------------------------------------------------------------------

          1      2      3      4      5      6      7      8      9     10
         11     12     13     14     15     16     17     18     19     20
         21     22     23     24     25     26     27     28     29     30
 .........................................................................
   1  ****** ****** ****** ****** ****** ****** ****** ****** ****** ******
      ****** ****** ****** ****** ****** ****** ****** ****** ****** ******
      ****** ****** ****** ****** ****** ****** ****** ****** ****** ******
   2  ****** ****** ****** ****** ****** ****** ****** ****** ****** ******
      ****** ****** ****** ****** ****** ****** ****** ****** ****** ******
      ****** ****** ****** ****** ****** ****** ****** ****** ****** ******
   3  ****** ****** ****** ****** ****** ****** ****** ****** ****** ******
      ****** ****** ****** ****** ****** ****** ****** ****** ****** ******
      ****** ****** ****** ****** ****** ****** ****** ****** ****** ******
   4  ****** ****** ****** ****** ****** ****** ****** ****** ****** ******
      ****** ****** ****** ****** ****** ****** ****** ****** ****** ******
      ****** ****** ****** ****** ****** ****** ****** ****** ****** ******
   5  ****** ****** ****** ****** ****** ****** ****** ****** ****** ******
      ****** ****** ****** ****** ****** ****** ****** ****** ****** ******
      ****** ****** ****** ****** ****** ****** ****** ****** ****** ******
   6  ****** ****** ****** ****** ****** ****** ****** ****** ****** ******
      ****** ****** ****** ****** ****** ****** ****** ****** ****** ******
      ****** ****** ****** ****** ****** ****** ****** ****** ****** ******
   7  ****** ****** ****** ****** ****** ****** ****** ****** ****** ******
      ****** ****** ****** ****** ****** ****** ****** ****** ****** ******
      ****** ****** ****** ****** ****** ****** ****** ****** ****** ******
   8  ****** ****** ****** ****** ****** ****** ****** ****** ****** ******
      ****** ****** ****** ****** ****** ****** ****** ****** ****** ******
      ****** ****** ****** ****** ****** ****** ****** ****** ****** ******
   9  ****** ****** ****** ****** ****** ****** ****** ****** ****** ******
      ****** ****** ****** ****** ****** ****** ****** ****** ****** ******
      ****** ****** ****** ****** ****** ****** ****** ****** ****** ******
  10  ****** ****** ****** ****** ****** ****** ****** ****** ****** ******
      ****** ****** ****** ****** ****** ****** ****** ****** ****** ******
      ****** ****** ****** ****** ****** ****** ****** ****** ****** ******
  11  ****** ****** ****** ****** ****** ****** ****** ****** ****** ******
      ****** ****** ****** ****** ****** ****** ****** ****** ****** ******
      ****** ****** ****** ****** ****** ****** ****** ****** ****** ******
  12  ****** ****** ****** ****** ****** ****** ****** ****** ****** ******
      ****** ****** ****** ****** ****** ****** ****** ****** ****** ******
      ****** ****** ****** ****** ****** ****** ****** ****** ****** ******
  13  ****** ****** ****** ****** ****** ****** ****** ****** ****** ******
      ****** ****** ****** ****** ****** ****** ****** ****** ****** ******
      ****** ****** ****** ****** ****** ****** ****** ****** ****** ******
  14  ****** ****** ****** ****** ****** ****** ****** ****** ****** ******
      ****** ****** ****** ****** ****** ****** ****** ****** ****** ******
      ****** ****** ****** ****** ****** ****** ****** ****** ****** ******
  15  ****** ****** ****** ****** ****** ****** ****** ****** ****** ******
      ****** ****** ****** ****** ****** ****** ****** ****** ****** ******
      ****** ****** ****** ****** ****** ****** ****** ****** ****** ******
  16  ****** ****** ****** ****** ****** ****** ****** ****** ****** ******
      ****** ****** ****** ****** ****** ****** ****** ****** ****** ******
      ****** ****** ****** ****** ****** ****** ****** ****** ****** ******
  17  ****** ****** ****** ****** ****** ****** ****** ****** ****** ******
      ****** ****** ****** ****** ****** ****** ****** ****** ****** ******
      ****** ****** ****** ****** ****** ****** ****** ****** ****** ******
  18  ****** ****** ****** ****** ****** ****** ****** ****** ****** ******
      ****** ****** ****** ****** ****** ****** ****** ****** ****** ******
      ****** ****** ****** ****** ****** ****** ****** ****** ****** ******
  19  ****** ****** ****** ****** ****** ****** ****** ****** ****** ******
      ****** ****** ****** ****** ****** ****** ****** ****** ****** ******
      ****** ****** ****** ****** ****** ****** ****** ****** ****** ******
  20  ****** ****** ****** ****** ****** ****** ****** ****** ****** ******
      ****** ****** ****** ****** ****** ****** ****** ****** ****** ******
      ****** ****** ****** ****** ****** ****** ****** ****** ****** ******
  21  ****** ****** ****** ****** ****** ****** ****** ****** ****** ******
      ****** ****** ****** ****** ****** ****** ****** ****** ****** ******
      ****** ****** ****** ****** ****** ****** ****** ****** ****** ******
  22  ****** ****** ****** ****** ****** ****** ****** ****** ****** ******
      ****** ****** ****** ****** ****** ****** ****** ****** ****** ******
      ****** ****** ****** ****** ****** ****** ****** ****** ****** ******
  23  ****** ****** ****** ****** ****** ****** ****** ****** ****** ******
      ****** ****** ****** ****** ****** ****** ****** ****** ****** ******
      ****** ****** ****** ****** ****** ****** ****** ****** ****** ******
  24  ****** ****** ****** ****** ****** ****** ****** ****** ****** ******
      ****** ****** ****** ****** ****** ****** ****** ****** ****** ******
      ****** ****** ****** ****** ****** ****** ****** ****** ****** ******
  25  ****** ****** ****** ****** ****** ****** ****** ****** ****** ******
      ****** ****** ****** ****** ****** ****** ****** ****** ****** ******
      ****** ****** ****** ****** ****** ****** ****** ****** ****** ******

 HEAD WILL BE SAVED ON UNIT   51 AT END OF TIME STEP    1, STRESS PERIOD    7
1
  VOLUMETRIC BUDGET FOR ENTIRE MODEL AT END OF TIME STEP    1, STRESS PERIOD   7
  ------------------------------------------------------------------------------

     CUMULATIVE VOLUMES      L**3       RATES FOR THIS TIME STEP      L**3/T
     ------------------                 ------------------------

           IN:                                      IN:
           ---                                      ---
             STORAGE =    35219081.7924               STORAGE =       23576.1756
       CONSTANT HEAD =    17494842.5868         CONSTANT HEAD =       36102.3225
               WELLS =           0.0000                 WELLS =           0.0000
            RECHARGE =    15097200.0000              RECHARGE =           0.0000
      STREAM LEAKAGE =     7364074.5424        STREAM LEAKAGE =       16744.7544

            TOTAL IN =    75175198.9216              TOTAL IN =       76423.2525

          OUT:                                     OUT:
          ----                                     ----
             STORAGE =      685525.9947               STORAGE =           0.0000
       CONSTANT HEAD =           0.0000         CONSTANT HEAD =           0.0000
               WELLS =    25663744.0477                 WELLS =       40162.3538
            RECHARGE =           0.0000              RECHARGE =           0.0000
      STREAM LEAKAGE =    48825931.5154        STREAM LEAKAGE =       36260.9044

           TOTAL OUT =    75175201.5578             TOTAL OUT =       76423.2581

            IN - OUT =          -2.6362              IN - OUT =      -5.6555E-03

 PERCENT DISCREPANCY =          -0.00     PERCENT DISCREPANCY =          -0.00






         TIME SUMMARY AT END OF TIME STEP    1 IN STRESS PERIOD    7
                    SECONDS     MINUTES      HOURS       DAYS        YEARS
                    -----------------------------------------------------------
   TIME STEP LENGTH 7.86240E+06 1.31040E+05  2184.0      91.000     0.24914    
 STRESS PERIOD TIME 7.86240E+06 1.31040E+05  2184.0      91.000     0.24914    
         TOTAL TIME 5.52096E+07 9.20160E+05  15336.      639.00      1.7495    
1
1
                            STRESS PERIOD NO.    8, LENGTH =   91.00000    
                            -----------------------------------------------

                              NUMBER OF TIME STEPS =     1

                               MULTIPLIER FOR DELT =     1.500

                            INITIAL TIME STEP SIZE =   91.00000    

 WELL NO.  LAYER   ROW   COL   STRESS RATE         
 --------------------------------------------------
      1      1     10     24     -0.1046E+05
      2      1      7      8      -7751.    
      3      1      5     20     -0.1234E+05
      4      1     11     21      -9620.    

      4 WELLS

                 RECHARGE =  1.000000E-03

 REUSING STREAM SEGMENT DATA FROM LAST STRESS PERIOD
 
 SOLVING FOR HEAD 


     6 CALLS TO PCG ROUTINE FOR TIME STEP   1 IN STRESS PERIOD    8
    22 TOTAL ITERATIONS

 OUTPUT CONTROL FOR STRESS PERIOD    8   TIME STEP    1
    SAVE BUDGET
    SAVE HEAD FOR ALL LAYERS
    PRINT HEAD FOR ALL LAYERS
 UBDSV2 SAVING "STREAMFLOW OUT  " ON UNIT  50 AT TIME STEP  1, STRESS PERIOD   8



 STREAM LISTING     PERIOD      8   STEP        1

 LAYER ROW COL. STREAM  RCH.  FLOW INTO     FLOW TO   FLOW OUT OF   OVRLND.     DIRECT     STREAM       STREAM     STREAM     STREAM   STREAMBED  STREAMBED
                SEG.NO.  NO.  STRM. RCH.    AQUIFER    STRM. RCH.    RUNOFF     PRECIP       ET          HEAD       DEPTH      WIDTH   CONDCTNC.   GRADIENT

   1   13    1     1     1    1.0000E+05 -1.1549E+03   1.0115E+05  0.000E+00  0.000E+00  0.000E+00  4.84065E+01  1.452E-01  2.000E+01  2.000E+04 -5.774E-02
   1   13    2     1     2    1.0115E+05 -2.0506E+03   1.0321E+05  0.000E+00  0.000E+00  0.000E+00  4.79306E+01  1.465E-01  2.000E+01  2.000E+04 -1.025E-01
   1   14    3     1     3    1.0321E+05 -4.0473E+02   1.0361E+05  0.000E+00  0.000E+00  0.000E+00  4.74544E+01  1.476E-01  2.000E+01  2.000E+04 -2.024E-02
   1   15    4     1     4    1.0361E+05 -4.0068E+02   1.0401E+05  0.000E+00  0.000E+00  0.000E+00  4.69775E+01  1.479E-01  2.000E+01  2.000E+04 -2.003E-02
   1   16    5     1     5    1.0401E+05 -1.6448E+03   1.0566E+05  0.000E+00  0.000E+00  0.000E+00  4.65011E+01  1.488E-01  2.000E+01  2.000E+04 -8.224E-02
   1   16    6     1     6    1.0566E+05 -1.0288E+03   1.0668E+05  0.000E+00  0.000E+00  0.000E+00  4.60249E+01  1.499E-01  2.000E+01  2.000E+04 -5.144E-02
   1   16    7     1     7    1.0668E+05 -1.0097E+03   1.0769E+05  0.000E+00  0.000E+00  0.000E+00  4.55485E+01  1.508E-01  2.000E+01  2.000E+04 -5.049E-02
   1   16    8     1     8    1.0769E+05 -1.0098E+03   1.0870E+05  0.000E+00  0.000E+00  0.000E+00  4.50721E+01  1.517E-01  2.000E+01  2.000E+04 -5.049E-02
   1   16    9     1     9    1.0870E+05 -1.0106E+03   1.0971E+05  0.000E+00  0.000E+00  0.000E+00  4.45957E+01  1.525E-01  2.000E+01  2.000E+04 -5.053E-02
   1   16   10     1    10    1.0971E+05 -1.0121E+03   1.1073E+05  0.000E+00  0.000E+00  0.000E+00  4.41193E+01  1.533E-01  2.000E+01  2.000E+04 -5.061E-02
   1   16   11     1    11    1.1073E+05 -1.0333E+03   1.1176E+05  0.000E+00  0.000E+00  0.000E+00  4.36428E+01  1.542E-01  2.000E+01  2.000E+04 -5.167E-02
   1   16   12     1    12    1.1176E+05 -1.7039E+03   1.1346E+05  0.000E+00  0.000E+00  0.000E+00  4.31667E+01  1.553E-01  2.000E+01  2.000E+04 -8.519E-02
   1   15   13     1    13    1.1346E+05 -1.3596E+03   1.1482E+05  0.000E+00  0.000E+00  0.000E+00  4.26907E+01  1.566E-01  2.000E+01  2.000E+04 -6.798E-02
   1   14   14     1    14    1.1482E+05 -1.3704E+03   1.1619E+05  0.000E+00  0.000E+00  0.000E+00  4.22145E+01  1.577E-01  2.000E+01  2.000E+04 -6.852E-02
   1   13   15     1    15    1.1619E+05 -1.3444E+03   1.1754E+05  0.000E+00  0.000E+00  0.000E+00  4.17384E+01  1.588E-01  2.000E+01  2.000E+04 -6.722E-02
   1   12   16     1    16    1.1754E+05 -1.1974E+03   1.1874E+05  0.000E+00  0.000E+00  0.000E+00  4.12621E+01  1.599E-01  2.000E+01  2.000E+04 -5.987E-02
   1   12   17     1    17    1.1874E+05 -6.8087E+02   1.1942E+05  0.000E+00  0.000E+00  0.000E+00  4.07856E+01  1.606E-01  2.000E+01  2.000E+04 -3.404E-02
   1   12   18     1    18    1.1942E+05 -3.5330E+02   1.1977E+05  0.000E+00  0.000E+00  0.000E+00  4.03088E+01  1.610E-01  2.000E+01  2.000E+04 -1.766E-02
   1   12   19     1    19    1.1977E+05  1.0098E+03   1.1876E+05  0.000E+00  0.000E+00  0.000E+00  3.98312E+01  1.608E-01  2.000E+01  2.000E+04  5.049E-02
   1   13   20     1    20    1.1876E+05  5.8908E+02   1.1817E+05  0.000E+00  0.000E+00  0.000E+00  3.93533E+01  1.601E-01  2.000E+01  2.000E+04  2.945E-02
   1   14   21     1    21    1.1817E+05 -7.4370E+02   1.1891E+05  0.000E+00  0.000E+00  0.000E+00  3.88761E+01  1.602E-01  2.000E+01  2.000E+04 -3.719E-02
   1   14   22     1    22    1.1891E+05  5.2970E+03   1.1362E+05  0.000E+00  0.000E+00  0.000E+00  3.83970E+01  1.583E-01  2.000E+01  2.000E+04  2.648E-01
   1    9   30     2     1    5.0000E+04 -1.8177E+02   5.0182E+04  0.000E+00  0.000E+00  0.000E+00  4.02410E+01  1.160E-01  2.000E+01  2.000E+04 -9.089E-03
   1    9   29     2     2    5.0182E+04 -4.1210E+02   5.0594E+04  0.000E+00  0.000E+00  0.000E+00  3.99914E+01  1.164E-01  2.000E+01  2.000E+04 -2.061E-02
   1    9   28     2     3    5.0594E+04 -4.7788E+02   5.1072E+04  0.000E+00  0.000E+00  0.000E+00  3.97420E+01  1.170E-01  2.000E+01  2.000E+04 -2.389E-02
   1    9   27     2     4    5.1072E+04 -4.1190E+02   5.1484E+04  0.000E+00  0.000E+00  0.000E+00  3.94926E+01  1.176E-01  2.000E+01  2.000E+04 -2.060E-02
   1   10   26     2     5    5.1484E+04  1.4398E+03   5.0044E+04  0.000E+00  0.000E+00  0.000E+00  3.92419E+01  1.169E-01  2.000E+01  2.000E+04  7.199E-02
   1   11   25     2     6    5.0044E+04  2.7543E+03   4.7290E+04  0.000E+00  0.000E+00  0.000E+00  3.89890E+01  1.140E-01  2.000E+01  2.000E+04  1.377E-01
   1   12   24     2     7    4.7290E+04  2.3581E+03   4.4931E+04  0.000E+00  0.000E+00  0.000E+00  3.87354E+01  1.104E-01  2.000E+01  2.000E+04  1.179E-01
   1   13   23     2     8    4.4931E+04  2.5499E+02   4.4677E+04  0.000E+00  0.000E+00  0.000E+00  3.84835E+01  1.085E-01  2.000E+01  2.000E+04  1.275E-02
   1   14   22     2     9    4.4677E+04  1.9942E+03   4.2682E+04  0.000E+00  0.000E+00  0.000E+00  3.82318E+01  1.068E-01  2.000E+01  2.000E+04  9.971E-02
   1   14   22     3     1    1.5630E+05 -8.3431E+03   1.6464E+05  0.000E+00  0.000E+00  0.000E+00  3.77150E+01  1.594E-01  2.000E+01  2.000E+04 -4.172E-01
   1   15   23     3     2    1.6464E+05 -5.5227E+02   1.6520E+05  0.000E+00  0.000E+00  0.000E+00  3.68287E+01  1.621E-01  2.000E+01  2.000E+04 -2.761E-02
   1   15   24     3     3    1.6520E+05 -2.8558E+02   1.6548E+05  0.000E+00  0.000E+00  0.000E+00  3.59401E+01  1.623E-01  2.000E+01  2.000E+04 -1.428E-02
   1   15   25     3     4    1.6548E+05 -2.7681E+02   1.6576E+05  0.000E+00  0.000E+00  0.000E+00  3.50514E+01  1.625E-01  2.000E+01  2.000E+04 -1.384E-02
   1   15   26     3     5    1.6576E+05 -3.3255E+02   1.6609E+05  0.000E+00  0.000E+00  0.000E+00  3.41626E+01  1.626E-01  2.000E+01  2.000E+04 -1.663E-02
   1   16   27     3     6    1.6609E+05 -3.6737E+02   1.6646E+05  0.000E+00  0.000E+00  0.000E+00  3.32740E+01  1.629E-01  2.000E+01  2.000E+04 -1.837E-02
   1   17   28     3     7    1.6646E+05 -1.5619E+03   1.6802E+05  0.000E+00  0.000E+00  0.000E+00  3.23856E+01  1.634E-01  2.000E+01  2.000E+04 -7.809E-02
   1   18   29     3     8    1.6802E+05 -2.9247E+03   1.7094E+05  0.000E+00  0.000E+00  0.000E+00  3.14981E+01  1.647E-01  2.000E+01  2.000E+04 -1.462E-01
   1   18   30     3     9    1.7094E+05 -3.1911E+03   1.7414E+05  0.000E+00  0.000E+00  0.000E+00  3.06110E+01  1.665E-01  2.000E+01  2.000E+04 -1.596E-01



1
              HEAD IN LAYER   1 AT END OF TIME STEP   1 IN STRESS PERIOD    8
  ---------------------------------------------------------------------------

          1      2      3      4      5      6      7      8      9     10
         11     12     13     14     15     16     17     18     19     20
         21     22     23     24     25     26     27     28     29     30
 .........................................................................
   1  ****** ****** ****** ****** ****** ****** ****** ****** ****** ******
      ****** ****** ****** ****** ****** ****** ****** ****** ****** ******
      ****** ****** ****** ****** ****** ****** ****** ****** ****** ******
   2  ****** ****** ****** ****** ****** ****** ****** ****** ****** ******
      ****** ****** ****** ****** ****** ****** ****** ****** ****** ******
      ****** ****** ****** ****** ****** ****** ****** ****** ****** ******
   3  ****** ****** ****** ****** ****** ****** ****** ****** ****** ******
      ****** ****** ****** ****** ****** ****** ****** ****** ****** ******
      ****** ****** ****** ****** ****** ****** ****** ****** ****** ******
   4  ****** ****** ****** ****** ****** ****** ****** ****** ****** ******
      ****** ****** ****** ****** ****** ****** ****** ****** ****** ******
      ****** ****** ****** ****** ****** ****** ****** ****** ****** ******
   5  ****** ****** ****** ****** ****** ****** ****** ****** ****** ******
      ****** ****** ****** ****** ****** ****** ****** ****** ****** ******
      ****** ****** ****** ****** ****** ****** ****** ****** ****** ******
   6  ****** ****** ****** ****** ****** ****** ****** ****** ****** ******
      ****** ****** ****** ****** ****** ****** ****** ****** ****** ******
      ****** ****** ****** ****** ****** ****** ****** ****** ****** ******
   7  ****** ****** ****** ****** ****** ****** ****** ****** ****** ******
      ****** ****** ****** ****** ****** ****** ****** ****** ****** ******
      ****** ****** ****** ****** ****** ****** ****** ****** ****** ******
   8  ****** ****** ****** ****** ****** ****** ****** ****** ****** ******
      ****** ****** ****** ****** ****** ****** ****** ****** ****** ******
      ****** ****** ****** ****** ****** ****** ****** ****** ****** ******
   9  ****** ****** ****** ****** ****** ****** ****** ****** ****** ******
      ****** ****** ****** ****** ****** ****** ****** ****** ****** ******
      ****** ****** ****** ****** ****** ****** ****** ****** ****** ******
  10  ****** ****** ****** ****** ****** ****** ****** ****** ****** ******
      ****** ****** ****** ****** ****** ****** ****** ****** ****** ******
      ****** ****** ****** ****** ****** ****** ****** ****** ****** ******
  11  ****** ****** ****** ****** ****** ****** ****** ****** ****** ******
      ****** ****** ****** ****** ****** ****** ****** ****** ****** ******
      ****** ****** ****** ****** ****** ****** ****** ****** ****** ******
  12  ****** ****** ****** ****** ****** ****** ****** ****** ****** ******
      ****** ****** ****** ****** ****** ****** ****** ****** ****** ******
      ****** ****** ****** ****** ****** ****** ****** ****** ****** ******
  13  ****** ****** ****** ****** ****** ****** ****** ****** ****** ******
      ****** ****** ****** ****** ****** ****** ****** ****** ****** ******
      ****** ****** ****** ****** ****** ****** ****** ****** ****** ******
  14  ****** ****** ****** ****** ****** ****** ****** ****** ****** ******
      ****** ****** ****** ****** ****** ****** ****** ****** ****** ******
      ****** ****** ****** ****** ****** ****** ****** ****** ****** ******
  15  ****** ****** ****** ****** ****** ****** ****** ****** ****** ******
      ****** ****** ****** ****** ****** ****** ****** ****** ****** ******
      ****** ****** ****** ****** ****** ****** ****** ****** ****** ******
  16  ****** ****** ****** ****** ****** ****** ****** ****** ****** ******
      ****** ****** ****** ****** ****** ****** ****** ****** ****** ******
      ****** ****** ****** ****** ****** ****** ****** ****** ****** ******
  17  ****** ****** ****** ****** ****** ****** ****** ****** ****** ******
      ****** ****** ****** ****** ****** ****** ****** ****** ****** ******
      ****** ****** ****** ****** ****** ****** ****** ****** ****** ******
  18  ****** ****** ****** ****** ****** ****** ****** ****** ****** ******
      ****** ****** ****** ****** ****** ****** ****** ****** ****** ******
      ****** ****** ****** ****** ****** ****** ****** ****** ****** ******
  19  ****** ****** ****** ****** ****** ****** ****** ****** ****** ******
      ****** ****** ****** ****** ****** ****** ****** ****** ****** ******
      ****** ****** ****** ****** ****** ****** ****** ****** ****** ******
  20  ****** ****** ****** ****** ****** ****** ****** ****** ****** ******
      ****** ****** ****** ****** ****** ****** ****** ****** ****** ******
      ****** ****** ****** ****** ****** ****** ****** ****** ****** ******
  21  ****** ****** ****** ****** ****** ****** ****** ****** ****** ******
      ****** ****** ****** ****** ****** ****** ****** ****** ****** ******
      ****** ****** ****** ****** ****** ****** ****** ****** ****** ******
  22  ****** ****** ****** ****** ****** ****** ****** ****** ****** ******
      ****** ****** ****** ****** ****** ****** ****** ****** ****** ******
      ****** ****** ****** ****** ****** ****** ****** ****** ****** ******
  23  ****** ****** ****** ****** ****** ****** ****** ****** ****** ******
      ****** ****** ****** ****** ****** ****** ****** ****** ****** ******
      ****** ****** ****** ****** ****** ****** ****** ****** ****** ******
  24  ****** ****** ****** ****** ****** ****** ****** ****** ****** ******
      ****** ****** ****** ****** ****** ****** ****** ****** ****** ******
      ****** ****** ****** ****** ****** ****** ****** ****** ****** ******
  25  ****** ****** ****** ****** ****** ****** ****** ****** ****** ******
      ****** ****** ****** ****** ****** ****** ****** ****** ****** ******
      ****** ****** ****** ****** ****** ****** ****** ****** ****** ******

 HEAD WILL BE SAVED ON UNIT   51 AT END OF TIME STEP    1, STRESS PERIOD    8
1
  VOLUMETRIC BUDGET FOR ENTIRE MODEL AT END OF TIME STEP    1, STRESS PERIOD   8
  ------------------------------------------------------------------------------

     CUMULATIVE VOLUMES      L**3       RATES FOR THIS TIME STEP      L**3/T
     ------------------                 ------------------------

           IN:                                      IN:
           ---                                      ---
             STORAGE =    35428982.9317               STORAGE =        2306.6059
       CONSTANT HEAD =    20762273.5157         CONSTANT HEAD =       35905.8344
               WELLS =           0.0000                 WELLS =           0.0000
            RECHARGE =    17608800.0000              RECHARGE =       27600.0000
      STREAM LEAKAGE =     8792521.8118        STREAM LEAKAGE =       15697.2227

            TOTAL IN =    82592578.2592              TOTAL IN =       81509.6631

          OUT:                                     OUT:
          ----                                     ----
             STORAGE =      823361.9906               STORAGE =        1514.6813
       CONSTANT HEAD =           0.0000         CONSTANT HEAD =           0.0000
               WELLS =    29318518.2392                 WELLS =       40162.3538
            RECHARGE =           0.0000              RECHARGE =           0.0000
      STREAM LEAKAGE =    52450700.0078        STREAM LEAKAGE =       39832.6208

           TOTAL OUT =    82592580.2376             TOTAL OUT =       81509.6558

            IN - OUT =          -1.9784              IN - OUT =       7.2285E-03

 PERCENT DISCREPANCY =          -0.00     PERCENT DISCREPANCY =           0.00






         TIME SUMMARY AT END OF TIME STEP    1 IN STRESS PERIOD    8
                    SECONDS     MINUTES      HOURS       DAYS        YEARS
                    -----------------------------------------------------------
   TIME STEP LENGTH 7.86240E+06 1.31040E+05  2184.0      91.000     0.24914    
 STRESS PERIOD TIME 7.86240E+06 1.31040E+05  2184.0      91.000     0.24914    
         TOTAL TIME 6.30720E+07 1.05120E+06  17520.      730.00      1.9986    
1
1
                            STRESS PERIOD NO.    9, LENGTH =   92.00000    
                            -----------------------------------------------

                              NUMBER OF TIME STEPS =     1

                               MULTIPLIER FOR DELT =     1.500

                            INITIAL TIME STEP SIZE =   92.00000    

 WELL NO.  LAYER   ROW   COL   STRESS RATE         
 --------------------------------------------------
      1      1     10     24     -0.1046E+05
      2      1      7      8      -7751.    
      3      1      5     20     -0.1234E+05
      4      1     11     21      -9620.    

      4 WELLS

                 RECHARGE =  5.000000E-04

 REUSING STREAM SEGMENT DATA FROM LAST STRESS PERIOD
 
 SOLVING FOR HEAD 


     6 CALLS TO PCG ROUTINE FOR TIME STEP   1 IN STRESS PERIOD    9
    23 TOTAL ITERATIONS

 OUTPUT CONTROL FOR STRESS PERIOD    9   TIME STEP    1
    SAVE BUDGET
    SAVE HEAD FOR ALL LAYERS
    PRINT HEAD FOR ALL LAYERS
 UBDSV2 SAVING "STREAMFLOW OUT  " ON UNIT  50 AT TIME STEP  1, STRESS PERIOD   9



 STREAM LISTING     PERIOD      9   STEP        1

 LAYER ROW COL. STREAM  RCH.  FLOW INTO     FLOW TO   FLOW OUT OF   OVRLND.     DIRECT     STREAM       STREAM     STREAM     STREAM   STREAMBED  STREAMBED
                SEG.NO.  NO.  STRM. RCH.    AQUIFER    STRM. RCH.    RUNOFF     PRECIP       ET          HEAD       DEPTH      WIDTH   CONDCTNC.   GRADIENT

   1   13    1     1     1    1.0000E+05 -9.1909E+02   1.0092E+05  0.000E+00  0.000E+00  0.000E+00  4.84064E+01  1.451E-01  2.000E+01  2.000E+04 -4.595E-02
   1   13    2     1     2    1.0092E+05 -1.7827E+03   1.0270E+05  0.000E+00  0.000E+00  0.000E+00  4.79303E+01  1.462E-01  2.000E+01  2.000E+04 -8.913E-02
   1   14    3     1     3    1.0270E+05 -3.3024E+02   1.0303E+05  0.000E+00  0.000E+00  0.000E+00  4.74539E+01  1.471E-01  2.000E+01  2.000E+04 -1.651E-02
   1   15    4     1     4    1.0303E+05 -3.2598E+02   1.0336E+05  0.000E+00  0.000E+00  0.000E+00  4.69770E+01  1.474E-01  2.000E+01  2.000E+04 -1.630E-02
   1   16    5     1     5    1.0336E+05 -1.4512E+03   1.0481E+05  0.000E+00  0.000E+00  0.000E+00  4.65004E+01  1.482E-01  2.000E+01  2.000E+04 -7.256E-02
   1   16    6     1     6    1.0481E+05 -9.0661E+02   1.0572E+05  0.000E+00  0.000E+00  0.000E+00  4.60242E+01  1.492E-01  2.000E+01  2.000E+04 -4.533E-02
   1   16    7     1     7    1.0572E+05 -8.9102E+02   1.0661E+05  0.000E+00  0.000E+00  0.000E+00  4.55477E+01  1.499E-01  2.000E+01  2.000E+04 -4.455E-02
   1   16    8     1     8    1.0661E+05 -8.9270E+02   1.0750E+05  0.000E+00  0.000E+00  0.000E+00  4.50711E+01  1.507E-01  2.000E+01  2.000E+04 -4.464E-02
   1   16    9     1     9    1.0750E+05 -8.9545E+02   1.0839E+05  0.000E+00  0.000E+00  0.000E+00  4.45946E+01  1.514E-01  2.000E+01  2.000E+04 -4.477E-02
   1   16   10     1    10    1.0839E+05 -8.9970E+02   1.0929E+05  0.000E+00  0.000E+00  0.000E+00  4.41181E+01  1.522E-01  2.000E+01  2.000E+04 -4.498E-02
   1   16   11     1    11    1.0929E+05 -9.2275E+02   1.1022E+05  0.000E+00  0.000E+00  0.000E+00  4.36416E+01  1.530E-01  2.000E+01  2.000E+04 -4.614E-02
   1   16   12     1    12    1.1022E+05 -1.5138E+03   1.1173E+05  0.000E+00  0.000E+00  0.000E+00  4.31653E+01  1.540E-01  2.000E+01  2.000E+04 -7.569E-02
   1   15   13     1    13    1.1173E+05 -1.1430E+03   1.1287E+05  0.000E+00  0.000E+00  0.000E+00  4.26892E+01  1.551E-01  2.000E+01  2.000E+04 -5.715E-02
   1   14   14     1    14    1.1287E+05 -1.1367E+03   1.1401E+05  0.000E+00  0.000E+00  0.000E+00  4.22128E+01  1.560E-01  2.000E+01  2.000E+04 -5.684E-02
   1   13   15     1    15    1.1401E+05 -1.1018E+03   1.1511E+05  0.000E+00  0.000E+00  0.000E+00  4.17365E+01  1.569E-01  2.000E+01  2.000E+04 -5.509E-02
   1   12   16     1    16    1.1511E+05 -9.4107E+02   1.1605E+05  0.000E+00  0.000E+00  0.000E+00  4.12601E+01  1.578E-01  2.000E+01  2.000E+04 -4.705E-02
   1   12   17     1    17    1.1605E+05 -5.0866E+02   1.1656E+05  0.000E+00  0.000E+00  0.000E+00  4.07834E+01  1.584E-01  2.000E+01  2.000E+04 -2.543E-02
   1   12   18     1    18    1.1656E+05 -1.9023E+02   1.1675E+05  0.000E+00  0.000E+00  0.000E+00  4.03064E+01  1.587E-01  2.000E+01  2.000E+04 -9.511E-03
   1   12   19     1    19    1.1675E+05  1.2062E+03   1.1555E+05  0.000E+00  0.000E+00  0.000E+00  3.98287E+01  1.582E-01  2.000E+01  2.000E+04  6.031E-02
   1   13   20     1    20    1.1555E+05  7.6585E+02   1.1478E+05  0.000E+00  0.000E+00  0.000E+00  3.93506E+01  1.574E-01  2.000E+01  2.000E+04  3.829E-02
   1   14   21     1    21    1.1478E+05 -5.7241E+02   1.1535E+05  0.000E+00  0.000E+00  0.000E+00  3.88733E+01  1.574E-01  2.000E+01  2.000E+04 -2.862E-02
   1   14   22     1    22    1.1535E+05  5.3358E+03   1.1002E+05  0.000E+00  0.000E+00  0.000E+00  3.83940E+01  1.554E-01  2.000E+01  2.000E+04  2.668E-01
   1    9   30     2     1    5.0000E+04 -5.6054E+01   5.0056E+04  0.000E+00  0.000E+00  0.000E+00  4.02409E+01  1.159E-01  2.000E+01  2.000E+04 -2.803E-03
   1    9   29     2     2    5.0056E+04 -2.8597E+02   5.0342E+04  0.000E+00  0.000E+00  0.000E+00  3.99911E+01  1.161E-01  2.000E+01  2.000E+04 -1.430E-02
   1    9   28     2     3    5.0342E+04 -3.4935E+02   5.0691E+04  0.000E+00  0.000E+00  0.000E+00  3.97416E+01  1.166E-01  2.000E+01  2.000E+04 -1.747E-02
   1    9   27     2     4    5.0691E+04 -2.2894E+02   5.0920E+04  0.000E+00  0.000E+00  0.000E+00  3.94920E+01  1.170E-01  2.000E+01  2.000E+04 -1.145E-02
   1   10   26     2     5    5.0920E+04  1.6188E+03   4.9302E+04  0.000E+00  0.000E+00  0.000E+00  3.92410E+01  1.160E-01  2.000E+01  2.000E+04  8.094E-02
   1   11   25     2     6    4.9302E+04  2.9255E+03   4.6376E+04  0.000E+00  0.000E+00  0.000E+00  3.89878E+01  1.128E-01  2.000E+01  2.000E+04  1.463E-01
   1   12   24     2     7    4.6376E+04  2.5158E+03   4.3860E+04  0.000E+00  0.000E+00  0.000E+00  3.87339E+01  1.089E-01  2.000E+01  2.000E+04  1.258E-01
   1   13   23     2     8    4.3860E+04  3.0285E+02   4.3557E+04  0.000E+00  0.000E+00  0.000E+00  3.84819E+01  1.069E-01  2.000E+01  2.000E+04  1.514E-02
   1   14   22     2     9    4.3557E+04  2.0580E+03   4.1499E+04  0.000E+00  0.000E+00  0.000E+00  3.82301E+01  1.051E-01  2.000E+01  2.000E+04  1.029E-01
   1   14   22     3     1    1.5152E+05 -8.3030E+03   1.5982E+05  0.000E+00  0.000E+00  0.000E+00  3.77121E+01  1.565E-01  2.000E+01  2.000E+04 -4.151E-01
   1   15   23     3     2    1.5982E+05 -5.0015E+02   1.6032E+05  0.000E+00  0.000E+00  0.000E+00  3.68258E+01  1.592E-01  2.000E+01  2.000E+04 -2.501E-02
   1   15   24     3     3    1.6032E+05 -2.4284E+02   1.6056E+05  0.000E+00  0.000E+00  0.000E+00  3.59372E+01  1.594E-01  2.000E+01  2.000E+04 -1.214E-02
   1   15   25     3     4    1.6056E+05 -2.3379E+02   1.6080E+05  0.000E+00  0.000E+00  0.000E+00  3.50484E+01  1.595E-01  2.000E+01  2.000E+04 -1.169E-02
   1   15   26     3     5    1.6080E+05 -2.8513E+02   1.6108E+05  0.000E+00  0.000E+00  0.000E+00  3.41597E+01  1.597E-01  2.000E+01  2.000E+04 -1.426E-02
   1   16   27     3     6    1.6108E+05 -3.1167E+02   1.6139E+05  0.000E+00  0.000E+00  0.000E+00  3.32710E+01  1.599E-01  2.000E+01  2.000E+04 -1.558E-02
   1   17   28     3     7    1.6139E+05 -1.4094E+03   1.6280E+05  0.000E+00  0.000E+00  0.000E+00  3.23826E+01  1.604E-01  2.000E+01  2.000E+04 -7.047E-02
   1   18   29     3     8    1.6280E+05 -2.7510E+03   1.6555E+05  0.000E+00  0.000E+00  0.000E+00  3.14950E+01  1.616E-01  2.000E+01  2.000E+04 -1.375E-01
   1   18   30     3     9    1.6555E+05 -3.0603E+03   1.6861E+05  0.000E+00  0.000E+00  0.000E+00  3.06078E+01  1.633E-01  2.000E+01  2.000E+04 -1.530E-01



1
              HEAD IN LAYER   1 AT END OF TIME STEP   1 IN STRESS PERIOD    9
  ---------------------------------------------------------------------------

          1      2      3      4      5      6      7      8      9     10
         11     12     13     14     15     16     17     18     19     20
         21     22     23     24     25     26     27     28     29     30
 .........................................................................
   1  ****** ****** ****** ****** ****** ****** ****** ****** ****** ******
      ****** ****** ****** ****** ****** ****** ****** ****** ****** ******
      ****** ****** ****** ****** ****** ****** ****** ****** ****** ******
   2  ****** ****** ****** ****** ****** ****** ****** ****** ****** ******
      ****** ****** ****** ****** ****** ****** ****** ****** ****** ******
      ****** ****** ****** ****** ****** ****** ****** ****** ****** ******
   3  ****** ****** ****** ****** ****** ****** ****** ****** ****** ******
      ****** ****** ****** ****** ****** ****** ****** ****** ****** ******
      ****** ****** ****** ****** ****** ****** ****** ****** ****** ******
   4  ****** ****** ****** ****** ****** ****** ****** ****** ****** ******
      ****** ****** ****** ****** ****** ****** ****** ****** ****** ******
      ****** ****** ****** ****** ****** ****** ****** ****** ****** ******
   5  ****** ****** ****** ****** ****** ****** ****** ****** ****** ******
      ****** ****** ****** ****** ****** ****** ****** ****** ****** ******
      ****** ****** ****** ****** ****** ****** ****** ****** ****** ******
   6  ****** ****** ****** ****** ****** ****** ****** ****** ****** ******
      ****** ****** ****** ****** ****** ****** ****** ****** ****** ******
      ****** ****** ****** ****** ****** ****** ****** ****** ****** ******
   7  ****** ****** ****** ****** ****** ****** ****** ****** ****** ******
      ****** ****** ****** ****** ****** ****** ****** ****** ****** ******
      ****** ****** ****** ****** ****** ****** ****** ****** ****** ******
   8  ****** ****** ****** ****** ****** ****** ****** ****** ****** ******
      ****** ****** ****** ****** ****** ****** ****** ****** ****** ******
      ****** ****** ****** ****** ****** ****** ****** ****** ****** ******
   9  ****** ****** ****** ****** ****** ****** ****** ****** ****** ******
      ****** ****** ****** ****** ****** ****** ****** ****** ****** ******
      ****** ****** ****** ****** ****** ****** ****** ****** ****** ******
  10  ****** ****** ****** ****** ****** ****** ****** ****** ****** ******
      ****** ****** ****** ****** ****** ****** ****** ****** ****** ******
      ****** ****** ****** ****** ****** ****** ****** ****** ****** ******
  11  ****** ****** ****** ****** ****** ****** ****** ****** ****** ******
      ****** ****** ****** ****** ****** ****** ****** ****** ****** ******
      ****** ****** ****** ****** ****** ****** ****** ****** ****** ******
  12  ****** ****** ****** ****** ****** ****** ****** ****** ****** ******
      ****** ****** ****** ****** ****** ****** ****** ****** ****** ******
      ****** ****** ****** ****** ****** ****** ****** ****** ****** ******
  13  ****** ****** ****** ****** ****** ****** ****** ****** ****** ******
      ****** ****** ****** ****** ****** ****** ****** ****** ****** ******
      ****** ****** ****** ****** ****** ****** ****** ****** ****** ******
  14  ****** ****** ****** ****** ****** ****** ****** ****** ****** ******
      ****** ****** ****** ****** ****** ****** ****** ****** ****** ******
      ****** ****** ****** ****** ****** ****** ****** ****** ****** ******
  15  ****** ****** ****** ****** ****** ****** ****** ****** ****** ******
      ****** ****** ****** ****** ****** ****** ****** ****** ****** ******
      ****** ****** ****** ****** ****** ****** ****** ****** ****** ******
  16  ****** ****** ****** ****** ****** ****** ****** ****** ****** ******
      ****** ****** ****** ****** ****** ****** ****** ****** ****** ******
      ****** ****** ****** ****** ****** ****** ****** ****** ****** ******
  17  ****** ****** ****** ****** ****** ****** ****** ****** ****** ******
      ****** ****** ****** ****** ****** ****** ****** ****** ****** ******
      ****** ****** ****** ****** ****** ****** ****** ****** ****** ******
  18  ****** ****** ****** ****** ****** ****** ****** ****** ****** ******
      ****** ****** ****** ****** ****** ****** ****** ****** ****** ******
      ****** ****** ****** ****** ****** ****** ****** ****** ****** ******
  19  ****** ****** ****** ****** ****** ****** ****** ****** ****** ******
      ****** ****** ****** ****** ****** ****** ****** ****** ****** ******
      ****** ****** ****** ****** ****** ****** ****** ****** ****** ******
  20  ****** ****** ****** ****** ****** ****** ****** ****** ****** ******
      ****** ****** ****** ****** ****** ****** ****** ****** ****** ******
      ****** ****** ****** ****** ****** ****** ****** ****** ****** ******
  21  ****** ****** ****** ****** ****** ****** ****** ****** ****** ******
      ****** ****** ****** ****** ****** ****** ****** ****** ****** ******
      ****** ****** ****** ****** ****** ****** ****** ****** ****** ******
  22  ****** ****** ****** ****** ****** ****** ****** ****** ****** ******
      ****** ****** ****** ****** ****** ****** ****** ****** ****** ******
      ****** ****** ****** ****** ****** ****** ****** ****** ****** ******
  23  ****** ****** ****** ****** ****** ****** ****** ****** ****** ******
      ****** ****** ****** ****** ****** ****** ****** ****** ****** ******
      ****** ****** ****** ****** ****** ****** ****** ****** ****** ******
  24  ****** ****** ****** ****** ****** ****** ****** ****** ****** ******
      ****** ****** ****** ****** ****** ****** ****** ****** ****** ******
      ****** ****** ****** ****** ****** ****** ****** ****** ****** ******
  25  ****** ****** ****** ****** ****** ****** ****** ****** ****** ******
      ****** ****** ****** ****** ****** ****** ****** ****** ****** ******
      ****** ****** ****** ****** ****** ****** ****** ****** ****** ******

 HEAD WILL BE SAVED ON UNIT   51 AT END OF TIME STEP    1, STRESS PERIOD    9
1
  VOLUMETRIC BUDGET FOR ENTIRE MODEL AT END OF TIME STEP    1, STRESS PERIOD   9
  ------------------------------------------------------------------------------

     CUMULATIVE VOLUMES      L**3       RATES FOR THIS TIME STEP      L**3/T
     ------------------                 ------------------------

           IN:                                      IN:
           ---                                      ---
             STORAGE =    36149654.9387               STORAGE =        7833.3914
       CONSTANT HEAD =    24179406.9452         CONSTANT HEAD =       37142.7547
               WELLS =           0.0000                 WELLS =           0.0000
            RECHARGE =    18878400.0000              RECHARGE =       13800.0000
      STREAM LEAKAGE =    10331571.0157        STREAM LEAKAGE =       16728.7957

            TOTAL IN =    89539032.8995              TOTAL IN =       75504.9417

          OUT:                                     OUT:
          ----                                     ----
             STORAGE =      823361.9906               STORAGE =           0.0000
       CONSTANT HEAD =           0.0000         CONSTANT HEAD =           0.0000
               WELLS =    33013454.7844                 WELLS =       40162.3538
            RECHARGE =           0.0000              RECHARGE =           0.0000
      STREAM LEAKAGE =    55702218.1807        STREAM LEAKAGE =       35342.5888

           TOTAL OUT =    89539034.9557             TOTAL OUT =       75504.9426

            IN - OUT =          -2.0561              IN - OUT =      -8.4488E-04

 PERCENT DISCREPANCY =          -0.00     PERCENT DISCREPANCY =          -0.00






         TIME SUMMARY AT END OF TIME STEP    1 IN STRESS PERIOD    9
                    SECONDS     MINUTES      HOURS       DAYS        YEARS
                    -----------------------------------------------------------
   TIME STEP LENGTH 7.94880E+06 1.32480E+05  2208.0      92.000     0.25188    
 STRESS PERIOD TIME 7.94880E+06 1.32480E+05  2208.0      92.000     0.25188    
         TOTAL TIME 7.10208E+07 1.18368E+06  19728.      822.00      2.2505    
1
1
                            STRESS PERIOD NO.   10, LENGTH =   91.00000    
                            -----------------------------------------------

                              NUMBER OF TIME STEPS =     1

                               MULTIPLIER FOR DELT =     1.500

                            INITIAL TIME STEP SIZE =   91.00000    

 WELL NO.  LAYER   ROW   COL   STRESS RATE         
 --------------------------------------------------
      1      1     10     24     -0.1046E+05
      2      1      7      8      -7751.    
      3      1      5     20     -0.1234E+05
      4      1     11     21      -9620.    

      4 WELLS

                 RECHARGE =  2.000000E-03

 REUSING STREAM SEGMENT DATA FROM LAST STRESS PERIOD
 
 SOLVING FOR HEAD 


     7 CALLS TO PCG ROUTINE FOR TIME STEP   1 IN STRESS PERIOD   10
    26 TOTAL ITERATIONS

 OUTPUT CONTROL FOR STRESS PERIOD   10   TIME STEP    1
    SAVE BUDGET
    SAVE HEAD FOR ALL LAYERS
    PRINT HEAD FOR ALL LAYERS
 UBDSV2 SAVING "STREAMFLOW OUT  " ON UNIT  50 AT TIME STEP  1, STRESS PERIOD  10



 STREAM LISTING     PERIOD     10   STEP        1

 LAYER ROW COL. STREAM  RCH.  FLOW INTO     FLOW TO   FLOW OUT OF   OVRLND.     DIRECT     STREAM       STREAM     STREAM     STREAM   STREAMBED  STREAMBED
                SEG.NO.  NO.  STRM. RCH.    AQUIFER    STRM. RCH.    RUNOFF     PRECIP       ET          HEAD       DEPTH      WIDTH   CONDCTNC.   GRADIENT

   1   13    1     1     1    1.0000E+05 -1.3561E+03   1.0136E+05  0.000E+00  0.000E+00  0.000E+00  4.84066E+01  1.452E-01  2.000E+01  2.000E+04 -6.781E-02
   1   13    2     1     2    1.0136E+05 -2.2659E+03   1.0362E+05  0.000E+00  0.000E+00  0.000E+00  4.79309E+01  1.468E-01  2.000E+01  2.000E+04 -1.133E-01
   1   14    3     1     3    1.0362E+05 -5.1402E+02   1.0414E+05  0.000E+00  0.000E+00  0.000E+00  4.74548E+01  1.480E-01  2.000E+01  2.000E+04 -2.570E-02
   1   15    4     1     4    1.0414E+05 -5.2325E+02   1.0466E+05  0.000E+00  0.000E+00  0.000E+00  4.69780E+01  1.484E-01  2.000E+01  2.000E+04 -2.616E-02
   1   16    5     1     5    1.0466E+05 -2.0692E+03   1.0673E+05  0.000E+00  0.000E+00  0.000E+00  4.65018E+01  1.495E-01  2.000E+01  2.000E+04 -1.035E-01
   1   16    6     1     6    1.0673E+05 -1.2671E+03   1.0800E+05  0.000E+00  0.000E+00  0.000E+00  4.60260E+01  1.510E-01  2.000E+01  2.000E+04 -6.336E-02
   1   16    7     1     7    1.0800E+05 -1.2335E+03   1.0923E+05  0.000E+00  0.000E+00  0.000E+00  4.55497E+01  1.520E-01  2.000E+01  2.000E+04 -6.168E-02
   1   16    8     1     8    1.0923E+05 -1.2298E+03   1.1046E+05  0.000E+00  0.000E+00  0.000E+00  4.50735E+01  1.530E-01  2.000E+01  2.000E+04 -6.149E-02
   1   16    9     1     9    1.1046E+05 -1.2313E+03   1.1169E+05  0.000E+00  0.000E+00  0.000E+00  4.45972E+01  1.541E-01  2.000E+01  2.000E+04 -6.157E-02
   1   16   10     1    10    1.1169E+05 -1.2362E+03   1.1293E+05  0.000E+00  0.000E+00  0.000E+00  4.41210E+01  1.551E-01  2.000E+01  2.000E+04 -6.181E-02
   1   16   11     1    11    1.1293E+05 -1.2633E+03   1.1419E+05  0.000E+00  0.000E+00  0.000E+00  4.36448E+01  1.561E-01  2.000E+01  2.000E+04 -6.317E-02
   1   16   12     1    12    1.1419E+05 -2.0817E+03   1.1627E+05  0.000E+00  0.000E+00  0.000E+00  4.31689E+01  1.575E-01  2.000E+01  2.000E+04 -1.041E-01
   1   15   13     1    13    1.1627E+05 -1.7243E+03   1.1800E+05  0.000E+00  0.000E+00  0.000E+00  4.26931E+01  1.590E-01  2.000E+01  2.000E+04 -8.622E-02
   1   14   14     1    14    1.1800E+05 -1.7228E+03   1.1972E+05  0.000E+00  0.000E+00  0.000E+00  4.22173E+01  1.605E-01  2.000E+01  2.000E+04 -8.614E-02
   1   13   15     1    15    1.1972E+05 -1.6758E+03   1.2139E+05  0.000E+00  0.000E+00  0.000E+00  4.17414E+01  1.618E-01  2.000E+01  2.000E+04 -8.379E-02
   1   12   16     1    16    1.2139E+05 -1.4900E+03   1.2288E+05  0.000E+00  0.000E+00  0.000E+00  4.12654E+01  1.631E-01  2.000E+01  2.000E+04 -7.450E-02
   1   12   17     1    17    1.2288E+05 -9.2784E+02   1.2381E+05  0.000E+00  0.000E+00  0.000E+00  4.07891E+01  1.641E-01  2.000E+01  2.000E+04 -4.639E-02
   1   12   18     1    18    1.2381E+05 -6.0642E+02   1.2442E+05  0.000E+00  0.000E+00  0.000E+00  4.03124E+01  1.647E-01  2.000E+01  2.000E+04 -3.032E-02
   1   12   19     1    19    1.2442E+05  6.9382E+02   1.2372E+05  0.000E+00  0.000E+00  0.000E+00  3.98351E+01  1.646E-01  2.000E+01  2.000E+04  3.469E-02
   1   13   20     1    20    1.2372E+05  2.4676E+02   1.2348E+05  0.000E+00  0.000E+00  0.000E+00  3.93574E+01  1.643E-01  2.000E+01  2.000E+04  1.234E-02
   1   14   21     1    21    1.2348E+05 -1.0975E+03   1.2458E+05  0.000E+00  0.000E+00  0.000E+00  3.88805E+01  1.646E-01  2.000E+01  2.000E+04 -5.488E-02
   1   14   22     1    22    1.2458E+05  5.2053E+03   1.1937E+05  0.000E+00  0.000E+00  0.000E+00  3.84016E+01  1.630E-01  2.000E+01  2.000E+04  2.603E-01
   1    9   30     2     1    5.0000E+04 -4.6882E+02   5.0469E+04  0.000E+00  0.000E+00  0.000E+00  4.02412E+01  1.162E-01  2.000E+01  2.000E+04 -2.344E-02
   1    9   29     2     2    5.0469E+04 -6.9633E+02   5.1165E+04  0.000E+00  0.000E+00  0.000E+00  3.99920E+01  1.170E-01  2.000E+01  2.000E+04 -3.482E-02
   1    9   28     2     3    5.1165E+04 -7.5859E+02   5.1924E+04  0.000E+00  0.000E+00  0.000E+00  3.97430E+01  1.180E-01  2.000E+01  2.000E+04 -3.793E-02
   1    9   27     2     4    5.1924E+04 -7.7785E+02   5.2702E+04  0.000E+00  0.000E+00  0.000E+00  3.94941E+01  1.191E-01  2.000E+01  2.000E+04 -3.889E-02
   1   10   26     2     5    5.2702E+04  1.0692E+03   5.1632E+04  0.000E+00  0.000E+00  0.000E+00  3.92439E+01  1.189E-01  2.000E+01  2.000E+04  5.346E-02
   1   11   25     2     6    5.1632E+04  2.4003E+03   4.9232E+04  0.000E+00  0.000E+00  0.000E+00  3.89915E+01  1.165E-01  2.000E+01  2.000E+04  1.200E-01
   1   12   24     2     7    4.9232E+04  2.0409E+03   4.7191E+04  0.000E+00  0.000E+00  0.000E+00  3.87384E+01  1.134E-01  2.000E+01  2.000E+04  1.020E-01
   1   13   23     2     8    4.7191E+04  1.5472E+02   4.7036E+04  0.000E+00  0.000E+00  0.000E+00  3.84868E+01  1.118E-01  2.000E+01  2.000E+04  7.736E-03
   1   14   22     2     9    4.7036E+04  1.8803E+03   4.5156E+04  0.000E+00  0.000E+00  0.000E+00  3.82353E+01  1.103E-01  2.000E+01  2.000E+04  9.402E-02
   1   14   22     3     1    1.6453E+05 -8.4296E+03   1.7296E+05  0.000E+00  0.000E+00  0.000E+00  3.77199E+01  1.643E-01  2.000E+01  2.000E+04 -4.215E-01
   1   15   23     3     2    1.7296E+05 -6.6291E+02   1.7362E+05  0.000E+00  0.000E+00  0.000E+00  3.68336E+01  1.669E-01  2.000E+01  2.000E+04 -3.315E-02
   1   15   24     3     3    1.7362E+05 -3.8015E+02   1.7400E+05  0.000E+00  0.000E+00  0.000E+00  3.59450E+01  1.672E-01  2.000E+01  2.000E+04 -1.901E-02
   1   15   25     3     4    1.7400E+05 -3.7449E+02   1.7437E+05  0.000E+00  0.000E+00  0.000E+00  3.50563E+01  1.675E-01  2.000E+01  2.000E+04 -1.872E-02
   1   15   26     3     5    1.7437E+05 -4.4743E+02   1.7482E+05  0.000E+00  0.000E+00  0.000E+00  3.41677E+01  1.677E-01  2.000E+01  2.000E+04 -2.237E-02
   1   16   27     3     6    1.7482E+05 -4.9766E+02   1.7532E+05  0.000E+00  0.000E+00  0.000E+00  3.32791E+01  1.680E-01  2.000E+01  2.000E+04 -2.488E-02
   1   17   28     3     7    1.7532E+05 -1.9305E+03   1.7725E+05  0.000E+00  0.000E+00  0.000E+00  3.23909E+01  1.687E-01  2.000E+01  2.000E+04 -9.653E-02
   1   18   29     3     8    1.7725E+05 -3.3035E+03   1.8055E+05  0.000E+00  0.000E+00  0.000E+00  3.15035E+01  1.702E-01  2.000E+01  2.000E+04 -1.652E-01
   1   18   30     3     9    1.8055E+05 -3.4863E+03   1.8404E+05  0.000E+00  0.000E+00  0.000E+00  3.06165E+01  1.721E-01  2.000E+01  2.000E+04 -1.743E-01



1
              HEAD IN LAYER   1 AT END OF TIME STEP   1 IN STRESS PERIOD   10
  ---------------------------------------------------------------------------

          1      2      3      4      5      6      7      8      9     10
         11     12     13     14     15     16     17     18     19     20
         21     22     23     24     25     26     27     28     29     30
 .........................................................................
   1  ****** ****** ****** ****** ****** ****** ****** ****** ****** ******
      ****** ****** ****** ****** ****** ****** ****** ****** ****** ******
      ****** ****** ****** ****** ****** ****** ****** ****** ****** ******
   2  ****** ****** ****** ****** ****** ****** ****** ****** ****** ******
      ****** ****** ****** ****** ****** ****** ****** ****** ****** ******
      ****** ****** ****** ****** ****** ****** ****** ****** ****** ******
   3  ****** ****** ****** ****** ****** ****** ****** ****** ****** ******
      ****** ****** ****** ****** ****** ****** ****** ****** ****** ******
      ****** ****** ****** ****** ****** ****** ****** ****** ****** ******
   4  ****** ****** ****** ****** ****** ****** ****** ****** ****** ******
      ****** ****** ****** ****** ****** ****** ****** ****** ****** ******
      ****** ****** ****** ****** ****** ****** ****** ****** ****** ******
   5  ****** ****** ****** ****** ****** ****** ****** ****** ****** ******
      ****** ****** ****** ****** ****** ****** ****** ****** ****** ******
      ****** ****** ****** ****** ****** ****** ****** ****** ****** ******
   6  ****** ****** ****** ****** ****** ****** ****** ****** ****** ******
      ****** ****** ****** ****** ****** ****** ****** ****** ****** ******
      ****** ****** ****** ****** ****** ****** ****** ****** ****** ******
   7  ****** ****** ****** ****** ****** ****** ****** ****** ****** ******
      ****** ****** ****** ****** ****** ****** ****** ****** ****** ******
      ****** ****** ****** ****** ****** ****** ****** ****** ****** ******
   8  ****** ****** ****** ****** ****** ****** ****** ****** ****** ******
      ****** ****** ****** ****** ****** ****** ****** ****** ****** ******
      ****** ****** ****** ****** ****** ****** ****** ****** ****** ******
   9  ****** ****** ****** ****** ****** ****** ****** ****** ****** ******
      ****** ****** ****** ****** ****** ****** ****** ****** ****** ******
      ****** ****** ****** ****** ****** ****** ****** ****** ****** ******
  10  ****** ****** ****** ****** ****** ****** ****** ****** ****** ******
      ****** ****** ****** ****** ****** ****** ****** ****** ****** ******
      ****** ****** ****** ****** ****** ****** ****** ****** ****** ******
  11  ****** ****** ****** ****** ****** ****** ****** ****** ****** ******
      ****** ****** ****** ****** ****** ****** ****** ****** ****** ******
      ****** ****** ****** ****** ****** ****** ****** ****** ****** ******
  12  ****** ****** ****** ****** ****** ****** ****** ****** ****** ******
      ****** ****** ****** ****** ****** ****** ****** ****** ****** ******
      ****** ****** ****** ****** ****** ****** ****** ****** ****** ******
  13  ****** ****** ****** ****** ****** ****** ****** ****** ****** ******
      ****** ****** ****** ****** ****** ****** ****** ****** ****** ******
      ****** ****** ****** ****** ****** ****** ****** ****** ****** ******
  14  ****** ****** ****** ****** ****** ****** ****** ****** ****** ******
      ****** ****** ****** ****** ****** ****** ****** ****** ****** ******
      ****** ****** ****** ****** ****** ****** ****** ****** ****** ******
  15  ****** ****** ****** ****** ****** ****** ****** ****** ****** ******
      ****** ****** ****** ****** ****** ****** ****** ****** ****** ******
      ****** ****** ****** ****** ****** ****** ****** ****** ****** ******
  16  ****** ****** ****** ****** ****** ****** ****** ****** ****** ******
      ****** ****** ****** ****** ****** ****** ****** ****** ****** ******
      ****** ****** ****** ****** ****** ****** ****** ****** ****** ******
  17  ****** ****** ****** ****** ****** ****** ****** ****** ****** ******
      ****** ****** ****** ****** ****** ****** ****** ****** ****** ******
      ****** ****** ****** ****** ****** ****** ****** ****** ****** ******
  18  ****** ****** ****** ****** ****** ****** ****** ****** ****** ******
      ****** ****** ****** ****** ****** ****** ****** ****** ****** ******
      ****** ****** ****** ****** ****** ****** ****** ****** ****** ******
  19  ****** ****** ****** ****** ****** ****** ****** ****** ****** ******
      ****** ****** ****** ****** ****** ****** ****** ****** ****** ******
      ****** ****** ****** ****** ****** ****** ****** ****** ****** ******
  20  ****** ****** ****** ****** ****** ****** ****** ****** ****** ******
      ****** ****** ****** ****** ****** ****** ****** ****** ****** ******
      ****** ****** ****** ****** ****** ****** ****** ****** ****** ******
  21  ****** ****** ****** ****** ****** ****** ****** ****** ****** ******
      ****** ****** ****** ****** ****** ****** ****** ****** ****** ******
      ****** ****** ****** ****** ****** ****** ****** ****** ****** ******
  22  ****** ****** ****** ****** ****** ****** ****** ****** ****** ******
      ****** ****** ****** ****** ****** ****** ****** ****** ****** ******
      ****** ****** ****** ****** ****** ****** ****** ****** ****** ******
  23  ****** ****** ****** ****** ****** ****** ****** ****** ****** ******
      ****** ****** ****** ****** ****** ****** ****** ****** ****** ******
      ****** ****** ****** ****** ****** ****** ****** ****** ****** ******
  24  ****** ****** ****** ****** ****** ****** ****** ****** ****** ******
      ****** ****** ****** ****** ****** ****** ****** ****** ****** ******
      ****** ****** ****** ****** ****** ****** ****** ****** ****** ******
  25  ****** ****** ****** ****** ****** ****** ****** ****** ****** ******
      ****** ****** ****** ****** ****** ****** ****** ****** ****** ******
      ****** ****** ****** ****** ****** ****** ****** ****** ****** ******

 HEAD WILL BE SAVED ON UNIT   51 AT END OF TIME STEP    1, STRESS PERIOD   10
1
  VOLUMETRIC BUDGET FOR ENTIRE MODEL AT END OF TIME STEP    1, STRESS PERIOD  10
  ------------------------------------------------------------------------------

     CUMULATIVE VOLUMES      L**3       RATES FOR THIS TIME STEP      L**3/T
     ------------------                 ------------------------

           IN:                                      IN:
           ---                                      ---
             STORAGE =    36149654.9387               STORAGE =           0.0000
       CONSTANT HEAD =    27295182.7586         CONSTANT HEAD =       34239.2947
               WELLS =           0.0000                 WELLS =           0.0000
            RECHARGE =    23901600.0000              RECHARGE =       55200.0000
      STREAM LEAKAGE =    11577493.1336        STREAM LEAKAGE =       13691.4518

            TOTAL IN =    98923930.8309              TOTAL IN =      103130.7465

          OUT:                                     OUT:
          ----                                     ----
             STORAGE =     2210008.8360               STORAGE =       15237.8774
       CONSTANT HEAD =           0.0000         CONSTANT HEAD =           0.0000
               WELLS =    36668228.9759                 WELLS =       40162.3538
            RECHARGE =           0.0000              RECHARGE =           0.0000
      STREAM LEAKAGE =    60045694.7345        STREAM LEAKAGE =       47730.5116

           TOTAL OUT =    98923932.5464             TOTAL OUT =      103130.7428

            IN - OUT =          -1.7155              IN - OUT =       3.7427E-03

 PERCENT DISCREPANCY =          -0.00     PERCENT DISCREPANCY =           0.00






         TIME SUMMARY AT END OF TIME STEP    1 IN STRESS PERIOD   10
                    SECONDS     MINUTES      HOURS       DAYS        YEARS
                    -----------------------------------------------------------
   TIME STEP LENGTH 7.86240E+06 1.31040E+05  2184.0      91.000     0.24914    
 STRESS PERIOD TIME 7.86240E+06 1.31040E+05  2184.0      91.000     0.24914    
         TOTAL TIME 7.88832E+07 1.31472E+06  21912.      913.00      2.4997    
1
1
                            STRESS PERIOD NO.   11, LENGTH =   91.00000    
                            -----------------------------------------------

                              NUMBER OF TIME STEPS =     1

                               MULTIPLIER FOR DELT =     1.500

                            INITIAL TIME STEP SIZE =   91.00000    

 WELL NO.  LAYER   ROW   COL   STRESS RATE         
 --------------------------------------------------
      1      1     10     24     -0.1046E+05
      2      1      7      8      -7751.    
      3      1      5     20     -0.1234E+05
      4      1     11     21      -9620.    

      4 WELLS

                 RECHARGE =   0.00000    

 REUSING STREAM SEGMENT DATA FROM LAST STRESS PERIOD
 
 SOLVING FOR HEAD 


     7 CALLS TO PCG ROUTINE FOR TIME STEP   1 IN STRESS PERIOD   11
    26 TOTAL ITERATIONS

 OUTPUT CONTROL FOR STRESS PERIOD   11   TIME STEP    1
    SAVE BUDGET
    SAVE HEAD FOR ALL LAYERS
    PRINT HEAD FOR ALL LAYERS
 UBDSV2 SAVING "STREAMFLOW OUT  " ON UNIT  50 AT TIME STEP  1, STRESS PERIOD  11



 STREAM LISTING     PERIOD     11   STEP        1

 LAYER ROW COL. STREAM  RCH.  FLOW INTO     FLOW TO   FLOW OUT OF   OVRLND.     DIRECT     STREAM       STREAM     STREAM     STREAM   STREAMBED  STREAMBED
                SEG.NO.  NO.  STRM. RCH.    AQUIFER    STRM. RCH.    RUNOFF     PRECIP       ET          HEAD       DEPTH      WIDTH   CONDCTNC.   GRADIENT

   1   13    1     1     1    1.0000E+05 -7.7716E+02   1.0078E+05  0.000E+00  0.000E+00  0.000E+00  4.84064E+01  1.450E-01  2.000E+01  2.000E+04 -3.886E-02
   1   13    2     1     2    1.0078E+05 -1.6204E+03   1.0240E+05  0.000E+00  0.000E+00  0.000E+00  4.79301E+01  1.460E-01  2.000E+01  2.000E+04 -8.102E-02
   1   14    3     1     3    1.0240E+05 -2.8108E+02   1.0268E+05  0.000E+00  0.000E+00  0.000E+00  4.74537E+01  1.468E-01  2.000E+01  2.000E+04 -1.405E-02
   1   15    4     1     4    1.0268E+05 -2.7972E+02   1.0296E+05  0.000E+00  0.000E+00  0.000E+00  4.69766E+01  1.471E-01  2.000E+01  2.000E+04 -1.399E-02
   1   16    5     1     5    1.0296E+05 -1.3806E+03   1.0434E+05  0.000E+00  0.000E+00  0.000E+00  4.65001E+01  1.478E-01  2.000E+01  2.000E+04 -6.903E-02
   1   16    6     1     6    1.0434E+05 -8.5150E+02   1.0519E+05  0.000E+00  0.000E+00  0.000E+00  4.60237E+01  1.487E-01  2.000E+01  2.000E+04 -4.258E-02
   1   16    7     1     7    1.0519E+05 -8.3535E+02   1.0603E+05  0.000E+00  0.000E+00  0.000E+00  4.55472E+01  1.495E-01  2.000E+01  2.000E+04 -4.177E-02
   1   16    8     1     8    1.0603E+05 -8.3721E+02   1.0686E+05  0.000E+00  0.000E+00  0.000E+00  4.50706E+01  1.502E-01  2.000E+01  2.000E+04 -4.186E-02
   1   16    9     1     9    1.0686E+05 -8.4116E+02   1.0770E+05  0.000E+00  0.000E+00  0.000E+00  4.45941E+01  1.509E-01  2.000E+01  2.000E+04 -4.206E-02
   1   16   10     1    10    1.0770E+05 -8.4748E+02   1.0855E+05  0.000E+00  0.000E+00  0.000E+00  4.41175E+01  1.516E-01  2.000E+01  2.000E+04 -4.237E-02
   1   16   11     1    11    1.0855E+05 -8.7325E+02   1.0942E+05  0.000E+00  0.000E+00  0.000E+00  4.36410E+01  1.523E-01  2.000E+01  2.000E+04 -4.366E-02
   1   16   12     1    12    1.0942E+05 -1.4349E+03   1.1086E+05  0.000E+00  0.000E+00  0.000E+00  4.31646E+01  1.533E-01  2.000E+01  2.000E+04 -7.174E-02
   1   15   13     1    13    1.1086E+05 -1.0321E+03   1.1189E+05  0.000E+00  0.000E+00  0.000E+00  4.26884E+01  1.543E-01  2.000E+01  2.000E+04 -5.160E-02
   1   14   14     1    14    1.1189E+05 -1.0110E+03   1.1290E+05  0.000E+00  0.000E+00  0.000E+00  4.22120E+01  1.552E-01  2.000E+01  2.000E+04 -5.055E-02
   1   13   15     1    15    1.1290E+05 -9.6819E+02   1.1387E+05  0.000E+00  0.000E+00  0.000E+00  4.17355E+01  1.560E-01  2.000E+01  2.000E+04 -4.841E-02
   1   12   16     1    16    1.1387E+05 -8.0336E+02   1.1467E+05  0.000E+00  0.000E+00  0.000E+00  4.12590E+01  1.567E-01  2.000E+01  2.000E+04 -4.017E-02
   1   12   17     1    17    1.1467E+05 -4.1656E+02   1.1509E+05  0.000E+00  0.000E+00  0.000E+00  4.07822E+01  1.572E-01  2.000E+01  2.000E+04 -2.083E-02
   1   12   18     1    18    1.1509E+05 -1.0366E+02   1.1519E+05  0.000E+00  0.000E+00  0.000E+00  4.03051E+01  1.574E-01  2.000E+01  2.000E+04 -5.183E-03
   1   12   19     1    19    1.1519E+05  1.3108E+03   1.1388E+05  0.000E+00  0.000E+00  0.000E+00  3.98274E+01  1.569E-01  2.000E+01  2.000E+04  6.554E-02
   1   13   20     1    20    1.1388E+05  8.6063E+02   1.1302E+05  0.000E+00  0.000E+00  0.000E+00  3.93492E+01  1.560E-01  2.000E+01  2.000E+04  4.303E-02
   1   14   21     1    21    1.1302E+05 -5.0052E+02   1.1352E+05  0.000E+00  0.000E+00  0.000E+00  3.88718E+01  1.559E-01  2.000E+01  2.000E+04 -2.503E-02
   1   14   22     1    22    1.1352E+05  5.3555E+03   1.0817E+05  0.000E+00  0.000E+00  0.000E+00  3.83925E+01  1.539E-01  2.000E+01  2.000E+04  2.678E-01
   1    9   30     2     1    5.0000E+04  2.0169E+01   4.9980E+04  0.000E+00  0.000E+00  0.000E+00  4.02409E+01  1.159E-01  2.000E+01  2.000E+04  1.008E-03
   1    9   29     2     2    4.9980E+04 -2.1031E+02   5.0190E+04  0.000E+00  0.000E+00  0.000E+00  3.99910E+01  1.160E-01  2.000E+01  2.000E+04 -1.052E-02
   1    9   28     2     3    5.0190E+04 -2.7453E+02   5.0465E+04  0.000E+00  0.000E+00  0.000E+00  3.97413E+01  1.163E-01  2.000E+01  2.000E+04 -1.373E-02
   1    9   27     2     4    5.0465E+04 -1.3547E+02   5.0600E+04  0.000E+00  0.000E+00  0.000E+00  3.94916E+01  1.166E-01  2.000E+01  2.000E+04 -6.773E-03
   1   10   26     2     5    5.0600E+04  1.7257E+03   4.8874E+04  0.000E+00  0.000E+00  0.000E+00  3.92405E+01  1.155E-01  2.000E+01  2.000E+04  8.628E-02
   1   11   25     2     6    4.8874E+04  3.0328E+03   4.5842E+04  0.000E+00  0.000E+00  0.000E+00  3.89872E+01  1.122E-01  2.000E+01  2.000E+04  1.516E-01
   1   12   24     2     7    4.5842E+04  2.6162E+03   4.3225E+04  0.000E+00  0.000E+00  0.000E+00  3.87331E+01  1.081E-01  2.000E+01  2.000E+04  1.308E-01
   1   13   23     2     8    4.3225E+04  3.4083E+02   4.2885E+04  0.000E+00  0.000E+00  0.000E+00  3.84809E+01  1.059E-01  2.000E+01  2.000E+04  1.704E-02
   1   14   22     2     9    4.2885E+04  2.0878E+03   4.0797E+04  0.000E+00  0.000E+00  0.000E+00  3.82291E+01  1.041E-01  2.000E+01  2.000E+04  1.044E-01
   1   14   22     3     1    1.4897E+05 -8.2838E+03   1.5725E+05  0.000E+00  0.000E+00  0.000E+00  3.77105E+01  1.550E-01  2.000E+01  2.000E+04 -4.142E-01
   1   15   23     3     2    1.5725E+05 -4.7104E+02   1.5772E+05  0.000E+00  0.000E+00  0.000E+00  3.68243E+01  1.576E-01  2.000E+01  2.000E+04 -2.355E-02
   1   15   24     3     3    1.5772E+05 -2.1513E+02   1.5793E+05  0.000E+00  0.000E+00  0.000E+00  3.59356E+01  1.578E-01  2.000E+01  2.000E+04 -1.076E-02
   1   15   25     3     4    1.5793E+05 -2.0564E+02   1.5814E+05  0.000E+00  0.000E+00  0.000E+00  3.50469E+01  1.580E-01  2.000E+01  2.000E+04 -1.028E-02
   1   15   26     3     5    1.5814E+05 -2.5182E+02   1.5839E+05  0.000E+00  0.000E+00  0.000E+00  3.41581E+01  1.581E-01  2.000E+01  2.000E+04 -1.259E-02
   1   16   27     3     6    1.5839E+05 -2.7479E+02   1.5867E+05  0.000E+00  0.000E+00  0.000E+00  3.32694E+01  1.583E-01  2.000E+01  2.000E+04 -1.374E-02
   1   17   28     3     7    1.5867E+05 -1.3212E+03   1.5999E+05  0.000E+00  0.000E+00  0.000E+00  3.23810E+01  1.587E-01  2.000E+01  2.000E+04 -6.606E-02
   1   18   29     3     8    1.5999E+05 -2.6825E+03   1.6267E+05  0.000E+00  0.000E+00  0.000E+00  3.14933E+01  1.599E-01  2.000E+01  2.000E+04 -1.341E-01
   1   18   30     3     9    1.6267E+05 -2.9976E+03   1.6567E+05  0.000E+00  0.000E+00  0.000E+00  3.06061E+01  1.616E-01  2.000E+01  2.000E+04 -1.499E-01



1
              HEAD IN LAYER   1 AT END OF TIME STEP   1 IN STRESS PERIOD   11
  ---------------------------------------------------------------------------

          1      2      3      4      5      6      7      8      9     10
         11     12     13     14     15     16     17     18     19     20
         21     22     23     24     25     26     27     28     29     30
 .........................................................................
   1  ****** ****** ****** ****** ****** ****** ****** ****** ****** ******
      ****** ****** ****** ****** ****** ****** ****** ****** ****** ******
      ****** ****** ****** ****** ****** ****** ****** ****** ****** ******
   2  ****** ****** ****** ****** ****** ****** ****** ****** ****** ******
      ****** ****** ****** ****** ****** ****** ****** ****** ****** ******
      ****** ****** ****** ****** ****** ****** ****** ****** ****** ******
   3  ****** ****** ****** ****** ****** ****** ****** ****** ****** ******
      ****** ****** ****** ****** ****** ****** ****** ****** ****** ******
      ****** ****** ****** ****** ****** ****** ****** ****** ****** ******
   4  ****** ****** ****** ****** ****** ****** ****** ****** ****** ******
      ****** ****** ****** ****** ****** ****** ****** ****** ****** ******
      ****** ****** ****** ****** ****** ****** ****** ****** ****** ******
   5  ****** ****** ****** ****** ****** ****** ****** ****** ****** ******
      ****** ****** ****** ****** ****** ****** ****** ****** ****** ******
      ****** ****** ****** ****** ****** ****** ****** ****** ****** ******
   6  ****** ****** ****** ****** ****** ****** ****** ****** ****** ******
      ****** ****** ****** ****** ****** ****** ****** ****** ****** ******
      ****** ****** ****** ****** ****** ****** ****** ****** ****** ******
   7  ****** ****** ****** ****** ****** ****** ****** ****** ****** ******
      ****** ****** ****** ****** ****** ****** ****** ****** ****** ******
      ****** ****** ****** ****** ****** ****** ****** ****** ****** ******
   8  ****** ****** ****** ****** ****** ****** ****** ****** ****** ******
      ****** ****** ****** ****** ****** ****** ****** ****** ****** ******
      ****** ****** ****** ****** ****** ****** ****** ****** ****** ******
   9  ****** ****** ****** ****** ****** ****** ****** ****** ****** ******
      ****** ****** ****** ****** ****** ****** ****** ****** ****** ******
      ****** ****** ****** ****** ****** ****** ****** ****** ****** ******
  10  ****** ****** ****** ****** ****** ****** ****** ****** ****** ******
      ****** ****** ****** ****** ****** ****** ****** ****** ****** ******
      ****** ****** ****** ****** ****** ****** ****** ****** ****** ******
  11  ****** ****** ****** ****** ****** ****** ****** ****** ****** ******
      ****** ****** ****** ****** ****** ****** ****** ****** ****** ******
      ****** ****** ****** ****** ****** ****** ****** ****** ****** ******
  12  ****** ****** ****** ****** ****** ****** ****** ****** ****** ******
      ****** ****** ****** ****** ****** ****** ****** ****** ****** ******
      ****** ****** ****** ****** ****** ****** ****** ****** ****** ******
  13  ****** ****** ****** ****** ****** ****** ****** ****** ****** ******
      ****** ****** ****** ****** ****** ****** ****** ****** ****** ******
      ****** ****** ****** ****** ****** ****** ****** ****** ****** ******
  14  ****** ****** ****** ****** ****** ****** ****** ****** ****** ******
      ****** ****** ****** ****** ****** ****** ****** ****** ****** ******
      ****** ****** ****** ****** ****** ****** ****** ****** ****** ******
  15  ****** ****** ****** ****** ****** ****** ****** ****** ****** ******
      ****** ****** ****** ****** ****** ****** ****** ****** ****** ******
      ****** ****** ****** ****** ****** ****** ****** ****** ****** ******
  16  ****** ****** ****** ****** ****** ****** ****** ****** ****** ******
      ****** ****** ****** ****** ****** ****** ****** ****** ****** ******
      ****** ****** ****** ****** ****** ****** ****** ****** ****** ******
  17  ****** ****** ****** ****** ****** ****** ****** ****** ****** ******
      ****** ****** ****** ****** ****** ****** ****** ****** ****** ******
      ****** ****** ****** ****** ****** ****** ****** ****** ****** ******
  18  ****** ****** ****** ****** ****** ****** ****** ****** ****** ******
      ****** ****** ****** ****** ****** ****** ****** ****** ****** ******
      ****** ****** ****** ****** ****** ****** ****** ****** ****** ******
  19  ****** ****** ****** ****** ****** ****** ****** ****** ****** ******
      ****** ****** ****** ****** ****** ****** ****** ****** ****** ******
      ****** ****** ****** ****** ****** ****** ****** ****** ****** ******
  20  ****** ****** ****** ****** ****** ****** ****** ****** ****** ******
      ****** ****** ****** ****** ****** ****** ****** ****** ****** ******
      ****** ****** ****** ****** ****** ****** ****** ****** ****** ******
  21  ****** ****** ****** ****** ****** ****** ****** ****** ****** ******
      ****** ****** ****** ****** ****** ****** ****** ****** ****** ******
      ****** ****** ****** ****** ****** ****** ****** ****** ****** ******
  22  ****** ****** ****** ****** ****** ****** ****** ****** ****** ******
      ****** ****** ****** ****** ****** ****** ****** ****** ****** ******
      ****** ****** ****** ****** ****** ****** ****** ****** ****** ******
  23  ****** ****** ****** ****** ****** ****** ****** ****** ****** ******
      ****** ****** ****** ****** ****** ****** ****** ****** ****** ******
      ****** ****** ****** ****** ****** ****** ****** ****** ****** ******
  24  ****** ****** ****** ****** ****** ****** ****** ****** ****** ******
      ****** ****** ****** ****** ****** ****** ****** ****** ****** ******
      ****** ****** ****** ****** ****** ****** ****** ****** ****** ******
  25  ****** ****** ****** ****** ****** ****** ****** ****** ****** ******
      ****** ****** ****** ****** ****** ****** ****** ****** ****** ******
      ****** ****** ****** ****** ****** ****** ****** ****** ****** ******

 HEAD WILL BE SAVED ON UNIT   51 AT END OF TIME STEP    1, STRESS PERIOD   11
1
  VOLUMETRIC BUDGET FOR ENTIRE MODEL AT END OF TIME STEP    1, STRESS PERIOD  11
  ------------------------------------------------------------------------------

     CUMULATIVE VOLUMES      L**3       RATES FOR THIS TIME STEP      L**3/T
     ------------------                 ------------------------

           IN:                                      IN:
           ---                                      ---
             STORAGE =    37812224.3231               STORAGE =       18269.9932
       CONSTANT HEAD =    30713222.9085         CONSTANT HEAD =       37560.8808
               WELLS =           0.0000                 WELLS =           0.0000
            RECHARGE =    23901600.0000              RECHARGE =           0.0000
      STREAM LEAKAGE =    13156381.2735        STREAM LEAKAGE =       17350.4191

            TOTAL IN =   105583428.5051              TOTAL IN =       73181.2931

          OUT:                                     OUT:
          ----                                     ----
             STORAGE =     2210008.8360               STORAGE =           0.0000
       CONSTANT HEAD =           0.0000         CONSTANT HEAD =           0.0000
               WELLS =    40323003.1673                 WELLS =       40162.3538
            RECHARGE =           0.0000              RECHARGE =           0.0000
      STREAM LEAKAGE =    63050418.6751        STREAM LEAKAGE =       33018.9444

           TOTAL OUT =   105583430.6784             TOTAL OUT =       73181.2982

            IN - OUT =          -2.1733              IN - OUT =      -5.0309E-03

 PERCENT DISCREPANCY =          -0.00     PERCENT DISCREPANCY =          -0.00






         TIME SUMMARY AT END OF TIME STEP    1 IN STRESS PERIOD   11
                    SECONDS     MINUTES      HOURS       DAYS        YEARS
                    -----------------------------------------------------------
   TIME STEP LENGTH 7.86240E+06 1.31040E+05  2184.0      91.000     0.24914    
 STRESS PERIOD TIME 7.86240E+06 1.31040E+05  2184.0      91.000     0.24914    
         TOTAL TIME 8.67456E+07 1.44576E+06  24096.      1004.0      2.7488    
1
1
                            STRESS PERIOD NO.   12, LENGTH =   91.00000    
                            -----------------------------------------------

                              NUMBER OF TIME STEPS =     1

                               MULTIPLIER FOR DELT =     1.500

                            INITIAL TIME STEP SIZE =   91.00000    

 WELL NO.  LAYER   ROW   COL   STRESS RATE         
 --------------------------------------------------
      1      1     10     24     -0.1046E+05
      2      1      7      8      -7751.    
      3      1      5     20     -0.1234E+05
      4      1     11     21      -9620.    

      4 WELLS

                 RECHARGE =  1.000000E-03

 REUSING STREAM SEGMENT DATA FROM LAST STRESS PERIOD
 
 SOLVING FOR HEAD 


     7 CALLS TO PCG ROUTINE FOR TIME STEP   1 IN STRESS PERIOD   12
    24 TOTAL ITERATIONS

 OUTPUT CONTROL FOR STRESS PERIOD   12   TIME STEP    1
    SAVE BUDGET
    SAVE HEAD FOR ALL LAYERS
    PRINT HEAD FOR ALL LAYERS
 UBDSV2 SAVING "STREAMFLOW OUT  " ON UNIT  50 AT TIME STEP  1, STRESS PERIOD  12



 STREAM LISTING     PERIOD     12   STEP        1

 LAYER ROW COL. STREAM  RCH.  FLOW INTO     FLOW TO   FLOW OUT OF   OVRLND.     DIRECT     STREAM       STREAM     STREAM     STREAM   STREAMBED  STREAMBED
                SEG.NO.  NO.  STRM. RCH.    AQUIFER    STRM. RCH.    RUNOFF     PRECIP       ET          HEAD       DEPTH      WIDTH   CONDCTNC.   GRADIENT

   1   13    1     1     1    1.0000E+05 -9.1321E+02   1.0091E+05  0.000E+00  0.000E+00  0.000E+00  4.84064E+01  1.450E-01  2.000E+01  2.000E+04 -4.566E-02
   1   13    2     1     2    1.0091E+05 -1.7658E+03   1.0268E+05  0.000E+00  0.000E+00  0.000E+00  4.79303E+01  1.462E-01  2.000E+01  2.000E+04 -8.829E-02
   1   14    3     1     3    1.0268E+05 -3.5812E+02   1.0304E+05  0.000E+00  0.000E+00  0.000E+00  4.74539E+01  1.471E-01  2.000E+01  2.000E+04 -1.791E-02
   1   15    4     1     4    1.0304E+05 -3.6086E+02   1.0340E+05  0.000E+00  0.000E+00  0.000E+00  4.69770E+01  1.474E-01  2.000E+01  2.000E+04 -1.804E-02
   1   16    5     1     5    1.0340E+05 -1.5897E+03   1.0499E+05  0.000E+00  0.000E+00  0.000E+00  4.65005E+01  1.483E-01  2.000E+01  2.000E+04 -7.948E-02
   1   16    6     1     6    1.0499E+05 -9.8093E+02   1.0597E+05  0.000E+00  0.000E+00  0.000E+00  4.60244E+01  1.494E-01  2.000E+01  2.000E+04 -4.905E-02
   1   16    7     1     7    1.0597E+05 -9.5959E+02   1.0693E+05  0.000E+00  0.000E+00  0.000E+00  4.55479E+01  1.502E-01  2.000E+01  2.000E+04 -4.798E-02
   1   16    8     1     8    1.0693E+05 -9.6044E+02   1.0789E+05  0.000E+00  0.000E+00  0.000E+00  4.50714E+01  1.510E-01  2.000E+01  2.000E+04 -4.802E-02
   1   16    9     1     9    1.0789E+05 -9.6497E+02   1.0885E+05  0.000E+00  0.000E+00  0.000E+00  4.45950E+01  1.518E-01  2.000E+01  2.000E+04 -4.825E-02
   1   16   10     1    10    1.0885E+05 -9.7288E+02   1.0983E+05  0.000E+00  0.000E+00  0.000E+00  4.41185E+01  1.526E-01  2.000E+01  2.000E+04 -4.864E-02
   1   16   11     1    11    1.0983E+05 -1.0012E+03   1.1083E+05  0.000E+00  0.000E+00  0.000E+00  4.36421E+01  1.534E-01  2.000E+01  2.000E+04 -5.006E-02
   1   16   12     1    12    1.1083E+05 -1.6356E+03   1.1246E+05  0.000E+00  0.000E+00  0.000E+00  4.31659E+01  1.545E-01  2.000E+01  2.000E+04 -8.178E-02
   1   15   13     1    13    1.1246E+05 -1.2462E+03   1.1371E+05  0.000E+00  0.000E+00  0.000E+00  4.26898E+01  1.557E-01  2.000E+01  2.000E+04 -6.231E-02
   1   14   14     1    14    1.1371E+05 -1.2246E+03   1.1493E+05  0.000E+00  0.000E+00  0.000E+00  4.22136E+01  1.567E-01  2.000E+01  2.000E+04 -6.123E-02
   1   13   15     1    15    1.1493E+05 -1.1735E+03   1.1611E+05  0.000E+00  0.000E+00  0.000E+00  4.17373E+01  1.577E-01  2.000E+01  2.000E+04 -5.867E-02
   1   12   16     1    16    1.1611E+05 -9.8045E+02   1.1709E+05  0.000E+00  0.000E+00  0.000E+00  4.12609E+01  1.586E-01  2.000E+01  2.000E+04 -4.902E-02
   1   12   17     1    17    1.1709E+05 -5.6693E+02   1.1765E+05  0.000E+00  0.000E+00  0.000E+00  4.07842E+01  1.592E-01  2.000E+01  2.000E+04 -2.835E-02
   1   12   18     1    18    1.1765E+05 -2.5679E+02   1.1791E+05  0.000E+00  0.000E+00  0.000E+00  4.03073E+01  1.596E-01  2.000E+01  2.000E+04 -1.284E-02
   1   12   19     1    19    1.1791E+05  1.1213E+03   1.1679E+05  0.000E+00  0.000E+00  0.000E+00  3.98297E+01  1.592E-01  2.000E+01  2.000E+04  5.607E-02
   1   13   20     1    20    1.1679E+05  6.5135E+02   1.1614E+05  0.000E+00  0.000E+00  0.000E+00  3.93517E+01  1.585E-01  2.000E+01  2.000E+04  3.257E-02
   1   14   21     1    21    1.1614E+05 -6.9451E+02   1.1683E+05  0.000E+00  0.000E+00  0.000E+00  3.88744E+01  1.585E-01  2.000E+01  2.000E+04 -3.473E-02
   1   14   22     1    22    1.1683E+05  5.3009E+03   1.1153E+05  0.000E+00  0.000E+00  0.000E+00  3.83953E+01  1.566E-01  2.000E+01  2.000E+04  2.650E-01
   1    9   30     2     1    5.0000E+04 -1.5562E+02   5.0156E+04  0.000E+00  0.000E+00  0.000E+00  4.02410E+01  1.160E-01  2.000E+01  2.000E+04 -7.781E-03
   1    9   29     2     2    5.0156E+04 -3.8400E+02   5.0540E+04  0.000E+00  0.000E+00  0.000E+00  3.99913E+01  1.163E-01  2.000E+01  2.000E+04 -1.920E-02
   1    9   28     2     3    5.0540E+04 -4.4456E+02   5.0984E+04  0.000E+00  0.000E+00  0.000E+00  3.97419E+01  1.169E-01  2.000E+01  2.000E+04 -2.223E-02
   1    9   27     2     4    5.0984E+04 -3.4284E+02   5.1327E+04  0.000E+00  0.000E+00  0.000E+00  3.94925E+01  1.175E-01  2.000E+01  2.000E+04 -1.714E-02
   1   10   26     2     5    5.1327E+04  1.4974E+03   4.9830E+04  0.000E+00  0.000E+00  0.000E+00  3.92417E+01  1.167E-01  2.000E+01  2.000E+04  7.487E-02
   1   11   25     2     6    4.9830E+04  2.8084E+03   4.7021E+04  0.000E+00  0.000E+00  0.000E+00  3.89887E+01  1.137E-01  2.000E+01  2.000E+04  1.404E-01
   1   12   24     2     7    4.7021E+04  2.4116E+03   4.4610E+04  0.000E+00  0.000E+00  0.000E+00  3.87349E+01  1.099E-01  2.000E+01  2.000E+04  1.206E-01
   1   13   23     2     8    4.4610E+04  2.6347E+02   4.4346E+04  0.000E+00  0.000E+00  0.000E+00  3.84830E+01  1.080E-01  2.000E+01  2.000E+04  1.317E-02
   1   14   22     2     9    4.4346E+04  2.0222E+03   4.2324E+04  0.000E+00  0.000E+00  0.000E+00  3.82313E+01  1.063E-01  2.000E+01  2.000E+04  1.011E-01
   1   14   22     3     1    1.5386E+05 -8.3343E+03   1.6219E+05  0.000E+00  0.000E+00  0.000E+00  3.77135E+01  1.580E-01  2.000E+01  2.000E+04 -4.167E-01
   1   15   23     3     2    1.6219E+05 -5.4314E+02   1.6273E+05  0.000E+00  0.000E+00  0.000E+00  3.68273E+01  1.606E-01  2.000E+01  2.000E+04 -2.716E-02
   1   15   24     3     3    1.6273E+05 -2.8025E+02   1.6301E+05  0.000E+00  0.000E+00  0.000E+00  3.59386E+01  1.608E-01  2.000E+01  2.000E+04 -1.401E-02
   1   15   25     3     4    1.6301E+05 -2.7203E+02   1.6329E+05  0.000E+00  0.000E+00  0.000E+00  3.50499E+01  1.610E-01  2.000E+01  2.000E+04 -1.360E-02
   1   15   26     3     5    1.6329E+05 -3.2932E+02   1.6362E+05  0.000E+00  0.000E+00  0.000E+00  3.41612E+01  1.612E-01  2.000E+01  2.000E+04 -1.647E-02
   1   16   27     3     6    1.6362E+05 -3.6161E+02   1.6398E+05  0.000E+00  0.000E+00  0.000E+00  3.32725E+01  1.614E-01  2.000E+01  2.000E+04 -1.808E-02
   1   17   28     3     7    1.6398E+05 -1.5421E+03   1.6552E+05  0.000E+00  0.000E+00  0.000E+00  3.23842E+01  1.620E-01  2.000E+01  2.000E+04 -7.711E-02
   1   18   29     3     8    1.6552E+05 -2.8835E+03   1.6840E+05  0.000E+00  0.000E+00  0.000E+00  3.14966E+01  1.633E-01  2.000E+01  2.000E+04 -1.442E-01
   1   18   30     3     9    1.6840E+05 -3.1660E+03   1.7157E+05  0.000E+00  0.000E+00  0.000E+00  3.06095E+01  1.650E-01  2.000E+01  2.000E+04 -1.583E-01



1
              HEAD IN LAYER   1 AT END OF TIME STEP   1 IN STRESS PERIOD   12
  ---------------------------------------------------------------------------

          1      2      3      4      5      6      7      8      9     10
         11     12     13     14     15     16     17     18     19     20
         21     22     23     24     25     26     27     28     29     30
 .........................................................................
   1  ****** ****** ****** ****** ****** ****** ****** ****** ****** ******
      ****** ****** ****** ****** ****** ****** ****** ****** ****** ******
      ****** ****** ****** ****** ****** ****** ****** ****** ****** ******
   2  ****** ****** ****** ****** ****** ****** ****** ****** ****** ******
      ****** ****** ****** ****** ****** ****** ****** ****** ****** ******
      ****** ****** ****** ****** ****** ****** ****** ****** ****** ******
   3  ****** ****** ****** ****** ****** ****** ****** ****** ****** ******
      ****** ****** ****** ****** ****** ****** ****** ****** ****** ******
      ****** ****** ****** ****** ****** ****** ****** ****** ****** ******
   4  ****** ****** ****** ****** ****** ****** ****** ****** ****** ******
      ****** ****** ****** ****** ****** ****** ****** ****** ****** ******
      ****** ****** ****** ****** ****** ****** ****** ****** ****** ******
   5  ****** ****** ****** ****** ****** ****** ****** ****** ****** ******
      ****** ****** ****** ****** ****** ****** ****** ****** ****** ******
      ****** ****** ****** ****** ****** ****** ****** ****** ****** ******
   6  ****** ****** ****** ****** ****** ****** ****** ****** ****** ******
      ****** ****** ****** ****** ****** ****** ****** ****** ****** ******
      ****** ****** ****** ****** ****** ****** ****** ****** ****** ******
   7  ****** ****** ****** ****** ****** ****** ****** ****** ****** ******
      ****** ****** ****** ****** ****** ****** ****** ****** ****** ******
      ****** ****** ****** ****** ****** ****** ****** ****** ****** ******
   8  ****** ****** ****** ****** ****** ****** ****** ****** ****** ******
      ****** ****** ****** ****** ****** ****** ****** ****** ****** ******
      ****** ****** ****** ****** ****** ****** ****** ****** ****** ******
   9  ****** ****** ****** ****** ****** ****** ****** ****** ****** ******
      ****** ****** ****** ****** ****** ****** ****** ****** ****** ******
      ****** ****** ****** ****** ****** ****** ****** ****** ****** ******
  10  ****** ****** ****** ****** ****** ****** ****** ****** ****** ******
      ****** ****** ****** ****** ****** ****** ****** ****** ****** ******
      ****** ****** ****** ****** ****** ****** ****** ****** ****** ******
  11  ****** ****** ****** ****** ****** ****** ****** ****** ****** ******
      ****** ****** ****** ****** ****** ****** ****** ****** ****** ******
      ****** ****** ****** ****** ****** ****** ****** ****** ****** ******
  12  ****** ****** ****** ****** ****** ****** ****** ****** ****** ******
      ****** ****** ****** ****** ****** ****** ****** ****** ****** ******
      ****** ****** ****** ****** ****** ****** ****** ****** ****** ******
  13  ****** ****** ****** ****** ****** ****** ****** ****** ****** ******
      ****** ****** ****** ****** ****** ****** ****** ****** ****** ******
      ****** ****** ****** ****** ****** ****** ****** ****** ****** ******
  14  ****** ****** ****** ****** ****** ****** ****** ****** ****** ******
      ****** ****** ****** ****** ****** ****** ****** ****** ****** ******
      ****** ****** ****** ****** ****** ****** ****** ****** ****** ******
  15  ****** ****** ****** ****** ****** ****** ****** ****** ****** ******
      ****** ****** ****** ****** ****** ****** ****** ****** ****** ******
      ****** ****** ****** ****** ****** ****** ****** ****** ****** ******
  16  ****** ****** ****** ****** ****** ****** ****** ****** ****** ******
      ****** ****** ****** ****** ****** ****** ****** ****** ****** ******
      ****** ****** ****** ****** ****** ****** ****** ****** ****** ******
  17  ****** ****** ****** ****** ****** ****** ****** ****** ****** ******
      ****** ****** ****** ****** ****** ****** ****** ****** ****** ******
      ****** ****** ****** ****** ****** ****** ****** ****** ****** ******
  18  ****** ****** ****** ****** ****** ****** ****** ****** ****** ******
      ****** ****** ****** ****** ****** ****** ****** ****** ****** ******
      ****** ****** ****** ****** ****** ****** ****** ****** ****** ******
  19  ****** ****** ****** ****** ****** ****** ****** ****** ****** ******
      ****** ****** ****** ****** ****** ****** ****** ****** ****** ******
      ****** ****** ****** ****** ****** ****** ****** ****** ****** ******
  20  ****** ****** ****** ****** ****** ****** ****** ****** ****** ******
      ****** ****** ****** ****** ****** ****** ****** ****** ****** ******
      ****** ****** ****** ****** ****** ****** ****** ****** ****** ******
  21  ****** ****** ****** ****** ****** ****** ****** ****** ****** ******
      ****** ****** ****** ****** ****** ****** ****** ****** ****** ******
      ****** ****** ****** ****** ****** ****** ****** ****** ****** ******
  22  ****** ****** ****** ****** ****** ****** ****** ****** ****** ******
      ****** ****** ****** ****** ****** ****** ****** ****** ****** ******
      ****** ****** ****** ****** ****** ****** ****** ****** ****** ******
  23  ****** ****** ****** ****** ****** ****** ****** ****** ****** ******
      ****** ****** ****** ****** ****** ****** ****** ****** ****** ******
      ****** ****** ****** ****** ****** ****** ****** ****** ****** ******
  24  ****** ****** ****** ****** ****** ****** ****** ****** ****** ******
      ****** ****** ****** ****** ****** ****** ****** ****** ****** ******
      ****** ****** ****** ****** ****** ****** ****** ****** ****** ******
  25  ****** ****** ****** ****** ****** ****** ****** ****** ****** ******
      ****** ****** ****** ****** ****** ****** ****** ****** ****** ******
      ****** ****** ****** ****** ****** ****** ****** ****** ****** ******

 HEAD WILL BE SAVED ON UNIT   51 AT END OF TIME STEP    1, STRESS PERIOD   12
1
  VOLUMETRIC BUDGET FOR ENTIRE MODEL AT END OF TIME STEP    1, STRESS PERIOD  12
  ------------------------------------------------------------------------------

     CUMULATIVE VOLUMES      L**3       RATES FOR THIS TIME STEP      L**3/T
     ------------------                 ------------------------

           IN:                                      IN:
           ---                                      ---
             STORAGE =    37820849.2339               STORAGE =          94.7792
       CONSTANT HEAD =    34070282.5286         CONSTANT HEAD =       36890.7651
               WELLS =           0.0000                 WELLS =           0.0000
            RECHARGE =    26413200.0000              RECHARGE =       27600.0000
      STREAM LEAKAGE =    14619350.5751        STREAM LEAKAGE =       16076.5857

            TOTAL IN =   112923682.3376              TOTAL IN =       80662.1300

          OUT:                                     OUT:
          ----                                     ----
             STORAGE =     2469754.0275               STORAGE =        2854.3428
       CONSTANT HEAD =           0.0000         CONSTANT HEAD =           0.0000
               WELLS =    43977777.3588                 WELLS =       40162.3538
            RECHARGE =           0.0000              RECHARGE =           0.0000
      STREAM LEAKAGE =    66476153.0464        STREAM LEAKAGE =       37645.4327

           TOTAL OUT =   112923684.4327             TOTAL OUT =       80662.1292

            IN - OUT =          -2.0951              IN - OUT =       8.6014E-04

 PERCENT DISCREPANCY =          -0.00     PERCENT DISCREPANCY =           0.00






         TIME SUMMARY AT END OF TIME STEP    1 IN STRESS PERIOD   12
                    SECONDS     MINUTES      HOURS       DAYS        YEARS
                    -----------------------------------------------------------
   TIME STEP LENGTH 7.86240E+06 1.31040E+05  2184.0      91.000     0.24914    
 STRESS PERIOD TIME 7.86240E+06 1.31040E+05  2184.0      91.000     0.24914    
         TOTAL TIME 9.46080E+07 1.57680E+06  26280.      1095.0      2.9979    
1

 Run end date and time (yyyy/mm/dd hh:mm:ss): 2018/10/14 20:06:52
 Elapsed run time:  0.086 Seconds

