                                  MODFLOW-2005     
      U.S. GEOLOGICAL SURVEY MODULAR FINITE-DIFFERENCE GROUND-WATER FLOW MODEL
                            VERSION 1.11.00 8/8/2013

 LIST FILE: supply2.lst
                         UNIT   10

 OPENING ..\data\supply.dis
 FILE TYPE:DIS   UNIT   11   STATUS:OLD    
 FORMAT:FORMATTED              ACCESS:SEQUENTIAL          

 OPENING ..\data\supply.ba6
 FILE TYPE:BAS6   UNIT   12   STATUS:OLD    
 FORMAT:FORMATTED              ACCESS:SEQUENTIAL          

 OPENING ..\data\supply.bc6
 FILE TYPE:BCF6   UNIT   13   STATUS:OLD    
 FORMAT:FORMATTED              ACCESS:SEQUENTIAL          

 OPENING ..\data\supply.rch
 FILE TYPE:RCH   UNIT   15   STATUS:OLD    
 FORMAT:FORMATTED              ACCESS:SEQUENTIAL          

 OPENING ..\data\supply2.sfr
 FILE TYPE:SFR   UNIT   16   STATUS:OLD    
 FORMAT:FORMATTED              ACCESS:SEQUENTIAL          

 OPENING ..\data\supply.oc
 FILE TYPE:OC   UNIT   17   STATUS:OLD    
 FORMAT:FORMATTED              ACCESS:SEQUENTIAL          

 OPENING ..\data\supply.pcg
 FILE TYPE:PCG   UNIT   18   STATUS:OLD    
 FORMAT:FORMATTED              ACCESS:SEQUENTIAL          

 OPENING supply2.wel
 FILE TYPE:WEL   UNIT   19   STATUS:OLD    
 FORMAT:FORMATTED              ACCESS:SEQUENTIAL          

 OPENING supply2sf.cbc
 FILE TYPE:DATA(BINARY)   UNIT   50   STATUS:UNKNOWN
 FORMAT:BINARY                 ACCESS:SEQUENTIAL          

 OPENING supply2hd.bhd
 FILE TYPE:DATA(BINARY)   UNIT   51   STATUS:UNKNOWN
 FORMAT:BINARY                 ACCESS:SEQUENTIAL          

 BAS -- BASIC PACKAGE, VERSION 7, 5/2/2005 INPUT READ FROM UNIT   12
 
 MODFLOW was compiled using uniform precision
 Precision of REAL and DOUBLE PRECISION variables:          15

 DISCRETIZATION INPUT DATA READ FROM UNIT   11
    1 LAYERS        25 ROWS        30 COLUMNS
   12 STRESS PERIOD(S) IN SIMULATION
 MODEL TIME UNIT IS DAYS
 MODEL LENGTH UNIT IS UNDEFINED
  Confining bed flag for each layer:
   0

                     DELR =   200.000    

                     DELC =   200.000    

 TOP ELEVATION OF LAYER 1 =  100.0000    

   MODEL LAYER BOTTOM EL. =   0.00000     FOR LAYER   1


 STRESS PERIOD     LENGTH       TIME STEPS     MULTIPLIER FOR DELT    SS FLAG
 ----------------------------------------------------------------------------
        1         92.00000          1                    1.500         TR
        2         91.00000          1                    1.500         TR
        3         91.00000          1                    1.500         TR
        4         91.00000          1                    1.500         TR
        5         92.00000          1                    1.500         TR
        6         91.00000          1                    1.500         TR
        7         91.00000          1                    1.500         TR
        8         91.00000          1                    1.500         TR
        9         92.00000          1                    1.500         TR
       10         91.00000          1                    1.500         TR
       11         91.00000          1                    1.500         TR
       12         91.00000          1                    1.500         TR

 TRANSIENT SIMULATION



 
 #MODOFC transient water supply sample problem                                   
 #                                                                               
 THE FREE FORMAT OPTION HAS BEEN SELECTED



                     BOUNDARY ARRAY FOR LAYER   1
 READING ON UNIT   12 WITH FORMAT: (20I4)              

 AQUIFER HEAD WILL BE SET TO   0.0000     AT ALL NO-FLOW NODES (IBOUND=0).



                       INITIAL HEAD FOR LAYER   1
 READING ON UNIT   12 WITH FORMAT: (10F13.0)           

 OUTPUT CONTROL IS SPECIFIED ONLY AT TIME STEPS FOR WHICH OUTPUT IS DESIRED
 COMPACT CELL-BY-CELL BUDGET FILES WILL BE WRITTEN
 HEAD PRINT FORMAT CODE IS  18    DRAWDOWN PRINT FORMAT CODE IS   0
 HEADS WILL BE SAVED ON UNIT   51    DRAWDOWNS WILL BE SAVED ON UNIT    0

 BCF -- BLOCK-CENTERED FLOW PACKAGE, VERSION 7, 5/2/2005
         INPUT READ FROM UNIT 13
 TRANSIENT SIMULATION
 HEAD AT CELLS THAT CONVERT TO DRY=   0.0000    
 WETTING CAPABILITY IS NOT ACTIVE
      LAYER  LAYER-TYPE CODE     INTERBLOCK T
      --------------------------------------------
         1            0          0 -- HARMONIC    

 COLUMN TO ROW ANISOTROPY =  1.000000    

     PRIMARY STORAGE COEF =  5.000000E-02 FOR LAYER   1

     TRANSMIS. ALONG ROWS =   500.000     FOR LAYER   1

 WEL -- WELL PACKAGE, VERSION 7, 5/2/2005 INPUT READ FROM UNIT   19
 # Well package input file written by MMProc
 No named parameters
 MAXIMUM OF      3 ACTIVE WELLS AT ONE TIME


     0 Well parameters

 RCH -- RECHARGE PACKAGE, VERSION 7, 5/2/2005 INPUT READ FROM UNIT   15
 No named parameters
 OPTION 1 -- RECHARGE TO TOP LAYER


     0 Recharge parameters

 SFR7 -- STREAMFLOW ROUTING PACKAGE, VERSION 1.0.7, 2013-01-15
         INPUT READ FROM UNIT  16
 #  Supply2 test problem for GWM-VI
 #  The eighth entry in the first data line is ISTCB2 -
 #    Setting this to a negative number indicates that
 #    streamflows out of the reach will be saved to a
 #    binary file.  The absolute value of ISTCB2 is the
 #    unit to which unformatted flows will be written.
 #
 No named parameters
 Segment information will not be 
 read by reach
 No named parameters
 No specifed inflow files


 NUMBER OF STREAM REACHES IS   40

 NUMBER OF STREAM SEGMENTS IS    3

 NUMBER OF STREAM PARAMETERS IS    0

 NUMBER OF STREAM SEGMENTS DEFINED USING PARAMETERS IS              0

 MAXIMUM ERROR FOR STREAM LEAKAGE RATES IS  1.00E-04

 CONSTANT FOR MANNINGS EQUATION IS  1.2839E+05





   STREAM NETWORK DESCRIPTION: 

   LAYER    ROW    COL   SEGMENT   REACH     LENGTH
                          NUMBER   NUMBER    IN CELL        
   --------------------------------------------------
      1     13      1       1        1    2.0000E+02
      1     13      2       1        2    2.0000E+02
      1     14      3       1        3    2.0000E+02
      1     15      4       1        4    2.0000E+02
      1     16      5       1        5    2.0000E+02
      1     16      6       1        6    2.0000E+02
      1     16      7       1        7    2.0000E+02
      1     16      8       1        8    2.0000E+02
      1     16      9       1        9    2.0000E+02
      1     16     10       1       10    2.0000E+02
      1     16     11       1       11    2.0000E+02
      1     16     12       1       12    2.0000E+02
      1     15     13       1       13    2.0000E+02
      1     14     14       1       14    2.0000E+02
      1     13     15       1       15    2.0000E+02
      1     12     16       1       16    2.0000E+02
      1     12     17       1       17    2.0000E+02
      1     12     18       1       18    2.0000E+02
      1     12     19       1       19    2.0000E+02
      1     13     20       1       20    2.0000E+02
      1     14     21       1       21    2.0000E+02
      1     14     22       1       22    2.0000E+02
      1      9     30       2        1    2.0000E+02
      1      9     29       2        2    2.0000E+02
      1      9     28       2        3    2.0000E+02
      1      9     27       2        4    2.0000E+02
      1     10     26       2        5    2.0000E+02
      1     11     25       2        6    2.0000E+02
      1     12     24       2        7    2.0000E+02
      1     13     23       2        8    2.0000E+02
      1     14     22       2        9    2.0000E+02
      1     14     22       3        1    2.0000E+02
      1     15     23       3        2    2.0000E+02
      1     15     24       3        3    2.0000E+02
      1     15     25       3        4    2.0000E+02
      1     15     26       3        5    2.0000E+02
      1     16     27       3        6    2.0000E+02
      1     17     28       3        7    2.0000E+02
      1     18     29       3        8    2.0000E+02
      1     18     30       3        9    2.0000E+02




 PCG -- CONJUGATE-GRADIENT SOLUTION PACKAGE, VERSION 7, 5/2/2005
 MAXIMUM OF    500 CALLS OF SOLUTION ROUTINE
 MAXIMUM OF      5 INTERNAL ITERATIONS PER CALL TO SOLUTION ROUTINE
 MATRIX PRECONDITIONING TYPE :    1



                                    SOLUTION BY THE CONJUGATE-GRADIENT METHOD
                                   -------------------------------------------
                    MAXIMUM NUMBER OF CALLS TO PCG ROUTINE =      500
                        MAXIMUM ITERATIONS PER CALL TO PCG =        5
                               MATRIX PRECONDITIONING TYPE =        1
        RELAXATION FACTOR (ONLY USED WITH PRECOND. TYPE 1) =    0.10000E+01
 PARAMETER OF POLYNOMIAL PRECOND. = 2 (2) OR IS CALCULATED :        0
                         HEAD CHANGE CRITERION FOR CLOSURE =    0.10000E-05
                     RESIDUAL CHANGE CRITERION FOR CLOSURE =    0.10000E+01
            PCG HEAD AND RESIDUAL CHANGE PRINTOUT INTERVAL =        1
     PRINTING FROM SOLVER IS LIMITED(1) OR SUPPRESSED (>1) =        1
                            STEADY-STATE DAMPING PARAMETER =    0.10000E+01
                               TRANSIENT DAMPING PARAMETER =    0.10000E+01
1
                            STRESS PERIOD NO.    1, LENGTH =   92.00000    
                            -----------------------------------------------

                              NUMBER OF TIME STEPS =     1

                               MULTIPLIER FOR DELT =     1.500

                            INITIAL TIME STEP SIZE =   92.00000    

 WELL NO.  LAYER   ROW   COL   STRESS RATE         
 --------------------------------------------------
      1      1     23      9     -0.3450E+05
      2      1      3      9     -0.3274E+05
      3      1      3     14     -0.3778E+05

      3 WELLS

                 RECHARGE =  5.000000E-04



 CLASSIFICATION & COUNT OF STREAM SEGMENTS BASED ON SOURCE OF INFLOW:

                HEADWATER     DIVERSION     RECEIVES TRIBUTARY FLOW
                ---------     ---------     -----------------------
                     2              0               1



                    INPUT DATA FOR EACH STREAM SEGMENT
 ---------------------------------------------------------------------------------------------

 SEGMENT    SEG.     INFLOW   OVERLAND   STREAM    STREAM   ICALC  OUTFLOW  DIVERSION PRIORITY
    NO.    LENGTH     RATE     RUNOFF      ET       PPT.    METH.  TO SEG.  FROM SEG.    NO.

      1  4.400E+03 1.000E+05 0.000E+00 0.000E+00 0.000E+00    1        3        0        0
      2  1.800E+03 5.000E+04 0.000E+00 0.000E+00 0.000E+00    1        3        0        0
      3  1.800E+03 0.000E+00 0.000E+00 0.000E+00 0.000E+00    1        0        0        0


         STREAMBED PROPERTIES AND STREAM DIMENSIONS

 SEGMENT     BED HYD. COND.      BED THICKNESS     ELEV.-TOP OF BED     WIDTH OF STREAM     DEPTH OF STREAM    STREAM ROUGHNESS
    No.     UPPER     LOWER     UPPER     LOWER     UPPER     LOWER     UPPER     LOWER     UPPER     LOWER   CHANNEL      BANK

     1  5.000E+00 5.000E+00 1.000E+00 1.000E+00 4.850E+01 3.800E+01 2.000E+01 2.000E+01                     5.000E-02
     2  5.000E+00 5.000E+00 1.000E+00 1.000E+00 4.025E+01 3.800E+01 2.000E+01 2.000E+01                     5.000E-02
     3  5.000E+00 5.000E+00 1.000E+00 1.000E+00 3.800E+01 3.000E+01 2.000E+01 2.000E+01                     5.000E-02



 
 SOLVING FOR HEAD 


     8 CALLS TO PCG ROUTINE FOR TIME STEP   1 IN STRESS PERIOD    1
    34 TOTAL ITERATIONS

 OUTPUT CONTROL FOR STRESS PERIOD    1   TIME STEP    1
    SAVE BUDGET
    SAVE HEAD FOR ALL LAYERS
    PRINT HEAD FOR ALL LAYERS
 UBDSV2 SAVING "STREAMFLOW OUT  " ON UNIT  50 AT TIME STEP  1, STRESS PERIOD   1



 STREAM LISTING     PERIOD      1   STEP        1

 LAYER ROW COL. STREAM  RCH.  FLOW INTO     FLOW TO   FLOW OUT OF   OVRLND.     DIRECT     STREAM       STREAM     STREAM     STREAM   STREAMBED  STREAMBED
                SEG.NO.  NO.  STRM. RCH.    AQUIFER    STRM. RCH.    RUNOFF     PRECIP       ET          HEAD       DEPTH      WIDTH   CONDCTNC.   GRADIENT

   1   13    1     1     1    1.0000E+05 -5.5678E+03   1.0557E+05  0.000E+00  0.000E+00  0.000E+00  4.84084E+01  1.471E-01  2.000E+01  2.000E+04 -2.784E-01
   1   13    2     1     2    1.0557E+05 -8.3111E+03   1.1388E+05  0.000E+00  0.000E+00  0.000E+00  4.79370E+01  1.529E-01  2.000E+01  2.000E+04 -4.156E-01
   1   14    3     1     3    1.1388E+05 -7.6166E+03   1.2150E+05  0.000E+00  0.000E+00  0.000E+00  4.74663E+01  1.595E-01  2.000E+01  2.000E+04 -3.808E-01
   1   15    4     1     4    1.2150E+05 -7.4190E+03   1.2891E+05  0.000E+00  0.000E+00  0.000E+00  4.69951E+01  1.655E-01  2.000E+01  2.000E+04 -3.710E-01
   1   16    5     1     5    1.2891E+05 -7.0615E+03   1.3598E+05  0.000E+00  0.000E+00  0.000E+00  4.65235E+01  1.712E-01  2.000E+01  2.000E+04 -3.531E-01
   1   16    6     1     6    1.3598E+05 -5.5802E+03   1.4156E+05  0.000E+00  0.000E+00  0.000E+00  4.60511E+01  1.761E-01  2.000E+01  2.000E+04 -2.790E-01
   1   16    7     1     7    1.4156E+05 -5.6445E+03   1.4720E+05  0.000E+00  0.000E+00  0.000E+00  4.55780E+01  1.803E-01  2.000E+01  2.000E+04 -2.822E-01
   1   16    8     1     8    1.4720E+05 -5.6721E+03   1.5287E+05  0.000E+00  0.000E+00  0.000E+00  4.51050E+01  1.845E-01  2.000E+01  2.000E+04 -2.836E-01
   1   16    9     1     9    1.5287E+05 -5.6656E+03   1.5854E+05  0.000E+00  0.000E+00  0.000E+00  4.46319E+01  1.887E-01  2.000E+01  2.000E+04 -2.833E-01
   1   16   10     1    10    1.5854E+05 -5.6394E+03   1.6418E+05  0.000E+00  0.000E+00  0.000E+00  4.41587E+01  1.928E-01  2.000E+01  2.000E+04 -2.820E-01
   1   16   11     1    11    1.6418E+05 -5.6197E+03   1.6980E+05  0.000E+00  0.000E+00  0.000E+00  4.36854E+01  1.968E-01  2.000E+01  2.000E+04 -2.810E-01
   1   16   12     1    12    1.6980E+05 -7.4183E+03   1.7722E+05  0.000E+00  0.000E+00  0.000E+00  4.32127E+01  2.013E-01  2.000E+01  2.000E+04 -3.709E-01
   1   15   13     1    13    1.7722E+05 -7.8790E+03   1.8509E+05  0.000E+00  0.000E+00  0.000E+00  4.27407E+01  2.066E-01  2.000E+01  2.000E+04 -3.939E-01
   1   14   14     1    14    1.8509E+05 -8.1086E+03   1.9320E+05  0.000E+00  0.000E+00  0.000E+00  4.22689E+01  2.120E-01  2.000E+01  2.000E+04 -4.054E-01
   1   13   15     1    15    1.9320E+05 -8.2561E+03   2.0146E+05  0.000E+00  0.000E+00  0.000E+00  4.17970E+01  2.175E-01  2.000E+01  2.000E+04 -4.128E-01
   1   12   16     1    16    2.0146E+05 -8.8355E+03   2.1029E+05  0.000E+00  0.000E+00  0.000E+00  4.13254E+01  2.231E-01  2.000E+01  2.000E+04 -4.418E-01
   1   12   17     1    17    2.1029E+05 -6.3474E+03   2.1664E+05  0.000E+00  0.000E+00  0.000E+00  4.08530E+01  2.280E-01  2.000E+01  2.000E+04 -3.174E-01
   1   12   18     1    18    2.1664E+05 -6.2436E+03   2.2289E+05  0.000E+00  0.000E+00  0.000E+00  4.03797E+01  2.320E-01  2.000E+01  2.000E+04 -3.122E-01
   1   12   19     1    19    2.2289E+05 -7.9174E+03   2.3080E+05  0.000E+00  0.000E+00  0.000E+00  3.99069E+01  2.365E-01  2.000E+01  2.000E+04 -3.959E-01
   1   13   20     1    20    2.3080E+05 -6.6707E+03   2.3747E+05  0.000E+00  0.000E+00  0.000E+00  3.94342E+01  2.410E-01  2.000E+01  2.000E+04 -3.335E-01
   1   14   21     1    21    2.3747E+05 -5.6322E+03   2.4311E+05  0.000E+00  0.000E+00  0.000E+00  3.89607E+01  2.448E-01  2.000E+01  2.000E+04 -2.816E-01
   1   14   22     1    22    2.4311E+05  4.3222E+03   2.3878E+05  0.000E+00  0.000E+00  0.000E+00  3.84838E+01  2.452E-01  2.000E+01  2.000E+04  2.161E-01
   1    9   30     2     1    5.0000E+04 -5.5615E+03   5.5562E+04  0.000E+00  0.000E+00  0.000E+00  4.02447E+01  1.197E-01  2.000E+01  2.000E+04 -2.781E-01
   1    9   29     2     2    5.5562E+04 -5.8580E+03   6.1420E+04  0.000E+00  0.000E+00  0.000E+00  4.00023E+01  1.273E-01  2.000E+01  2.000E+04 -2.929E-01
   1    9   28     2     3    6.1420E+04 -6.1756E+03   6.7595E+04  0.000E+00  0.000E+00  0.000E+00  3.97600E+01  1.350E-01  2.000E+01  2.000E+04 -3.088E-01
   1    9   27     2     4    6.7595E+04 -9.5284E+03   7.7124E+04  0.000E+00  0.000E+00  0.000E+00  3.95196E+01  1.446E-01  2.000E+01  2.000E+04 -4.764E-01
   1   10   26     2     5    7.7124E+04 -7.6525E+03   8.4776E+04  0.000E+00  0.000E+00  0.000E+00  3.92797E+01  1.547E-01  2.000E+01  2.000E+04 -3.826E-01
   1   11   25     2     6    8.4776E+04 -6.5202E+03   9.1296E+04  0.000E+00  0.000E+00  0.000E+00  3.90377E+01  1.627E-01  2.000E+01  2.000E+04 -3.260E-01
   1   12   24     2     7    9.1296E+04 -5.2649E+03   9.6561E+04  0.000E+00  0.000E+00  0.000E+00  3.87941E+01  1.691E-01  2.000E+01  2.000E+04 -2.632E-01
   1   13   23     2     8    9.6561E+04 -3.7418E+03   1.0030E+05  0.000E+00  0.000E+00  0.000E+00  3.85490E+01  1.740E-01  2.000E+01  2.000E+04 -1.871E-01
   1   14   22     2     9    1.0030E+05  6.5782E+02   9.9645E+04  0.000E+00  0.000E+00  0.000E+00  3.83006E+01  1.756E-01  2.000E+01  2.000E+04  3.289E-02
   1   14   22     3     1    3.3843E+05 -9.2133E+03   3.4764E+05  0.000E+00  0.000E+00  0.000E+00  3.78070E+01  2.515E-01  2.000E+01  2.000E+04 -4.607E-01
   1   15   23     3     2    3.4764E+05 -6.0297E+03   3.5367E+05  0.000E+00  0.000E+00  0.000E+00  3.69215E+01  2.548E-01  2.000E+01  2.000E+04 -3.015E-01
   1   15   24     3     3    3.5367E+05 -4.3671E+03   3.5804E+05  0.000E+00  0.000E+00  0.000E+00  3.60349E+01  2.571E-01  2.000E+01  2.000E+04 -2.184E-01
   1   15   25     3     4    3.5804E+05 -4.3585E+03   3.6240E+05  0.000E+00  0.000E+00  0.000E+00  3.51479E+01  2.590E-01  2.000E+01  2.000E+04 -2.179E-01
   1   15   26     3     5    3.6240E+05 -5.6754E+03   3.6807E+05  0.000E+00  0.000E+00  0.000E+00  3.42611E+01  2.611E-01  2.000E+01  2.000E+04 -2.838E-01
   1   16   27     3     6    3.6807E+05 -7.2913E+03   3.7536E+05  0.000E+00  0.000E+00  0.000E+00  3.33750E+01  2.639E-01  2.000E+01  2.000E+04 -3.646E-01
   1   17   28     3     7    3.7536E+05 -8.0733E+03   3.8344E+05  0.000E+00  0.000E+00  0.000E+00  3.24894E+01  2.672E-01  2.000E+01  2.000E+04 -4.037E-01
   1   18   29     3     8    3.8344E+05 -9.1229E+03   3.9256E+05  0.000E+00  0.000E+00  0.000E+00  3.16041E+01  2.708E-01  2.000E+01  2.000E+04 -4.561E-01
   1   18   30     3     9    3.9256E+05 -7.5401E+03   4.0010E+05  0.000E+00  0.000E+00  0.000E+00  3.07187E+01  2.742E-01  2.000E+01  2.000E+04 -3.770E-01



1
              HEAD IN LAYER   1 AT END OF TIME STEP   1 IN STRESS PERIOD    1
  ---------------------------------------------------------------------------

          1      2      3      4      5      6      7      8      9     10
         11     12     13     14     15     16     17     18     19     20
         21     22     23     24     25     26     27     28     29     30
 .........................................................................
   1  ****** ****** ****** ****** ****** ****** ****** ****** ****** ******
      ****** ****** ****** ****** ****** ****** ****** ****** ****** ******
      ****** ****** ****** ****** ****** ****** ****** ****** ****** ******
   2  ****** ****** ****** ****** ****** ****** ****** ****** ****** ******
      ****** ****** ****** ****** ****** ****** ****** ****** ****** ******
      ****** ****** ****** ****** ****** ****** ****** ****** ****** ******
   3  ****** ****** ****** ****** ****** ****** ****** ****** ****** ******
      ****** ****** ****** ****** ****** ****** ****** ****** ****** ******
      ****** ****** ****** ****** ****** ****** ****** ****** ****** ******
   4  ****** ****** ****** ****** ****** ****** ****** ****** ****** ******
      ****** ****** ****** ****** ****** ****** ****** ****** ****** ******
      ****** ****** ****** ****** ****** ****** ****** ****** ****** ******
   5  ****** ****** ****** ****** ****** ****** ****** ****** ****** ******
      ****** ****** ****** ****** ****** ****** ****** ****** ****** ******
      ****** ****** ****** ****** ****** ****** ****** ****** ****** ******
   6  ****** ****** ****** ****** ****** ****** ****** ****** ****** ******
      ****** ****** ****** ****** ****** ****** ****** ****** ****** ******
      ****** ****** ****** ****** ****** ****** ****** ****** ****** ******
   7  ****** ****** ****** ****** ****** ****** ****** ****** ****** ******
      ****** ****** ****** ****** ****** ****** ****** ****** ****** ******
      ****** ****** ****** ****** ****** ****** ****** ****** ****** ******
   8  ****** ****** ****** ****** ****** ****** ****** ****** ****** ******
      ****** ****** ****** ****** ****** ****** ****** ****** ****** ******
      ****** ****** ****** ****** ****** ****** ****** ****** ****** ******
   9  ****** ****** ****** ****** ****** ****** ****** ****** ****** ******
      ****** ****** ****** ****** ****** ****** ****** ****** ****** ******
      ****** ****** ****** ****** ****** ****** ****** ****** ****** ******
  10  ****** ****** ****** ****** ****** ****** ****** ****** ****** ******
      ****** ****** ****** ****** ****** ****** ****** ****** ****** ******
      ****** ****** ****** ****** ****** ****** ****** ****** ****** ******
  11  ****** ****** ****** ****** ****** ****** ****** ****** ****** ******
      ****** ****** ****** ****** ****** ****** ****** ****** ****** ******
      ****** ****** ****** ****** ****** ****** ****** ****** ****** ******
  12  ****** ****** ****** ****** ****** ****** ****** ****** ****** ******
      ****** ****** ****** ****** ****** ****** ****** ****** ****** ******
      ****** ****** ****** ****** ****** ****** ****** ****** ****** ******
  13  ****** ****** ****** ****** ****** ****** ****** ****** ****** ******
      ****** ****** ****** ****** ****** ****** ****** ****** ****** ******
      ****** ****** ****** ****** ****** ****** ****** ****** ****** ******
  14  ****** ****** ****** ****** ****** ****** ****** ****** ****** ******
      ****** ****** ****** ****** ****** ****** ****** ****** ****** ******
      ****** ****** ****** ****** ****** ****** ****** ****** ****** ******
  15  ****** ****** ****** ****** ****** ****** ****** ****** ****** ******
      ****** ****** ****** ****** ****** ****** ****** ****** ****** ******
      ****** ****** ****** ****** ****** ****** ****** ****** ****** ******
  16  ****** ****** ****** ****** ****** ****** ****** ****** ****** ******
      ****** ****** ****** ****** ****** ****** ****** ****** ****** ******
      ****** ****** ****** ****** ****** ****** ****** ****** ****** ******
  17  ****** ****** ****** ****** ****** ****** ****** ****** ****** ******
      ****** ****** ****** ****** ****** ****** ****** ****** ****** ******
      ****** ****** ****** ****** ****** ****** ****** ****** ****** ******
  18  ****** ****** ****** ****** ****** ****** ****** ****** ****** ******
      ****** ****** ****** ****** ****** ****** ****** ****** ****** ******
      ****** ****** ****** ****** ****** ****** ****** ****** ****** ******
  19  ****** ****** ****** ****** ****** ****** ****** ****** ****** ******
      ****** ****** ****** ****** ****** ****** ****** ****** ****** ******
      ****** ****** ****** ****** ****** ****** ****** ****** ****** ******
  20  ****** ****** ****** ****** ****** ****** ****** ****** ****** ******
      ****** ****** ****** ****** ****** ****** ****** ****** ****** ******
      ****** ****** ****** ****** ****** ****** ****** ****** ****** ******
  21  ****** ****** ****** ****** ****** ****** ****** ****** ****** ******
      ****** ****** ****** ****** ****** ****** ****** ****** ****** ******
      ****** ****** ****** ****** ****** ****** ****** ****** ****** ******
  22  ****** ****** ****** ****** ****** ****** ****** ****** ****** ******
      ****** ****** ****** ****** ****** ****** ****** ****** ****** ******
      ****** ****** ****** ****** ****** ****** ****** ****** ****** ******
  23  ****** ****** ****** ****** ****** ****** ****** ****** ****** ******
      ****** ****** ****** ****** ****** ****** ****** ****** ****** ******
      ****** ****** ****** ****** ****** ****** ****** ****** ****** ******
  24  ****** ****** ****** ****** ****** ****** ****** ****** ****** ******
      ****** ****** ****** ****** ****** ****** ****** ****** ****** ******
      ****** ****** ****** ****** ****** ****** ****** ****** ****** ******
  25  ****** ****** ****** ****** ****** ****** ****** ****** ****** ******
      ****** ****** ****** ****** ****** ****** ****** ****** ****** ******
      ****** ****** ****** ****** ****** ****** ****** ****** ****** ******

 HEAD WILL BE SAVED ON UNIT   51 AT END OF TIME STEP    1, STRESS PERIOD    1
1
  VOLUMETRIC BUDGET FOR ENTIRE MODEL AT END OF TIME STEP    1, STRESS PERIOD   1
  ------------------------------------------------------------------------------

     CUMULATIVE VOLUMES      L**3       RATES FOR THIS TIME STEP      L**3/T
     ------------------                 ------------------------

           IN:                                      IN:
           ---                                      ---
             STORAGE =    17853129.2743               STORAGE =      194055.7530
       CONSTANT HEAD =    13548559.5166         CONSTANT HEAD =      147266.9513
               WELLS =           0.0000                 WELLS =           0.0000
            RECHARGE =     1269600.0000              RECHARGE =       13800.0000
      STREAM LEAKAGE =      458160.6747        STREAM LEAKAGE =        4980.0073

            TOTAL IN =    33129449.4657              TOTAL IN =      360102.7116

          OUT:                                     OUT:
          ----                                     ----
             STORAGE =           0.0000               STORAGE =           0.0000
       CONSTANT HEAD =           0.0000         CONSTANT HEAD =           0.0000
               WELLS =     9662020.8429                 WELLS =      105021.9657
            RECHARGE =           0.0000              RECHARGE =           0.0000
      STREAM LEAKAGE =    23467428.7601        STREAM LEAKAGE =      255080.7474

           TOTAL OUT =    33129449.6030             TOTAL OUT =      360102.7131

            IN - OUT =          -0.1374              IN - OUT =      -1.4930E-03

 PERCENT DISCREPANCY =          -0.00     PERCENT DISCREPANCY =          -0.00






         TIME SUMMARY AT END OF TIME STEP    1 IN STRESS PERIOD    1
                    SECONDS     MINUTES      HOURS       DAYS        YEARS
                    -----------------------------------------------------------
   TIME STEP LENGTH 7.94880E+06 1.32480E+05  2208.0      92.000     0.25188    
 STRESS PERIOD TIME 7.94880E+06 1.32480E+05  2208.0      92.000     0.25188    
         TOTAL TIME 7.94880E+06 1.32480E+05  2208.0      92.000     0.25188    
1
1
                            STRESS PERIOD NO.    2, LENGTH =   91.00000    
                            -----------------------------------------------

                              NUMBER OF TIME STEPS =     1

                               MULTIPLIER FOR DELT =     1.500

                            INITIAL TIME STEP SIZE =   91.00000    

 WELL NO.  LAYER   ROW   COL   STRESS RATE         
 --------------------------------------------------
      1      1     23      9     -0.3450E+05
      2      1      3      9     -0.3274E+05
      3      1      3     14     -0.3778E+05

      3 WELLS

                 RECHARGE =  2.000000E-03

 REUSING STREAM SEGMENT DATA FROM LAST STRESS PERIOD
 
 SOLVING FOR HEAD 


     7 CALLS TO PCG ROUTINE FOR TIME STEP   1 IN STRESS PERIOD    2
    27 TOTAL ITERATIONS

 OUTPUT CONTROL FOR STRESS PERIOD    2   TIME STEP    1
    SAVE BUDGET
    SAVE HEAD FOR ALL LAYERS
    PRINT HEAD FOR ALL LAYERS
 UBDSV2 SAVING "STREAMFLOW OUT  " ON UNIT  50 AT TIME STEP  1, STRESS PERIOD   2



 STREAM LISTING     PERIOD      2   STEP        1

 LAYER ROW COL. STREAM  RCH.  FLOW INTO     FLOW TO   FLOW OUT OF   OVRLND.     DIRECT     STREAM       STREAM     STREAM     STREAM   STREAMBED  STREAMBED
                SEG.NO.  NO.  STRM. RCH.    AQUIFER    STRM. RCH.    RUNOFF     PRECIP       ET          HEAD       DEPTH      WIDTH   CONDCTNC.   GRADIENT

   1   13    1     1     1    1.0000E+05 -3.4853E+03   1.0349E+05  0.000E+00  0.000E+00  0.000E+00  4.84075E+01  1.462E-01  2.000E+01  2.000E+04 -1.743E-01
   1   13    2     1     2    1.0349E+05 -5.6338E+03   1.0912E+05  0.000E+00  0.000E+00  0.000E+00  4.79341E+01  1.501E-01  2.000E+01  2.000E+04 -2.817E-01
   1   14    3     1     3    1.0912E+05 -4.6706E+03   1.1379E+05  0.000E+00  0.000E+00  0.000E+00  4.74612E+01  1.544E-01  2.000E+01  2.000E+04 -2.335E-01
   1   15    4     1     4    1.1379E+05 -4.4948E+03   1.1828E+05  0.000E+00  0.000E+00  0.000E+00  4.69877E+01  1.582E-01  2.000E+01  2.000E+04 -2.247E-01
   1   16    5     1     5    1.1828E+05 -4.4988E+03   1.2278E+05  0.000E+00  0.000E+00  0.000E+00  4.65141E+01  1.618E-01  2.000E+01  2.000E+04 -2.249E-01
   1   16    6     1     6    1.2278E+05 -3.4615E+03   1.2624E+05  0.000E+00  0.000E+00  0.000E+00  4.60400E+01  1.650E-01  2.000E+01  2.000E+04 -1.731E-01
   1   16    7     1     7    1.2624E+05 -3.4605E+03   1.2971E+05  0.000E+00  0.000E+00  0.000E+00  4.55655E+01  1.677E-01  2.000E+01  2.000E+04 -1.730E-01
   1   16    8     1     8    1.2971E+05 -3.4441E+03   1.3315E+05  0.000E+00  0.000E+00  0.000E+00  4.50909E+01  1.704E-01  2.000E+01  2.000E+04 -1.722E-01
   1   16    9     1     9    1.3315E+05 -3.4214E+03   1.3657E+05  0.000E+00  0.000E+00  0.000E+00  4.46163E+01  1.731E-01  2.000E+01  2.000E+04 -1.711E-01
   1   16   10     1    10    1.3657E+05 -3.4095E+03   1.3998E+05  0.000E+00  0.000E+00  0.000E+00  4.41416E+01  1.757E-01  2.000E+01  2.000E+04 -1.705E-01
   1   16   11     1    11    1.3998E+05 -3.4332E+03   1.4341E+05  0.000E+00  0.000E+00  0.000E+00  4.36669E+01  1.783E-01  2.000E+01  2.000E+04 -1.717E-01
   1   16   12     1    12    1.4341E+05 -4.7545E+03   1.4817E+05  0.000E+00  0.000E+00  0.000E+00  4.31927E+01  1.814E-01  2.000E+01  2.000E+04 -2.377E-01
   1   15   13     1    13    1.4817E+05 -4.7809E+03   1.5295E+05  0.000E+00  0.000E+00  0.000E+00  4.27190E+01  1.849E-01  2.000E+01  2.000E+04 -2.390E-01
   1   14   14     1    14    1.5295E+05 -4.8687E+03   1.5782E+05  0.000E+00  0.000E+00  0.000E+00  4.22453E+01  1.884E-01  2.000E+01  2.000E+04 -2.434E-01
   1   13   15     1    15    1.5782E+05 -5.0107E+03   1.6283E+05  0.000E+00  0.000E+00  0.000E+00  4.17716E+01  1.920E-01  2.000E+01  2.000E+04 -2.505E-01
   1   12   16     1    16    1.6283E+05 -5.8294E+03   1.6866E+05  0.000E+00  0.000E+00  0.000E+00  4.12982E+01  1.959E-01  2.000E+01  2.000E+04 -2.915E-01
   1   12   17     1    17    1.6866E+05 -4.0472E+03   1.7270E+05  0.000E+00  0.000E+00  0.000E+00  4.08244E+01  1.994E-01  2.000E+01  2.000E+04 -2.024E-01
   1   12   18     1    18    1.7270E+05 -3.9912E+03   1.7670E+05  0.000E+00  0.000E+00  0.000E+00  4.03499E+01  2.022E-01  2.000E+01  2.000E+04 -1.996E-01
   1   12   19     1    19    1.7670E+05 -5.2181E+03   1.8191E+05  0.000E+00  0.000E+00  0.000E+00  3.98758E+01  2.053E-01  2.000E+01  2.000E+04 -2.609E-01
   1   13   20     1    20    1.8191E+05 -3.9365E+03   1.8585E+05  0.000E+00  0.000E+00  0.000E+00  3.94017E+01  2.085E-01  2.000E+01  2.000E+04 -1.968E-01
   1   14   21     1    21    1.8585E+05 -3.2912E+03   1.8914E+05  0.000E+00  0.000E+00  0.000E+00  3.89268E+01  2.109E-01  2.000E+01  2.000E+04 -1.646E-01
   1   14   22     1    22    1.8914E+05  4.8483E+03   1.8429E+05  0.000E+00  0.000E+00  0.000E+00  3.84490E+01  2.104E-01  2.000E+01  2.000E+04  2.424E-01
   1    9   30     2     1    5.0000E+04 -3.4370E+03   5.3437E+04  0.000E+00  0.000E+00  0.000E+00  4.02432E+01  1.182E-01  2.000E+01  2.000E+04 -1.719E-01
   1    9   29     2     2    5.3437E+04 -3.7563E+03   5.7193E+04  0.000E+00  0.000E+00  0.000E+00  3.99981E+01  1.231E-01  2.000E+01  2.000E+04 -1.878E-01
   1    9   28     2     3    5.7193E+04 -4.1194E+03   6.1313E+04  0.000E+00  0.000E+00  0.000E+00  3.97533E+01  1.283E-01  2.000E+01  2.000E+04 -2.060E-01
   1    9   27     2     4    6.1313E+04 -7.0489E+03   6.8362E+04  0.000E+00  0.000E+00  0.000E+00  3.95104E+01  1.354E-01  2.000E+01  2.000E+04 -3.524E-01
   1   10   26     2     5    6.8362E+04 -4.7085E+03   7.3070E+04  0.000E+00  0.000E+00  0.000E+00  3.92677E+01  1.427E-01  2.000E+01  2.000E+04 -2.354E-01
   1   11   25     2     6    7.3070E+04 -3.6011E+03   7.6671E+04  0.000E+00  0.000E+00  0.000E+00  3.90226E+01  1.476E-01  2.000E+01  2.000E+04 -1.801E-01
   1   12   24     2     7    7.6671E+04 -2.6170E+03   7.9288E+04  0.000E+00  0.000E+00  0.000E+00  3.87763E+01  1.513E-01  2.000E+01  2.000E+04 -1.308E-01
   1   13   23     2     8    7.9288E+04 -1.6132E+03   8.0902E+04  0.000E+00  0.000E+00  0.000E+00  3.85287E+01  1.537E-01  2.000E+01  2.000E+04 -8.066E-02
   1   14   22     2     9    8.0902E+04  1.4440E+03   7.9457E+04  0.000E+00  0.000E+00  0.000E+00  3.82788E+01  1.538E-01  2.000E+01  2.000E+04  7.220E-02
   1   14   22     3     1    2.6375E+05 -8.6831E+03   2.7243E+05  0.000E+00  0.000E+00  0.000E+00  3.77725E+01  2.169E-01  2.000E+01  2.000E+04 -4.342E-01
   1   15   23     3     2    2.7243E+05 -3.9400E+03   2.7637E+05  0.000E+00  0.000E+00  0.000E+00  3.68866E+01  2.200E-01  2.000E+01  2.000E+04 -1.970E-01
   1   15   24     3     3    2.7637E+05 -2.6712E+03   2.7905E+05  0.000E+00  0.000E+00  0.000E+00  3.59993E+01  2.215E-01  2.000E+01  2.000E+04 -1.336E-01
   1   15   25     3     4    2.7905E+05 -2.5281E+03   2.8157E+05  0.000E+00  0.000E+00  0.000E+00  3.51117E+01  2.228E-01  2.000E+01  2.000E+04 -1.264E-01
   1   15   26     3     5    2.8157E+05 -3.0711E+03   2.8464E+05  0.000E+00  0.000E+00  0.000E+00  3.42241E+01  2.241E-01  2.000E+01  2.000E+04 -1.536E-01
   1   16   27     3     6    2.8464E+05 -4.2627E+03   2.8891E+05  0.000E+00  0.000E+00  0.000E+00  3.33370E+01  2.259E-01  2.000E+01  2.000E+04 -2.131E-01
   1   17   28     3     7    2.8891E+05 -5.0985E+03   2.9401E+05  0.000E+00  0.000E+00  0.000E+00  3.24503E+01  2.281E-01  2.000E+01  2.000E+04 -2.549E-01
   1   18   29     3     8    2.9401E+05 -6.6898E+03   3.0070E+05  0.000E+00  0.000E+00  0.000E+00  3.15641E+01  2.308E-01  2.000E+01  2.000E+04 -3.345E-01
   1   18   30     3     9    3.0070E+05 -5.4737E+03   3.0617E+05  0.000E+00  0.000E+00  0.000E+00  3.06781E+01  2.336E-01  2.000E+01  2.000E+04 -2.737E-01



1
              HEAD IN LAYER   1 AT END OF TIME STEP   1 IN STRESS PERIOD    2
  ---------------------------------------------------------------------------

          1      2      3      4      5      6      7      8      9     10
         11     12     13     14     15     16     17     18     19     20
         21     22     23     24     25     26     27     28     29     30
 .........................................................................
   1  ****** ****** ****** ****** ****** ****** ****** ****** ****** ******
      ****** ****** ****** ****** ****** ****** ****** ****** ****** ******
      ****** ****** ****** ****** ****** ****** ****** ****** ****** ******
   2  ****** ****** ****** ****** ****** ****** ****** ****** ****** ******
      ****** ****** ****** ****** ****** ****** ****** ****** ****** ******
      ****** ****** ****** ****** ****** ****** ****** ****** ****** ******
   3  ****** ****** ****** ****** ****** ****** ****** ****** ****** ******
      ****** ****** ****** ****** ****** ****** ****** ****** ****** ******
      ****** ****** ****** ****** ****** ****** ****** ****** ****** ******
   4  ****** ****** ****** ****** ****** ****** ****** ****** ****** ******
      ****** ****** ****** ****** ****** ****** ****** ****** ****** ******
      ****** ****** ****** ****** ****** ****** ****** ****** ****** ******
   5  ****** ****** ****** ****** ****** ****** ****** ****** ****** ******
      ****** ****** ****** ****** ****** ****** ****** ****** ****** ******
      ****** ****** ****** ****** ****** ****** ****** ****** ****** ******
   6  ****** ****** ****** ****** ****** ****** ****** ****** ****** ******
      ****** ****** ****** ****** ****** ****** ****** ****** ****** ******
      ****** ****** ****** ****** ****** ****** ****** ****** ****** ******
   7  ****** ****** ****** ****** ****** ****** ****** ****** ****** ******
      ****** ****** ****** ****** ****** ****** ****** ****** ****** ******
      ****** ****** ****** ****** ****** ****** ****** ****** ****** ******
   8  ****** ****** ****** ****** ****** ****** ****** ****** ****** ******
      ****** ****** ****** ****** ****** ****** ****** ****** ****** ******
      ****** ****** ****** ****** ****** ****** ****** ****** ****** ******
   9  ****** ****** ****** ****** ****** ****** ****** ****** ****** ******
      ****** ****** ****** ****** ****** ****** ****** ****** ****** ******
      ****** ****** ****** ****** ****** ****** ****** ****** ****** ******
  10  ****** ****** ****** ****** ****** ****** ****** ****** ****** ******
      ****** ****** ****** ****** ****** ****** ****** ****** ****** ******
      ****** ****** ****** ****** ****** ****** ****** ****** ****** ******
  11  ****** ****** ****** ****** ****** ****** ****** ****** ****** ******
      ****** ****** ****** ****** ****** ****** ****** ****** ****** ******
      ****** ****** ****** ****** ****** ****** ****** ****** ****** ******
  12  ****** ****** ****** ****** ****** ****** ****** ****** ****** ******
      ****** ****** ****** ****** ****** ****** ****** ****** ****** ******
      ****** ****** ****** ****** ****** ****** ****** ****** ****** ******
  13  ****** ****** ****** ****** ****** ****** ****** ****** ****** ******
      ****** ****** ****** ****** ****** ****** ****** ****** ****** ******
      ****** ****** ****** ****** ****** ****** ****** ****** ****** ******
  14  ****** ****** ****** ****** ****** ****** ****** ****** ****** ******
      ****** ****** ****** ****** ****** ****** ****** ****** ****** ******
      ****** ****** ****** ****** ****** ****** ****** ****** ****** ******
  15  ****** ****** ****** ****** ****** ****** ****** ****** ****** ******
      ****** ****** ****** ****** ****** ****** ****** ****** ****** ******
      ****** ****** ****** ****** ****** ****** ****** ****** ****** ******
  16  ****** ****** ****** ****** ****** ****** ****** ****** ****** ******
      ****** ****** ****** ****** ****** ****** ****** ****** ****** ******
      ****** ****** ****** ****** ****** ****** ****** ****** ****** ******
  17  ****** ****** ****** ****** ****** ****** ****** ****** ****** ******
      ****** ****** ****** ****** ****** ****** ****** ****** ****** ******
      ****** ****** ****** ****** ****** ****** ****** ****** ****** ******
  18  ****** ****** ****** ****** ****** ****** ****** ****** ****** ******
      ****** ****** ****** ****** ****** ****** ****** ****** ****** ******
      ****** ****** ****** ****** ****** ****** ****** ****** ****** ******
  19  ****** ****** ****** ****** ****** ****** ****** ****** ****** ******
      ****** ****** ****** ****** ****** ****** ****** ****** ****** ******
      ****** ****** ****** ****** ****** ****** ****** ****** ****** ******
  20  ****** ****** ****** ****** ****** ****** ****** ****** ****** ******
      ****** ****** ****** ****** ****** ****** ****** ****** ****** ******
      ****** ****** ****** ****** ****** ****** ****** ****** ****** ******
  21  ****** ****** ****** ****** ****** ****** ****** ****** ****** ******
      ****** ****** ****** ****** ****** ****** ****** ****** ****** ******
      ****** ****** ****** ****** ****** ****** ****** ****** ****** ******
  22  ****** ****** ****** ****** ****** ****** ****** ****** ****** ******
      ****** ****** ****** ****** ****** ****** ****** ****** ****** ******
      ****** ****** ****** ****** ****** ****** ****** ****** ****** ******
  23  ****** ****** ****** ****** ****** ****** ****** ****** ****** ******
      ****** ****** ****** ****** ****** ****** ****** ****** ****** ******
      ****** ****** ****** ****** ****** ****** ****** ****** ****** ******
  24  ****** ****** ****** ****** ****** ****** ****** ****** ****** ******
      ****** ****** ****** ****** ****** ****** ****** ****** ****** ******
      ****** ****** ****** ****** ****** ****** ****** ****** ****** ******
  25  ****** ****** ****** ****** ****** ****** ****** ****** ****** ******
      ****** ****** ****** ****** ****** ****** ****** ****** ****** ******
      ****** ****** ****** ****** ****** ****** ****** ****** ****** ******

 HEAD WILL BE SAVED ON UNIT   51 AT END OF TIME STEP    1, STRESS PERIOD    2
1
  VOLUMETRIC BUDGET FOR ENTIRE MODEL AT END OF TIME STEP    1, STRESS PERIOD   2
  ------------------------------------------------------------------------------

     CUMULATIVE VOLUMES      L**3       RATES FOR THIS TIME STEP      L**3/T
     ------------------                 ------------------------

           IN:                                      IN:
           ---                                      ---
             STORAGE =    21156696.7040               STORAGE =       36302.9388
       CONSTANT HEAD =    28990206.1407         CONSTANT HEAD =      169688.4244
               WELLS =           0.0000                 WELLS =           0.0000
            RECHARGE =     6292800.0000              RECHARGE =       55200.0000
      STREAM LEAKAGE =     1030760.0891        STREAM LEAKAGE =        6292.3013

            TOTAL IN =    57470462.9337              TOTAL IN =      267483.6645

          OUT:                                     OUT:
          ----                                     ----
             STORAGE =           0.0000               STORAGE =           0.0000
       CONSTANT HEAD =           0.0000         CONSTANT HEAD =           0.0000
               WELLS =    19219019.7201                 WELLS =      105021.9657
            RECHARGE =           0.0000              RECHARGE =           0.0000
      STREAM LEAKAGE =    38251443.8318        STREAM LEAKAGE =      162461.7041

           TOTAL OUT =    57470463.5519             TOTAL OUT =      267483.6698

            IN - OUT =          -0.6182              IN - OUT =      -5.2840E-03

 PERCENT DISCREPANCY =          -0.00     PERCENT DISCREPANCY =          -0.00






         TIME SUMMARY AT END OF TIME STEP    1 IN STRESS PERIOD    2
                    SECONDS     MINUTES      HOURS       DAYS        YEARS
                    -----------------------------------------------------------
   TIME STEP LENGTH 7.86240E+06 1.31040E+05  2184.0      91.000     0.24914    
 STRESS PERIOD TIME 7.86240E+06 1.31040E+05  2184.0      91.000     0.24914    
         TOTAL TIME 1.58112E+07 2.63520E+05  4392.0      183.00     0.50103    
1
1
                            STRESS PERIOD NO.    3, LENGTH =   91.00000    
                            -----------------------------------------------

                              NUMBER OF TIME STEPS =     1

                               MULTIPLIER FOR DELT =     1.500

                            INITIAL TIME STEP SIZE =   91.00000    

 WELL NO.  LAYER   ROW   COL   STRESS RATE         
 --------------------------------------------------
      1      1     23      9     -0.3450E+05
      2      1      3      9     -0.3274E+05
      3      1      3     14     -0.3778E+05

      3 WELLS

                 RECHARGE =   0.00000    

 REUSING STREAM SEGMENT DATA FROM LAST STRESS PERIOD
 
 SOLVING FOR HEAD 


     7 CALLS TO PCG ROUTINE FOR TIME STEP   1 IN STRESS PERIOD    3
    27 TOTAL ITERATIONS

 OUTPUT CONTROL FOR STRESS PERIOD    3   TIME STEP    1
    SAVE BUDGET
    SAVE HEAD FOR ALL LAYERS
    PRINT HEAD FOR ALL LAYERS
 UBDSV2 SAVING "STREAMFLOW OUT  " ON UNIT  50 AT TIME STEP  1, STRESS PERIOD   3



 STREAM LISTING     PERIOD      3   STEP        1

 LAYER ROW COL. STREAM  RCH.  FLOW INTO     FLOW TO   FLOW OUT OF   OVRLND.     DIRECT     STREAM       STREAM     STREAM     STREAM   STREAMBED  STREAMBED
                SEG.NO.  NO.  STRM. RCH.    AQUIFER    STRM. RCH.    RUNOFF     PRECIP       ET          HEAD       DEPTH      WIDTH   CONDCTNC.   GRADIENT

   1   13    1     1     1    1.0000E+05 -2.4724E+03   1.0247E+05  0.000E+00  0.000E+00  0.000E+00  4.84071E+01  1.457E-01  2.000E+01  2.000E+04 -1.236E-01
   1   13    2     1     2    1.0247E+05 -4.2257E+03   1.0670E+05  0.000E+00  0.000E+00  0.000E+00  4.79327E+01  1.486E-01  2.000E+01  2.000E+04 -2.113E-01
   1   14    3     1     3    1.0670E+05 -3.3043E+03   1.1000E+05  0.000E+00  0.000E+00  0.000E+00  4.74586E+01  1.518E-01  2.000E+01  2.000E+04 -1.652E-01
   1   15    4     1     4    1.1000E+05 -3.1640E+03   1.1317E+05  0.000E+00  0.000E+00  0.000E+00  4.69840E+01  1.545E-01  2.000E+01  2.000E+04 -1.582E-01
   1   16    5     1     5    1.1317E+05 -3.2986E+03   1.1647E+05  0.000E+00  0.000E+00  0.000E+00  4.65094E+01  1.572E-01  2.000E+01  2.000E+04 -1.649E-01
   1   16    6     1     6    1.1647E+05 -2.5002E+03   1.1897E+05  0.000E+00  0.000E+00  0.000E+00  4.60345E+01  1.595E-01  2.000E+01  2.000E+04 -1.250E-01
   1   16    7     1     7    1.1897E+05 -2.4693E+03   1.2143E+05  0.000E+00  0.000E+00  0.000E+00  4.55593E+01  1.615E-01  2.000E+01  2.000E+04 -1.235E-01
   1   16    8     1     8    1.2143E+05 -2.4347E+03   1.2387E+05  0.000E+00  0.000E+00  0.000E+00  4.50840E+01  1.635E-01  2.000E+01  2.000E+04 -1.217E-01
   1   16    9     1     9    1.2387E+05 -2.4092E+03   1.2628E+05  0.000E+00  0.000E+00  0.000E+00  4.46086E+01  1.654E-01  2.000E+01  2.000E+04 -1.205E-01
   1   16   10     1    10    1.2628E+05 -2.4101E+03   1.2869E+05  0.000E+00  0.000E+00  0.000E+00  4.41332E+01  1.673E-01  2.000E+01  2.000E+04 -1.205E-01
   1   16   11     1    11    1.2869E+05 -2.4575E+03   1.3115E+05  0.000E+00  0.000E+00  0.000E+00  4.36579E+01  1.692E-01  2.000E+01  2.000E+04 -1.229E-01
   1   16   12     1    12    1.3115E+05 -3.5099E+03   1.3466E+05  0.000E+00  0.000E+00  0.000E+00  4.31829E+01  1.716E-01  2.000E+01  2.000E+04 -1.755E-01
   1   15   13     1    13    1.3466E+05 -3.3875E+03   1.3804E+05  0.000E+00  0.000E+00  0.000E+00  4.27083E+01  1.742E-01  2.000E+01  2.000E+04 -1.694E-01
   1   14   14     1    14    1.3804E+05 -3.4203E+03   1.4146E+05  0.000E+00  0.000E+00  0.000E+00  4.22336E+01  1.768E-01  2.000E+01  2.000E+04 -1.710E-01
   1   13   15     1    15    1.4146E+05 -3.5666E+03   1.4503E+05  0.000E+00  0.000E+00  0.000E+00  4.17590E+01  1.795E-01  2.000E+01  2.000E+04 -1.783E-01
   1   12   16     1    16    1.4503E+05 -4.3875E+03   1.4942E+05  0.000E+00  0.000E+00  0.000E+00  4.12847E+01  1.824E-01  2.000E+01  2.000E+04 -2.194E-01
   1   12   17     1    17    1.4942E+05 -3.0479E+03   1.5247E+05  0.000E+00  0.000E+00  0.000E+00  4.08102E+01  1.852E-01  2.000E+01  2.000E+04 -1.524E-01
   1   12   18     1    18    1.5247E+05 -3.0306E+03   1.5550E+05  0.000E+00  0.000E+00  0.000E+00  4.03351E+01  1.874E-01  2.000E+01  2.000E+04 -1.515E-01
   1   12   19     1    19    1.5550E+05 -4.0540E+03   1.5955E+05  0.000E+00  0.000E+00  0.000E+00  3.98604E+01  1.900E-01  2.000E+01  2.000E+04 -2.027E-01
   1   13   20     1    20    1.5955E+05 -2.8759E+03   1.6243E+05  0.000E+00  0.000E+00  0.000E+00  3.93857E+01  1.925E-01  2.000E+01  2.000E+04 -1.438E-01
   1   14   21     1    21    1.6243E+05 -2.3199E+03   1.6475E+05  0.000E+00  0.000E+00  0.000E+00  3.89103E+01  1.943E-01  2.000E+01  2.000E+04 -1.160E-01
   1   14   22     1    22    1.6475E+05  4.9976E+03   1.5975E+05  0.000E+00  0.000E+00  0.000E+00  3.84320E+01  1.934E-01  2.000E+01  2.000E+04  2.499E-01
   1    9   30     2     1    5.0000E+04 -2.6627E+03   5.2663E+04  0.000E+00  0.000E+00  0.000E+00  4.02427E+01  1.177E-01  2.000E+01  2.000E+04 -1.331E-01
   1    9   29     2     2    5.2663E+04 -2.9907E+03   5.5653E+04  0.000E+00  0.000E+00  0.000E+00  3.99966E+01  1.216E-01  2.000E+01  2.000E+04 -1.495E-01
   1    9   28     2     3    5.5653E+04 -3.3615E+03   5.9015E+04  0.000E+00  0.000E+00  0.000E+00  3.97508E+01  1.258E-01  2.000E+01  2.000E+04 -1.681E-01
   1    9   27     2     4    5.9015E+04 -6.0083E+03   6.5023E+04  0.000E+00  0.000E+00  0.000E+00  3.95069E+01  1.319E-01  2.000E+01  2.000E+04 -3.004E-01
   1   10   26     2     5    6.5023E+04 -3.6087E+03   6.8632E+04  0.000E+00  0.000E+00  0.000E+00  3.92629E+01  1.379E-01  2.000E+01  2.000E+04 -1.804E-01
   1   11   25     2     6    6.8632E+04 -2.5490E+03   7.1181E+04  0.000E+00  0.000E+00  0.000E+00  3.90167E+01  1.417E-01  2.000E+01  2.000E+04 -1.274E-01
   1   12   24     2     7    7.1181E+04 -1.7114E+03   7.2892E+04  0.000E+00  0.000E+00  0.000E+00  3.87692E+01  1.442E-01  2.000E+01  2.000E+04 -8.557E-02
   1   13   23     2     8    7.2892E+04 -9.4406E+02   7.3836E+04  0.000E+00  0.000E+00  0.000E+00  3.85208E+01  1.458E-01  2.000E+01  2.000E+04 -4.720E-02
   1   14   22     2     9    7.3836E+04  1.7641E+03   7.2072E+04  0.000E+00  0.000E+00  0.000E+00  3.82703E+01  1.453E-01  2.000E+01  2.000E+04  8.820E-02
   1   14   22     3     1    2.3182E+05 -8.5123E+03   2.4033E+05  0.000E+00  0.000E+00  0.000E+00  3.77565E+01  2.010E-01  2.000E+01  2.000E+04 -4.256E-01
   1   15   23     3     2    2.4033E+05 -3.0621E+03   2.4340E+05  0.000E+00  0.000E+00  0.000E+00  3.68706E+01  2.039E-01  2.000E+01  2.000E+04 -1.531E-01
   1   15   24     3     3    2.4340E+05 -2.0735E+03   2.4547E+05  0.000E+00  0.000E+00  0.000E+00  3.59830E+01  2.052E-01  2.000E+01  2.000E+04 -1.037E-01
   1   15   25     3     4    2.4547E+05 -1.9304E+03   2.4740E+05  0.000E+00  0.000E+00  0.000E+00  3.50951E+01  2.062E-01  2.000E+01  2.000E+04 -9.652E-02
   1   15   26     3     5    2.4740E+05 -2.2539E+03   2.4965E+05  0.000E+00  0.000E+00  0.000E+00  3.42073E+01  2.073E-01  2.000E+01  2.000E+04 -1.127E-01
   1   16   27     3     6    2.4965E+05 -3.2262E+03   2.5288E+05  0.000E+00  0.000E+00  0.000E+00  3.33197E+01  2.086E-01  2.000E+01  2.000E+04 -1.613E-01
   1   17   28     3     7    2.5288E+05 -4.0542E+03   2.5693E+05  0.000E+00  0.000E+00  0.000E+00  3.24327E+01  2.104E-01  2.000E+01  2.000E+04 -2.027E-01
   1   18   29     3     8    2.5693E+05 -5.7460E+03   2.6268E+05  0.000E+00  0.000E+00  0.000E+00  3.15462E+01  2.129E-01  2.000E+01  2.000E+04 -2.873E-01
   1   18   30     3     9    2.6268E+05 -4.7669E+03   2.6745E+05  0.000E+00  0.000E+00  0.000E+00  3.06599E+01  2.154E-01  2.000E+01  2.000E+04 -2.383E-01



1
              HEAD IN LAYER   1 AT END OF TIME STEP   1 IN STRESS PERIOD    3
  ---------------------------------------------------------------------------

          1      2      3      4      5      6      7      8      9     10
         11     12     13     14     15     16     17     18     19     20
         21     22     23     24     25     26     27     28     29     30
 .........................................................................
   1  ****** ****** ****** ****** ****** ****** ****** ****** ****** ******
      ****** ****** ****** ****** ****** ****** ****** ****** ****** ******
      ****** ****** ****** ****** ****** ****** ****** ****** ****** ******
   2  ****** ****** ****** ****** ****** ****** ****** ****** ****** ******
      ****** ****** ****** ****** ****** ****** ****** ****** ****** ******
      ****** ****** ****** ****** ****** ****** ****** ****** ****** ******
   3  ****** ****** ****** ****** ****** ****** ****** ****** ****** ******
      ****** ****** ****** ****** ****** ****** ****** ****** ****** ******
      ****** ****** ****** ****** ****** ****** ****** ****** ****** ******
   4  ****** ****** ****** ****** ****** ****** ****** ****** ****** ******
      ****** ****** ****** ****** ****** ****** ****** ****** ****** ******
      ****** ****** ****** ****** ****** ****** ****** ****** ****** ******
   5  ****** ****** ****** ****** ****** ****** ****** ****** ****** ******
      ****** ****** ****** ****** ****** ****** ****** ****** ****** ******
      ****** ****** ****** ****** ****** ****** ****** ****** ****** ******
   6  ****** ****** ****** ****** ****** ****** ****** ****** ****** ******
      ****** ****** ****** ****** ****** ****** ****** ****** ****** ******
      ****** ****** ****** ****** ****** ****** ****** ****** ****** ******
   7  ****** ****** ****** ****** ****** ****** ****** ****** ****** ******
      ****** ****** ****** ****** ****** ****** ****** ****** ****** ******
      ****** ****** ****** ****** ****** ****** ****** ****** ****** ******
   8  ****** ****** ****** ****** ****** ****** ****** ****** ****** ******
      ****** ****** ****** ****** ****** ****** ****** ****** ****** ******
      ****** ****** ****** ****** ****** ****** ****** ****** ****** ******
   9  ****** ****** ****** ****** ****** ****** ****** ****** ****** ******
      ****** ****** ****** ****** ****** ****** ****** ****** ****** ******
      ****** ****** ****** ****** ****** ****** ****** ****** ****** ******
  10  ****** ****** ****** ****** ****** ****** ****** ****** ****** ******
      ****** ****** ****** ****** ****** ****** ****** ****** ****** ******
      ****** ****** ****** ****** ****** ****** ****** ****** ****** ******
  11  ****** ****** ****** ****** ****** ****** ****** ****** ****** ******
      ****** ****** ****** ****** ****** ****** ****** ****** ****** ******
      ****** ****** ****** ****** ****** ****** ****** ****** ****** ******
  12  ****** ****** ****** ****** ****** ****** ****** ****** ****** ******
      ****** ****** ****** ****** ****** ****** ****** ****** ****** ******
      ****** ****** ****** ****** ****** ****** ****** ****** ****** ******
  13  ****** ****** ****** ****** ****** ****** ****** ****** ****** ******
      ****** ****** ****** ****** ****** ****** ****** ****** ****** ******
      ****** ****** ****** ****** ****** ****** ****** ****** ****** ******
  14  ****** ****** ****** ****** ****** ****** ****** ****** ****** ******
      ****** ****** ****** ****** ****** ****** ****** ****** ****** ******
      ****** ****** ****** ****** ****** ****** ****** ****** ****** ******
  15  ****** ****** ****** ****** ****** ****** ****** ****** ****** ******
      ****** ****** ****** ****** ****** ****** ****** ****** ****** ******
      ****** ****** ****** ****** ****** ****** ****** ****** ****** ******
  16  ****** ****** ****** ****** ****** ****** ****** ****** ****** ******
      ****** ****** ****** ****** ****** ****** ****** ****** ****** ******
      ****** ****** ****** ****** ****** ****** ****** ****** ****** ******
  17  ****** ****** ****** ****** ****** ****** ****** ****** ****** ******
      ****** ****** ****** ****** ****** ****** ****** ****** ****** ******
      ****** ****** ****** ****** ****** ****** ****** ****** ****** ******
  18  ****** ****** ****** ****** ****** ****** ****** ****** ****** ******
      ****** ****** ****** ****** ****** ****** ****** ****** ****** ******
      ****** ****** ****** ****** ****** ****** ****** ****** ****** ******
  19  ****** ****** ****** ****** ****** ****** ****** ****** ****** ******
      ****** ****** ****** ****** ****** ****** ****** ****** ****** ******
      ****** ****** ****** ****** ****** ****** ****** ****** ****** ******
  20  ****** ****** ****** ****** ****** ****** ****** ****** ****** ******
      ****** ****** ****** ****** ****** ****** ****** ****** ****** ******
      ****** ****** ****** ****** ****** ****** ****** ****** ****** ******
  21  ****** ****** ****** ****** ****** ****** ****** ****** ****** ******
      ****** ****** ****** ****** ****** ****** ****** ****** ****** ******
      ****** ****** ****** ****** ****** ****** ****** ****** ****** ******
  22  ****** ****** ****** ****** ****** ****** ****** ****** ****** ******
      ****** ****** ****** ****** ****** ****** ****** ****** ****** ******
      ****** ****** ****** ****** ****** ****** ****** ****** ****** ******
  23  ****** ****** ****** ****** ****** ****** ****** ****** ****** ******
      ****** ****** ****** ****** ****** ****** ****** ****** ****** ******
      ****** ****** ****** ****** ****** ****** ****** ****** ****** ******
  24  ****** ****** ****** ****** ****** ****** ****** ****** ****** ******
      ****** ****** ****** ****** ****** ****** ****** ****** ****** ******
      ****** ****** ****** ****** ****** ****** ****** ****** ****** ******
  25  ****** ****** ****** ****** ****** ****** ****** ****** ****** ******
      ****** ****** ****** ****** ****** ****** ****** ****** ****** ******
      ****** ****** ****** ****** ****** ****** ****** ****** ****** ******

 HEAD WILL BE SAVED ON UNIT   51 AT END OF TIME STEP    1, STRESS PERIOD    3
1
  VOLUMETRIC BUDGET FOR ENTIRE MODEL AT END OF TIME STEP    1, STRESS PERIOD   3
  ------------------------------------------------------------------------------

     CUMULATIVE VOLUMES      L**3       RATES FOR THIS TIME STEP      L**3/T
     ------------------                 ------------------------

           IN:                                      IN:
           ---                                      ---
             STORAGE =    23691980.3700               STORAGE =       27860.2601
       CONSTANT HEAD =    46699540.4946         CONSTANT HEAD =      194608.0698
               WELLS =           0.0000                 WELLS =           0.0000
            RECHARGE =     6292800.0000              RECHARGE =           0.0000
      STREAM LEAKAGE =     1646075.9530        STREAM LEAKAGE =        6761.7128

            TOTAL IN =    78330396.8177              TOTAL IN =      229230.0427

          OUT:                                     OUT:
          ----                                     ----
             STORAGE =           0.0000               STORAGE =           0.0000
       CONSTANT HEAD =           0.0000         CONSTANT HEAD =           0.0000
               WELLS =    28776018.5973                 WELLS =      105021.9657
            RECHARGE =           0.0000              RECHARGE =           0.0000
      STREAM LEAKAGE =    49554379.0946        STREAM LEAKAGE =      124208.0798

           TOTAL OUT =    78330397.6919             TOTAL OUT =      229230.0455

            IN - OUT =          -0.8742              IN - OUT =      -2.8134E-03

 PERCENT DISCREPANCY =          -0.00     PERCENT DISCREPANCY =          -0.00






         TIME SUMMARY AT END OF TIME STEP    1 IN STRESS PERIOD    3
                    SECONDS     MINUTES      HOURS       DAYS        YEARS
                    -----------------------------------------------------------
   TIME STEP LENGTH 7.86240E+06 1.31040E+05  2184.0      91.000     0.24914    
 STRESS PERIOD TIME 7.86240E+06 1.31040E+05  2184.0      91.000     0.24914    
         TOTAL TIME 2.36736E+07 3.94560E+05  6576.0      274.00     0.75017    
1
1
                            STRESS PERIOD NO.    4, LENGTH =   91.00000    
                            -----------------------------------------------

                              NUMBER OF TIME STEPS =     1

                               MULTIPLIER FOR DELT =     1.500

                            INITIAL TIME STEP SIZE =   91.00000    

 WELL NO.  LAYER   ROW   COL   STRESS RATE         
 --------------------------------------------------
      1      1     23      9     -0.3450E+05
      2      1      3      9     -0.3274E+05
      3      1      3     14     -0.3778E+05

      3 WELLS

                 RECHARGE =  1.000000E-03

 REUSING STREAM SEGMENT DATA FROM LAST STRESS PERIOD
 
 SOLVING FOR HEAD 


     5 CALLS TO PCG ROUTINE FOR TIME STEP   1 IN STRESS PERIOD    4
    17 TOTAL ITERATIONS

 OUTPUT CONTROL FOR STRESS PERIOD    4   TIME STEP    1
    SAVE BUDGET
    SAVE HEAD FOR ALL LAYERS
    PRINT HEAD FOR ALL LAYERS
 UBDSV2 SAVING "STREAMFLOW OUT  " ON UNIT  50 AT TIME STEP  1, STRESS PERIOD   4



 STREAM LISTING     PERIOD      4   STEP        1

 LAYER ROW COL. STREAM  RCH.  FLOW INTO     FLOW TO   FLOW OUT OF   OVRLND.     DIRECT     STREAM       STREAM     STREAM     STREAM   STREAMBED  STREAMBED
                SEG.NO.  NO.  STRM. RCH.    AQUIFER    STRM. RCH.    RUNOFF     PRECIP       ET          HEAD       DEPTH      WIDTH   CONDCTNC.   GRADIENT

   1   13    1     1     1    1.0000E+05 -2.4458E+03   1.0245E+05  0.000E+00  0.000E+00  0.000E+00  4.84071E+01  1.457E-01  2.000E+01  2.000E+04 -1.223E-01
   1   13    2     1     2    1.0245E+05 -4.1395E+03   1.0659E+05  0.000E+00  0.000E+00  0.000E+00  4.79326E+01  1.485E-01  2.000E+01  2.000E+04 -2.070E-01
   1   14    3     1     3    1.0659E+05 -3.2939E+03   1.0988E+05  0.000E+00  0.000E+00  0.000E+00  4.74585E+01  1.517E-01  2.000E+01  2.000E+04 -1.647E-01
   1   15    4     1     4    1.0988E+05 -3.1806E+03   1.1306E+05  0.000E+00  0.000E+00  0.000E+00  4.69839E+01  1.544E-01  2.000E+01  2.000E+04 -1.590E-01
   1   16    5     1     5    1.1306E+05 -3.3378E+03   1.1640E+05  0.000E+00  0.000E+00  0.000E+00  4.65094E+01  1.571E-01  2.000E+01  2.000E+04 -1.669E-01
   1   16    6     1     6    1.1640E+05 -2.5201E+03   1.1892E+05  0.000E+00  0.000E+00  0.000E+00  4.60345E+01  1.595E-01  2.000E+01  2.000E+04 -1.260E-01
   1   16    7     1     7    1.1892E+05 -2.4819E+03   1.2140E+05  0.000E+00  0.000E+00  0.000E+00  4.55592E+01  1.615E-01  2.000E+01  2.000E+04 -1.241E-01
   1   16    8     1     8    1.2140E+05 -2.4435E+03   1.2384E+05  0.000E+00  0.000E+00  0.000E+00  4.50839E+01  1.635E-01  2.000E+01  2.000E+04 -1.222E-01
   1   16    9     1     9    1.2384E+05 -2.4175E+03   1.2626E+05  0.000E+00  0.000E+00  0.000E+00  4.46086E+01  1.654E-01  2.000E+01  2.000E+04 -1.209E-01
   1   16   10     1    10    1.2626E+05 -2.4210E+03   1.2868E+05  0.000E+00  0.000E+00  0.000E+00  4.41332E+01  1.673E-01  2.000E+01  2.000E+04 -1.210E-01
   1   16   11     1    11    1.2868E+05 -2.4740E+03   1.3116E+05  0.000E+00  0.000E+00  0.000E+00  4.36579E+01  1.692E-01  2.000E+01  2.000E+04 -1.237E-01
   1   16   12     1    12    1.3116E+05 -3.5365E+03   1.3469E+05  0.000E+00  0.000E+00  0.000E+00  4.31830E+01  1.716E-01  2.000E+01  2.000E+04 -1.768E-01
   1   15   13     1    13    1.3469E+05 -3.3938E+03   1.3809E+05  0.000E+00  0.000E+00  0.000E+00  4.27083E+01  1.743E-01  2.000E+01  2.000E+04 -1.697E-01
   1   14   14     1    14    1.3809E+05 -3.4102E+03   1.4150E+05  0.000E+00  0.000E+00  0.000E+00  4.22337E+01  1.769E-01  2.000E+01  2.000E+04 -1.705E-01
   1   13   15     1    15    1.4150E+05 -3.5428E+03   1.4504E+05  0.000E+00  0.000E+00  0.000E+00  4.17590E+01  1.795E-01  2.000E+01  2.000E+04 -1.771E-01
   1   12   16     1    16    1.4504E+05 -4.3163E+03   1.4936E+05  0.000E+00  0.000E+00  0.000E+00  4.12847E+01  1.824E-01  2.000E+01  2.000E+04 -2.158E-01
   1   12   17     1    17    1.4936E+05 -3.0463E+03   1.5240E+05  0.000E+00  0.000E+00  0.000E+00  4.08101E+01  1.851E-01  2.000E+01  2.000E+04 -1.523E-01
   1   12   18     1    18    1.5240E+05 -3.0443E+03   1.5545E+05  0.000E+00  0.000E+00  0.000E+00  4.03351E+01  1.874E-01  2.000E+01  2.000E+04 -1.522E-01
   1   12   19     1    19    1.5545E+05 -4.0773E+03   1.5952E+05  0.000E+00  0.000E+00  0.000E+00  3.98604E+01  1.900E-01  2.000E+01  2.000E+04 -2.039E-01
   1   13   20     1    20    1.5952E+05 -2.9538E+03   1.6248E+05  0.000E+00  0.000E+00  0.000E+00  3.93857E+01  1.925E-01  2.000E+01  2.000E+04 -1.477E-01
   1   14   21     1    21    1.6248E+05 -2.3886E+03   1.6487E+05  0.000E+00  0.000E+00  0.000E+00  3.89103E+01  1.944E-01  2.000E+01  2.000E+04 -1.194E-01
   1   14   22     1    22    1.6487E+05  4.9611E+03   1.5990E+05  0.000E+00  0.000E+00  0.000E+00  3.84321E+01  1.935E-01  2.000E+01  2.000E+04  2.481E-01
   1    9   30     2     1    5.0000E+04 -2.7710E+03   5.2771E+04  0.000E+00  0.000E+00  0.000E+00  4.02428E+01  1.178E-01  2.000E+01  2.000E+04 -1.386E-01
   1    9   29     2     2    5.2771E+04 -3.0968E+03   5.5868E+04  0.000E+00  0.000E+00  0.000E+00  3.99968E+01  1.218E-01  2.000E+01  2.000E+04 -1.548E-01
   1    9   28     2     3    5.5868E+04 -3.4619E+03   5.9330E+04  0.000E+00  0.000E+00  0.000E+00  3.97511E+01  1.261E-01  2.000E+01  2.000E+04 -1.731E-01
   1    9   27     2     4    5.9330E+04 -6.1030E+03   6.5433E+04  0.000E+00  0.000E+00  0.000E+00  3.95073E+01  1.323E-01  2.000E+01  2.000E+04 -3.051E-01
   1   10   26     2     5    6.5433E+04 -3.7215E+03   6.9154E+04  0.000E+00  0.000E+00  0.000E+00  3.92635E+01  1.385E-01  2.000E+01  2.000E+04 -1.861E-01
   1   11   25     2     6    6.9154E+04 -2.6622E+03   7.1816E+04  0.000E+00  0.000E+00  0.000E+00  3.90174E+01  1.424E-01  2.000E+01  2.000E+04 -1.331E-01
   1   12   24     2     7    7.1816E+04 -1.8229E+03   7.3639E+04  0.000E+00  0.000E+00  0.000E+00  3.87701E+01  1.451E-01  2.000E+01  2.000E+04 -9.115E-02
   1   13   23     2     8    7.3639E+04 -1.0471E+03   7.4686E+04  0.000E+00  0.000E+00  0.000E+00  3.85218E+01  1.468E-01  2.000E+01  2.000E+04 -5.235E-02
   1   14   22     2     9    7.4686E+04  1.7461E+03   7.2940E+04  0.000E+00  0.000E+00  0.000E+00  3.82714E+01  1.464E-01  2.000E+01  2.000E+04  8.730E-02
   1   14   22     3     1    2.3284E+05 -8.5402E+03   2.4138E+05  0.000E+00  0.000E+00  0.000E+00  3.77571E+01  2.015E-01  2.000E+01  2.000E+04 -4.270E-01
   1   15   23     3     2    2.4138E+05 -3.1365E+03   2.4452E+05  0.000E+00  0.000E+00  0.000E+00  3.68711E+01  2.045E-01  2.000E+01  2.000E+04 -1.568E-01
   1   15   24     3     3    2.4452E+05 -2.1570E+03   2.4668E+05  0.000E+00  0.000E+00  0.000E+00  3.59836E+01  2.058E-01  2.000E+01  2.000E+04 -1.078E-01
   1   15   25     3     4    2.4668E+05 -2.0262E+03   2.4870E+05  0.000E+00  0.000E+00  0.000E+00  3.50957E+01  2.068E-01  2.000E+01  2.000E+04 -1.013E-01
   1   15   26     3     5    2.4870E+05 -2.3832E+03   2.5109E+05  0.000E+00  0.000E+00  0.000E+00  3.42079E+01  2.079E-01  2.000E+01  2.000E+04 -1.192E-01
   1   16   27     3     6    2.5109E+05 -3.3655E+03   2.5445E+05  0.000E+00  0.000E+00  0.000E+00  3.33205E+01  2.094E-01  2.000E+01  2.000E+04 -1.683E-01
   1   17   28     3     7    2.5445E+05 -4.1941E+03   2.5865E+05  0.000E+00  0.000E+00  0.000E+00  3.24335E+01  2.113E-01  2.000E+01  2.000E+04 -2.097E-01
   1   18   29     3     8    2.5865E+05 -5.8713E+03   2.6452E+05  0.000E+00  0.000E+00  0.000E+00  3.15471E+01  2.137E-01  2.000E+01  2.000E+04 -2.936E-01
   1   18   30     3     9    2.6452E+05 -4.8776E+03   2.6940E+05  0.000E+00  0.000E+00  0.000E+00  3.06608E+01  2.164E-01  2.000E+01  2.000E+04 -2.439E-01



1
              HEAD IN LAYER   1 AT END OF TIME STEP   1 IN STRESS PERIOD    4
  ---------------------------------------------------------------------------

          1      2      3      4      5      6      7      8      9     10
         11     12     13     14     15     16     17     18     19     20
         21     22     23     24     25     26     27     28     29     30
 .........................................................................
   1  ****** ****** ****** ****** ****** ****** ****** ****** ****** ******
      ****** ****** ****** ****** ****** ****** ****** ****** ****** ******
      ****** ****** ****** ****** ****** ****** ****** ****** ****** ******
   2  ****** ****** ****** ****** ****** ****** ****** ****** ****** ******
      ****** ****** ****** ****** ****** ****** ****** ****** ****** ******
      ****** ****** ****** ****** ****** ****** ****** ****** ****** ******
   3  ****** ****** ****** ****** ****** ****** ****** ****** ****** ******
      ****** ****** ****** ****** ****** ****** ****** ****** ****** ******
      ****** ****** ****** ****** ****** ****** ****** ****** ****** ******
   4  ****** ****** ****** ****** ****** ****** ****** ****** ****** ******
      ****** ****** ****** ****** ****** ****** ****** ****** ****** ******
      ****** ****** ****** ****** ****** ****** ****** ****** ****** ******
   5  ****** ****** ****** ****** ****** ****** ****** ****** ****** ******
      ****** ****** ****** ****** ****** ****** ****** ****** ****** ******
      ****** ****** ****** ****** ****** ****** ****** ****** ****** ******
   6  ****** ****** ****** ****** ****** ****** ****** ****** ****** ******
      ****** ****** ****** ****** ****** ****** ****** ****** ****** ******
      ****** ****** ****** ****** ****** ****** ****** ****** ****** ******
   7  ****** ****** ****** ****** ****** ****** ****** ****** ****** ******
      ****** ****** ****** ****** ****** ****** ****** ****** ****** ******
      ****** ****** ****** ****** ****** ****** ****** ****** ****** ******
   8  ****** ****** ****** ****** ****** ****** ****** ****** ****** ******
      ****** ****** ****** ****** ****** ****** ****** ****** ****** ******
      ****** ****** ****** ****** ****** ****** ****** ****** ****** ******
   9  ****** ****** ****** ****** ****** ****** ****** ****** ****** ******
      ****** ****** ****** ****** ****** ****** ****** ****** ****** ******
      ****** ****** ****** ****** ****** ****** ****** ****** ****** ******
  10  ****** ****** ****** ****** ****** ****** ****** ****** ****** ******
      ****** ****** ****** ****** ****** ****** ****** ****** ****** ******
      ****** ****** ****** ****** ****** ****** ****** ****** ****** ******
  11  ****** ****** ****** ****** ****** ****** ****** ****** ****** ******
      ****** ****** ****** ****** ****** ****** ****** ****** ****** ******
      ****** ****** ****** ****** ****** ****** ****** ****** ****** ******
  12  ****** ****** ****** ****** ****** ****** ****** ****** ****** ******
      ****** ****** ****** ****** ****** ****** ****** ****** ****** ******
      ****** ****** ****** ****** ****** ****** ****** ****** ****** ******
  13  ****** ****** ****** ****** ****** ****** ****** ****** ****** ******
      ****** ****** ****** ****** ****** ****** ****** ****** ****** ******
      ****** ****** ****** ****** ****** ****** ****** ****** ****** ******
  14  ****** ****** ****** ****** ****** ****** ****** ****** ****** ******
      ****** ****** ****** ****** ****** ****** ****** ****** ****** ******
      ****** ****** ****** ****** ****** ****** ****** ****** ****** ******
  15  ****** ****** ****** ****** ****** ****** ****** ****** ****** ******
      ****** ****** ****** ****** ****** ****** ****** ****** ****** ******
      ****** ****** ****** ****** ****** ****** ****** ****** ****** ******
  16  ****** ****** ****** ****** ****** ****** ****** ****** ****** ******
      ****** ****** ****** ****** ****** ****** ****** ****** ****** ******
      ****** ****** ****** ****** ****** ****** ****** ****** ****** ******
  17  ****** ****** ****** ****** ****** ****** ****** ****** ****** ******
      ****** ****** ****** ****** ****** ****** ****** ****** ****** ******
      ****** ****** ****** ****** ****** ****** ****** ****** ****** ******
  18  ****** ****** ****** ****** ****** ****** ****** ****** ****** ******
      ****** ****** ****** ****** ****** ****** ****** ****** ****** ******
      ****** ****** ****** ****** ****** ****** ****** ****** ****** ******
  19  ****** ****** ****** ****** ****** ****** ****** ****** ****** ******
      ****** ****** ****** ****** ****** ****** ****** ****** ****** ******
      ****** ****** ****** ****** ****** ****** ****** ****** ****** ******
  20  ****** ****** ****** ****** ****** ****** ****** ****** ****** ******
      ****** ****** ****** ****** ****** ****** ****** ****** ****** ******
      ****** ****** ****** ****** ****** ****** ****** ****** ****** ******
  21  ****** ****** ****** ****** ****** ****** ****** ****** ****** ******
      ****** ****** ****** ****** ****** ****** ****** ****** ****** ******
      ****** ****** ****** ****** ****** ****** ****** ****** ****** ******
  22  ****** ****** ****** ****** ****** ****** ****** ****** ****** ******
      ****** ****** ****** ****** ****** ****** ****** ****** ****** ******
      ****** ****** ****** ****** ****** ****** ****** ****** ****** ******
  23  ****** ****** ****** ****** ****** ****** ****** ****** ****** ******
      ****** ****** ****** ****** ****** ****** ****** ****** ****** ******
      ****** ****** ****** ****** ****** ****** ****** ****** ****** ******
  24  ****** ****** ****** ****** ****** ****** ****** ****** ****** ******
      ****** ****** ****** ****** ****** ****** ****** ****** ****** ******
      ****** ****** ****** ****** ****** ****** ****** ****** ****** ******
  25  ****** ****** ****** ****** ****** ****** ****** ****** ****** ******
      ****** ****** ****** ****** ****** ****** ****** ****** ****** ******
      ****** ****** ****** ****** ****** ****** ****** ****** ****** ******

 HEAD WILL BE SAVED ON UNIT   51 AT END OF TIME STEP    1, STRESS PERIOD    4
1
  VOLUMETRIC BUDGET FOR ENTIRE MODEL AT END OF TIME STEP    1, STRESS PERIOD   4
  ------------------------------------------------------------------------------

     CUMULATIVE VOLUMES      L**3       RATES FOR THIS TIME STEP      L**3/T
     ------------------                 ------------------------

           IN:                                      IN:
           ---                                      ---
             STORAGE =    23910623.2215               STORAGE =        2402.6687
       CONSTANT HEAD =    64416736.4611         CONSTANT HEAD =      194694.4612
               WELLS =           0.0000                 WELLS =           0.0000
            RECHARGE =     8804400.0000              RECHARGE =       27600.0000
      STREAM LEAKAGE =     2256429.0714        STREAM LEAKAGE =        6707.1771

            TOTAL IN =    99388188.7540              TOTAL IN =      231404.3070

          OUT:                                     OUT:
          ----                                     ----
             STORAGE =       25393.0634               STORAGE =         279.0447
       CONSTANT HEAD =           0.0000         CONSTANT HEAD =           0.0000
               WELLS =    38333017.4745                 WELLS =      105021.9657
            RECHARGE =           0.0000              RECHARGE =           0.0000
      STREAM LEAKAGE =    61029778.9747        STREAM LEAKAGE =      126103.2954

           TOTAL OUT =    99388189.5126             TOTAL OUT =      231404.3057

            IN - OUT =          -0.7586              IN - OUT =       1.2701E-03

 PERCENT DISCREPANCY =          -0.00     PERCENT DISCREPANCY =           0.00






         TIME SUMMARY AT END OF TIME STEP    1 IN STRESS PERIOD    4
                    SECONDS     MINUTES      HOURS       DAYS        YEARS
                    -----------------------------------------------------------
   TIME STEP LENGTH 7.86240E+06 1.31040E+05  2184.0      91.000     0.24914    
 STRESS PERIOD TIME 7.86240E+06 1.31040E+05  2184.0      91.000     0.24914    
         TOTAL TIME 3.15360E+07 5.25600E+05  8760.0      365.00     0.99932    
1
1
                            STRESS PERIOD NO.    5, LENGTH =   92.00000    
                            -----------------------------------------------

                              NUMBER OF TIME STEPS =     1

                               MULTIPLIER FOR DELT =     1.500

                            INITIAL TIME STEP SIZE =   92.00000    

 WELL NO.  LAYER   ROW   COL   STRESS RATE         
 --------------------------------------------------
      1      1     23      9     -0.3450E+05
      2      1      3      9     -0.3274E+05
      3      1      3     14     -0.3778E+05

      3 WELLS

                 RECHARGE =  5.000000E-04

 REUSING STREAM SEGMENT DATA FROM LAST STRESS PERIOD
 
 SOLVING FOR HEAD 


     6 CALLS TO PCG ROUTINE FOR TIME STEP   1 IN STRESS PERIOD    5
    23 TOTAL ITERATIONS

 OUTPUT CONTROL FOR STRESS PERIOD    5   TIME STEP    1
    SAVE BUDGET
    SAVE HEAD FOR ALL LAYERS
    PRINT HEAD FOR ALL LAYERS
 UBDSV2 SAVING "STREAMFLOW OUT  " ON UNIT  50 AT TIME STEP  1, STRESS PERIOD   5



 STREAM LISTING     PERIOD      5   STEP        1

 LAYER ROW COL. STREAM  RCH.  FLOW INTO     FLOW TO   FLOW OUT OF   OVRLND.     DIRECT     STREAM       STREAM     STREAM     STREAM   STREAMBED  STREAMBED
                SEG.NO.  NO.  STRM. RCH.    AQUIFER    STRM. RCH.    RUNOFF     PRECIP       ET          HEAD       DEPTH      WIDTH   CONDCTNC.   GRADIENT

   1   13    1     1     1    1.0000E+05 -2.2492E+03   1.0225E+05  0.000E+00  0.000E+00  0.000E+00  4.84070E+01  1.456E-01  2.000E+01  2.000E+04 -1.125E-01
   1   13    2     1     2    1.0225E+05 -3.8616E+03   1.0611E+05  0.000E+00  0.000E+00  0.000E+00  4.79323E+01  1.483E-01  2.000E+01  2.000E+04 -1.931E-01
   1   14    3     1     3    1.0611E+05 -3.0434E+03   1.0915E+05  0.000E+00  0.000E+00  0.000E+00  4.74580E+01  1.512E-01  2.000E+01  2.000E+04 -1.522E-01
   1   15    4     1     4    1.0915E+05 -2.9466E+03   1.1210E+05  0.000E+00  0.000E+00  0.000E+00  4.69832E+01  1.537E-01  2.000E+01  2.000E+04 -1.473E-01
   1   16    5     1     5    1.1210E+05 -3.1393E+03   1.1524E+05  0.000E+00  0.000E+00  0.000E+00  4.65085E+01  1.562E-01  2.000E+01  2.000E+04 -1.570E-01
   1   16    6     1     6    1.1524E+05 -2.3538E+03   1.1759E+05  0.000E+00  0.000E+00  0.000E+00  4.60335E+01  1.585E-01  2.000E+01  2.000E+04 -1.177E-01
   1   16    7     1     7    1.1759E+05 -2.3098E+03   1.1990E+05  0.000E+00  0.000E+00  0.000E+00  4.55581E+01  1.604E-01  2.000E+01  2.000E+04 -1.155E-01
   1   16    8     1     8    1.1990E+05 -2.2685E+03   1.2217E+05  0.000E+00  0.000E+00  0.000E+00  4.50827E+01  1.622E-01  2.000E+01  2.000E+04 -1.134E-01
   1   16    9     1     9    1.2217E+05 -2.2426E+03   1.2441E+05  0.000E+00  0.000E+00  0.000E+00  4.46072E+01  1.640E-01  2.000E+01  2.000E+04 -1.121E-01
   1   16   10     1    10    1.2441E+05 -2.2491E+03   1.2666E+05  0.000E+00  0.000E+00  0.000E+00  4.41317E+01  1.658E-01  2.000E+01  2.000E+04 -1.125E-01
   1   16   11     1    11    1.2666E+05 -2.3073E+03   1.2897E+05  0.000E+00  0.000E+00  0.000E+00  4.36562E+01  1.676E-01  2.000E+01  2.000E+04 -1.154E-01
   1   16   12     1    12    1.2897E+05 -3.3319E+03   1.3230E+05  0.000E+00  0.000E+00  0.000E+00  4.31812E+01  1.698E-01  2.000E+01  2.000E+04 -1.666E-01
   1   15   13     1    13    1.3230E+05 -3.1557E+03   1.3546E+05  0.000E+00  0.000E+00  0.000E+00  4.27064E+01  1.723E-01  2.000E+01  2.000E+04 -1.578E-01
   1   14   14     1    14    1.3546E+05 -3.1600E+03   1.3862E+05  0.000E+00  0.000E+00  0.000E+00  4.22316E+01  1.748E-01  2.000E+01  2.000E+04 -1.580E-01
   1   13   15     1    15    1.3862E+05 -3.2903E+03   1.4191E+05  0.000E+00  0.000E+00  0.000E+00  4.17568E+01  1.772E-01  2.000E+01  2.000E+04 -1.645E-01
   1   12   16     1    16    1.4191E+05 -4.0587E+03   1.4597E+05  0.000E+00  0.000E+00  0.000E+00  4.12823E+01  1.800E-01  2.000E+01  2.000E+04 -2.029E-01
   1   12   17     1    17    1.4597E+05 -2.8726E+03   1.4884E+05  0.000E+00  0.000E+00  0.000E+00  4.08076E+01  1.826E-01  2.000E+01  2.000E+04 -1.436E-01
   1   12   18     1    18    1.4884E+05 -2.8795E+03   1.5172E+05  0.000E+00  0.000E+00  0.000E+00  4.03324E+01  1.847E-01  2.000E+01  2.000E+04 -1.440E-01
   1   12   19     1    19    1.5172E+05 -3.8800E+03   1.5560E+05  0.000E+00  0.000E+00  0.000E+00  3.98576E+01  1.872E-01  2.000E+01  2.000E+04 -1.940E-01
   1   13   20     1    20    1.5560E+05 -2.7785E+03   1.5838E+05  0.000E+00  0.000E+00  0.000E+00  3.93828E+01  1.896E-01  2.000E+01  2.000E+04 -1.389E-01
   1   14   21     1    21    1.5838E+05 -2.2312E+03   1.6061E+05  0.000E+00  0.000E+00  0.000E+00  3.89073E+01  1.914E-01  2.000E+01  2.000E+04 -1.116E-01
   1   14   22     1    22    1.6061E+05  4.9848E+03   1.5563E+05  0.000E+00  0.000E+00  0.000E+00  3.84291E+01  1.904E-01  2.000E+01  2.000E+04  2.492E-01
   1    9   30     2     1    5.0000E+04 -2.6537E+03   5.2654E+04  0.000E+00  0.000E+00  0.000E+00  4.02427E+01  1.177E-01  2.000E+01  2.000E+04 -1.327E-01
   1    9   29     2     2    5.2654E+04 -2.9796E+03   5.5633E+04  0.000E+00  0.000E+00  0.000E+00  3.99965E+01  1.215E-01  2.000E+01  2.000E+04 -1.490E-01
   1    9   28     2     3    5.5633E+04 -3.3432E+03   5.8977E+04  0.000E+00  0.000E+00  0.000E+00  3.97507E+01  1.257E-01  2.000E+01  2.000E+04 -1.672E-01
   1    9   27     2     4    5.8977E+04 -5.9349E+03   6.4911E+04  0.000E+00  0.000E+00  0.000E+00  3.95068E+01  1.318E-01  2.000E+01  2.000E+04 -2.967E-01
   1   10   26     2     5    6.4911E+04 -3.5487E+03   6.8460E+04  0.000E+00  0.000E+00  0.000E+00  3.92627E+01  1.377E-01  2.000E+01  2.000E+04 -1.774E-01
   1   11   25     2     6    6.8460E+04 -2.4955E+03   7.0956E+04  0.000E+00  0.000E+00  0.000E+00  3.90164E+01  1.414E-01  2.000E+01  2.000E+04 -1.248E-01
   1   12   24     2     7    7.0956E+04 -1.6745E+03   7.2630E+04  0.000E+00  0.000E+00  0.000E+00  3.87690E+01  1.440E-01  2.000E+01  2.000E+04 -8.373E-02
   1   13   23     2     8    7.2630E+04 -9.3123E+02   7.3561E+04  0.000E+00  0.000E+00  0.000E+00  3.85205E+01  1.455E-01  2.000E+01  2.000E+04 -4.656E-02
   1   14   22     2     9    7.3561E+04  1.8036E+03   7.1758E+04  0.000E+00  0.000E+00  0.000E+00  3.82700E+01  1.450E-01  2.000E+01  2.000E+04  9.018E-02
   1   14   22     3     1    2.2738E+05 -8.5113E+03   2.3589E+05  0.000E+00  0.000E+00  0.000E+00  3.77543E+01  1.987E-01  2.000E+01  2.000E+04 -4.256E-01
   1   15   23     3     2    2.3589E+05 -2.9934E+03   2.3889E+05  0.000E+00  0.000E+00  0.000E+00  3.68683E+01  2.016E-01  2.000E+01  2.000E+04 -1.497E-01
   1   15   24     3     3    2.3889E+05 -2.0577E+03   2.4095E+05  0.000E+00  0.000E+00  0.000E+00  3.59807E+01  2.029E-01  2.000E+01  2.000E+04 -1.029E-01
   1   15   25     3     4    2.4095E+05 -1.9294E+03   2.4287E+05  0.000E+00  0.000E+00  0.000E+00  3.50928E+01  2.039E-01  2.000E+01  2.000E+04 -9.647E-02
   1   15   26     3     5    2.4287E+05 -2.2633E+03   2.4514E+05  0.000E+00  0.000E+00  0.000E+00  3.42050E+01  2.050E-01  2.000E+01  2.000E+04 -1.132E-01
   1   16   27     3     6    2.4514E+05 -3.2125E+03   2.4835E+05  0.000E+00  0.000E+00  0.000E+00  3.33175E+01  2.064E-01  2.000E+01  2.000E+04 -1.606E-01
   1   17   28     3     7    2.4835E+05 -4.0379E+03   2.5239E+05  0.000E+00  0.000E+00  0.000E+00  3.24304E+01  2.082E-01  2.000E+01  2.000E+04 -2.019E-01
   1   18   29     3     8    2.5239E+05 -5.7244E+03   2.5811E+05  0.000E+00  0.000E+00  0.000E+00  3.15439E+01  2.106E-01  2.000E+01  2.000E+04 -2.862E-01
   1   18   30     3     9    2.5811E+05 -4.7689E+03   2.6288E+05  0.000E+00  0.000E+00  0.000E+00  3.06576E+01  2.132E-01  2.000E+01  2.000E+04 -2.384E-01



1
              HEAD IN LAYER   1 AT END OF TIME STEP   1 IN STRESS PERIOD    5
  ---------------------------------------------------------------------------

          1      2      3      4      5      6      7      8      9     10
         11     12     13     14     15     16     17     18     19     20
         21     22     23     24     25     26     27     28     29     30
 .........................................................................
   1  ****** ****** ****** ****** ****** ****** ****** ****** ****** ******
      ****** ****** ****** ****** ****** ****** ****** ****** ****** ******
      ****** ****** ****** ****** ****** ****** ****** ****** ****** ******
   2  ****** ****** ****** ****** ****** ****** ****** ****** ****** ******
      ****** ****** ****** ****** ****** ****** ****** ****** ****** ******
      ****** ****** ****** ****** ****** ****** ****** ****** ****** ******
   3  ****** ****** ****** ****** ****** ****** ****** ****** ****** ******
      ****** ****** ****** ****** ****** ****** ****** ****** ****** ******
      ****** ****** ****** ****** ****** ****** ****** ****** ****** ******
   4  ****** ****** ****** ****** ****** ****** ****** ****** ****** ******
      ****** ****** ****** ****** ****** ****** ****** ****** ****** ******
      ****** ****** ****** ****** ****** ****** ****** ****** ****** ******
   5  ****** ****** ****** ****** ****** ****** ****** ****** ****** ******
      ****** ****** ****** ****** ****** ****** ****** ****** ****** ******
      ****** ****** ****** ****** ****** ****** ****** ****** ****** ******
   6  ****** ****** ****** ****** ****** ****** ****** ****** ****** ******
      ****** ****** ****** ****** ****** ****** ****** ****** ****** ******
      ****** ****** ****** ****** ****** ****** ****** ****** ****** ******
   7  ****** ****** ****** ****** ****** ****** ****** ****** ****** ******
      ****** ****** ****** ****** ****** ****** ****** ****** ****** ******
      ****** ****** ****** ****** ****** ****** ****** ****** ****** ******
   8  ****** ****** ****** ****** ****** ****** ****** ****** ****** ******
      ****** ****** ****** ****** ****** ****** ****** ****** ****** ******
      ****** ****** ****** ****** ****** ****** ****** ****** ****** ******
   9  ****** ****** ****** ****** ****** ****** ****** ****** ****** ******
      ****** ****** ****** ****** ****** ****** ****** ****** ****** ******
      ****** ****** ****** ****** ****** ****** ****** ****** ****** ******
  10  ****** ****** ****** ****** ****** ****** ****** ****** ****** ******
      ****** ****** ****** ****** ****** ****** ****** ****** ****** ******
      ****** ****** ****** ****** ****** ****** ****** ****** ****** ******
  11  ****** ****** ****** ****** ****** ****** ****** ****** ****** ******
      ****** ****** ****** ****** ****** ****** ****** ****** ****** ******
      ****** ****** ****** ****** ****** ****** ****** ****** ****** ******
  12  ****** ****** ****** ****** ****** ****** ****** ****** ****** ******
      ****** ****** ****** ****** ****** ****** ****** ****** ****** ******
      ****** ****** ****** ****** ****** ****** ****** ****** ****** ******
  13  ****** ****** ****** ****** ****** ****** ****** ****** ****** ******
      ****** ****** ****** ****** ****** ****** ****** ****** ****** ******
      ****** ****** ****** ****** ****** ****** ****** ****** ****** ******
  14  ****** ****** ****** ****** ****** ****** ****** ****** ****** ******
      ****** ****** ****** ****** ****** ****** ****** ****** ****** ******
      ****** ****** ****** ****** ****** ****** ****** ****** ****** ******
  15  ****** ****** ****** ****** ****** ****** ****** ****** ****** ******
      ****** ****** ****** ****** ****** ****** ****** ****** ****** ******
      ****** ****** ****** ****** ****** ****** ****** ****** ****** ******
  16  ****** ****** ****** ****** ****** ****** ****** ****** ****** ******
      ****** ****** ****** ****** ****** ****** ****** ****** ****** ******
      ****** ****** ****** ****** ****** ****** ****** ****** ****** ******
  17  ****** ****** ****** ****** ****** ****** ****** ****** ****** ******
      ****** ****** ****** ****** ****** ****** ****** ****** ****** ******
      ****** ****** ****** ****** ****** ****** ****** ****** ****** ******
  18  ****** ****** ****** ****** ****** ****** ****** ****** ****** ******
      ****** ****** ****** ****** ****** ****** ****** ****** ****** ******
      ****** ****** ****** ****** ****** ****** ****** ****** ****** ******
  19  ****** ****** ****** ****** ****** ****** ****** ****** ****** ******
      ****** ****** ****** ****** ****** ****** ****** ****** ****** ******
      ****** ****** ****** ****** ****** ****** ****** ****** ****** ******
  20  ****** ****** ****** ****** ****** ****** ****** ****** ****** ******
      ****** ****** ****** ****** ****** ****** ****** ****** ****** ******
      ****** ****** ****** ****** ****** ****** ****** ****** ****** ******
  21  ****** ****** ****** ****** ****** ****** ****** ****** ****** ******
      ****** ****** ****** ****** ****** ****** ****** ****** ****** ******
      ****** ****** ****** ****** ****** ****** ****** ****** ****** ******
  22  ****** ****** ****** ****** ****** ****** ****** ****** ****** ******
      ****** ****** ****** ****** ****** ****** ****** ****** ****** ******
      ****** ****** ****** ****** ****** ****** ****** ****** ****** ******
  23  ****** ****** ****** ****** ****** ****** ****** ****** ****** ******
      ****** ****** ****** ****** ****** ****** ****** ****** ****** ******
      ****** ****** ****** ****** ****** ****** ****** ****** ****** ******
  24  ****** ****** ****** ****** ****** ****** ****** ****** ****** ******
      ****** ****** ****** ****** ****** ****** ****** ****** ****** ******
      ****** ****** ****** ****** ****** ****** ****** ****** ****** ******
  25  ****** ****** ****** ****** ****** ****** ****** ****** ****** ******
      ****** ****** ****** ****** ****** ****** ****** ****** ****** ******
      ****** ****** ****** ****** ****** ****** ****** ****** ****** ******

 HEAD WILL BE SAVED ON UNIT   51 AT END OF TIME STEP    1, STRESS PERIOD    5
1
  VOLUMETRIC BUDGET FOR ENTIRE MODEL AT END OF TIME STEP    1, STRESS PERIOD   5
  ------------------------------------------------------------------------------

     CUMULATIVE VOLUMES      L**3       RATES FOR THIS TIME STEP      L**3/T
     ------------------                 ------------------------

           IN:                                      IN:
           ---                                      ---
             STORAGE =    24356919.7709               STORAGE =        4851.0495
       CONSTANT HEAD =    82747982.9253         CONSTANT HEAD =      199252.6790
               WELLS =           0.0000                 WELLS =           0.0000
            RECHARGE =    10074000.0000              RECHARGE =       13800.0000
      STREAM LEAKAGE =     2880965.5835        STREAM LEAKAGE =        6788.4403

            TOTAL IN =   120059868.2797              TOTAL IN =      224692.1688

          OUT:                                     OUT:
          ----                                     ----
             STORAGE =       25393.0634               STORAGE =           0.0000
       CONSTANT HEAD =           0.0000         CONSTANT HEAD =           0.0000
               WELLS =    47995038.3174                 WELLS =      105021.9657
            RECHARGE =           0.0000              RECHARGE =           0.0000
      STREAM LEAKAGE =    72039437.7359        STREAM LEAKAGE =      119670.2039

           TOTAL OUT =   120059869.1166             TOTAL OUT =      224692.1696

            IN - OUT =          -0.8370              IN - OUT =      -8.5147E-04

 PERCENT DISCREPANCY =          -0.00     PERCENT DISCREPANCY =          -0.00






         TIME SUMMARY AT END OF TIME STEP    1 IN STRESS PERIOD    5
                    SECONDS     MINUTES      HOURS       DAYS        YEARS
                    -----------------------------------------------------------
   TIME STEP LENGTH 7.94880E+06 1.32480E+05  2208.0      92.000     0.25188    
 STRESS PERIOD TIME 7.94880E+06 1.32480E+05  2208.0      92.000     0.25188    
         TOTAL TIME 3.94848E+07 6.58080E+05  10968.      457.00      1.2512    
1
1
                            STRESS PERIOD NO.    6, LENGTH =   91.00000    
                            -----------------------------------------------

                              NUMBER OF TIME STEPS =     1

                               MULTIPLIER FOR DELT =     1.500

                            INITIAL TIME STEP SIZE =   91.00000    

 WELL NO.  LAYER   ROW   COL   STRESS RATE         
 --------------------------------------------------
      1      1     23      9     -0.3450E+05
      2      1      3      9     -0.3274E+05
      3      1      3     14     -0.3778E+05

      3 WELLS

                 RECHARGE =  2.000000E-03

 REUSING STREAM SEGMENT DATA FROM LAST STRESS PERIOD
 
 SOLVING FOR HEAD 


     7 CALLS TO PCG ROUTINE FOR TIME STEP   1 IN STRESS PERIOD    6
    26 TOTAL ITERATIONS

 OUTPUT CONTROL FOR STRESS PERIOD    6   TIME STEP    1
    SAVE BUDGET
    SAVE HEAD FOR ALL LAYERS
    PRINT HEAD FOR ALL LAYERS
 UBDSV2 SAVING "STREAMFLOW OUT  " ON UNIT  50 AT TIME STEP  1, STRESS PERIOD   6



 STREAM LISTING     PERIOD      6   STEP        1

 LAYER ROW COL. STREAM  RCH.  FLOW INTO     FLOW TO   FLOW OUT OF   OVRLND.     DIRECT     STREAM       STREAM     STREAM     STREAM   STREAMBED  STREAMBED
                SEG.NO.  NO.  STRM. RCH.    AQUIFER    STRM. RCH.    RUNOFF     PRECIP       ET          HEAD       DEPTH      WIDTH   CONDCTNC.   GRADIENT

   1   13    1     1     1    1.0000E+05 -2.6386E+03   1.0264E+05  0.000E+00  0.000E+00  0.000E+00  4.84072E+01  1.458E-01  2.000E+01  2.000E+04 -1.319E-01
   1   13    2     1     2    1.0264E+05 -4.3708E+03   1.0701E+05  0.000E+00  0.000E+00  0.000E+00  4.79329E+01  1.488E-01  2.000E+01  2.000E+04 -2.185E-01
   1   14    3     1     3    1.0701E+05 -3.5716E+03   1.1058E+05  0.000E+00  0.000E+00  0.000E+00  4.74590E+01  1.522E-01  2.000E+01  2.000E+04 -1.786E-01
   1   15    4     1     4    1.1058E+05 -3.4748E+03   1.1406E+05  0.000E+00  0.000E+00  0.000E+00  4.69846E+01  1.551E-01  2.000E+01  2.000E+04 -1.737E-01
   1   16    5     1     5    1.1406E+05 -3.6331E+03   1.1769E+05  0.000E+00  0.000E+00  0.000E+00  4.65103E+01  1.580E-01  2.000E+01  2.000E+04 -1.817E-01
   1   16    6     1     6    1.1769E+05 -2.7404E+03   1.2043E+05  0.000E+00  0.000E+00  0.000E+00  4.60356E+01  1.606E-01  2.000E+01  2.000E+04 -1.370E-01
   1   16    7     1     7    1.2043E+05 -2.7013E+03   1.2313E+05  0.000E+00  0.000E+00  0.000E+00  4.55605E+01  1.628E-01  2.000E+01  2.000E+04 -1.351E-01
   1   16    8     1     8    1.2313E+05 -2.6632E+03   1.2579E+05  0.000E+00  0.000E+00  0.000E+00  4.50854E+01  1.649E-01  2.000E+01  2.000E+04 -1.332E-01
   1   16    9     1     9    1.2579E+05 -2.6373E+03   1.2843E+05  0.000E+00  0.000E+00  0.000E+00  4.46102E+01  1.670E-01  2.000E+01  2.000E+04 -1.319E-01
   1   16   10     1    10    1.2843E+05 -2.6407E+03   1.3107E+05  0.000E+00  0.000E+00  0.000E+00  4.41350E+01  1.691E-01  2.000E+01  2.000E+04 -1.320E-01
   1   16   11     1    11    1.3107E+05 -2.6948E+03   1.3377E+05  0.000E+00  0.000E+00  0.000E+00  4.36598E+01  1.712E-01  2.000E+01  2.000E+04 -1.347E-01
   1   16   12     1    12    1.3377E+05 -3.8341E+03   1.3760E+05  0.000E+00  0.000E+00  0.000E+00  4.31851E+01  1.737E-01  2.000E+01  2.000E+04 -1.917E-01
   1   15   13     1    13    1.3760E+05 -3.6966E+03   1.4130E+05  0.000E+00  0.000E+00  0.000E+00  4.27107E+01  1.766E-01  2.000E+01  2.000E+04 -1.848E-01
   1   14   14     1    14    1.4130E+05 -3.7085E+03   1.4501E+05  0.000E+00  0.000E+00  0.000E+00  4.22362E+01  1.794E-01  2.000E+01  2.000E+04 -1.854E-01
   1   13   15     1    15    1.4501E+05 -3.8277E+03   1.4883E+05  0.000E+00  0.000E+00  0.000E+00  4.17618E+01  1.822E-01  2.000E+01  2.000E+04 -1.914E-01
   1   12   16     1    16    1.4883E+05 -4.5683E+03   1.5340E+05  0.000E+00  0.000E+00  0.000E+00  4.12876E+01  1.853E-01  2.000E+01  2.000E+04 -2.284E-01
   1   12   17     1    17    1.5340E+05 -3.2573E+03   1.5666E+05  0.000E+00  0.000E+00  0.000E+00  4.08132E+01  1.882E-01  2.000E+01  2.000E+04 -1.629E-01
   1   12   18     1    18    1.5666E+05 -3.2593E+03   1.5992E+05  0.000E+00  0.000E+00  0.000E+00  4.03383E+01  1.905E-01  2.000E+01  2.000E+04 -1.630E-01
   1   12   19     1    19    1.5992E+05 -4.3436E+03   1.6426E+05  0.000E+00  0.000E+00  0.000E+00  3.98637E+01  1.933E-01  2.000E+01  2.000E+04 -2.172E-01
   1   13   20     1    20    1.6426E+05 -3.2358E+03   1.6750E+05  0.000E+00  0.000E+00  0.000E+00  3.93892E+01  1.960E-01  2.000E+01  2.000E+04 -1.618E-01
   1   14   21     1    21    1.6750E+05 -2.6539E+03   1.7015E+05  0.000E+00  0.000E+00  0.000E+00  3.89140E+01  1.981E-01  2.000E+01  2.000E+04 -1.327E-01
   1   14   22     1    22    1.7015E+05  4.9050E+03   1.6525E+05  0.000E+00  0.000E+00  0.000E+00  3.84359E+01  1.973E-01  2.000E+01  2.000E+04  2.452E-01
   1    9   30     2     1    5.0000E+04 -3.0101E+03   5.3010E+04  0.000E+00  0.000E+00  0.000E+00  4.02429E+01  1.179E-01  2.000E+01  2.000E+04 -1.505E-01
   1    9   29     2     2    5.3010E+04 -3.3330E+03   5.6343E+04  0.000E+00  0.000E+00  0.000E+00  3.99973E+01  1.223E-01  2.000E+01  2.000E+04 -1.666E-01
   1    9   28     2     3    5.6343E+04 -3.6941E+03   6.0037E+04  0.000E+00  0.000E+00  0.000E+00  3.97519E+01  1.269E-01  2.000E+01  2.000E+04 -1.847E-01
   1    9   27     2     4    6.0037E+04 -6.4016E+03   6.6439E+04  0.000E+00  0.000E+00  0.000E+00  3.95084E+01  1.334E-01  2.000E+01  2.000E+04 -3.201E-01
   1   10   26     2     5    6.6439E+04 -4.0319E+03   7.0471E+04  0.000E+00  0.000E+00  0.000E+00  3.92649E+01  1.399E-01  2.000E+01  2.000E+04 -2.016E-01
   1   11   25     2     6    7.0471E+04 -2.9576E+03   7.3428E+04  0.000E+00  0.000E+00  0.000E+00  3.90191E+01  1.441E-01  2.000E+01  2.000E+04 -1.479E-01
   1   12   24     2     7    7.3428E+04 -2.0830E+03   7.5511E+04  0.000E+00  0.000E+00  0.000E+00  3.87721E+01  1.471E-01  2.000E+01  2.000E+04 -1.041E-01
   1   13   23     2     8    7.5511E+04 -1.2500E+03   7.6761E+04  0.000E+00  0.000E+00  0.000E+00  3.85241E+01  1.491E-01  2.000E+01  2.000E+04 -6.250E-02
   1   14   22     2     9    7.6761E+04  1.6645E+03   7.5097E+04  0.000E+00  0.000E+00  0.000E+00  3.82739E+01  1.489E-01  2.000E+01  2.000E+04  8.322E-02
   1   14   22     3     1    2.4034E+05 -8.5956E+03   2.4894E+05  0.000E+00  0.000E+00  0.000E+00  3.77609E+01  2.053E-01  2.000E+01  2.000E+04 -4.298E-01
   1   15   23     3     2    2.4894E+05 -3.3894E+03   2.5233E+05  0.000E+00  0.000E+00  0.000E+00  3.68750E+01  2.083E-01  2.000E+01  2.000E+04 -1.695E-01
   1   15   24     3     3    2.5233E+05 -2.3445E+03   2.5467E+05  0.000E+00  0.000E+00  0.000E+00  3.59875E+01  2.097E-01  2.000E+01  2.000E+04 -1.172E-01
   1   15   25     3     4    2.5467E+05 -2.2172E+03   2.5689E+05  0.000E+00  0.000E+00  0.000E+00  3.50998E+01  2.109E-01  2.000E+01  2.000E+04 -1.109E-01
   1   15   26     3     5    2.5689E+05 -2.6344E+03   2.5952E+05  0.000E+00  0.000E+00  0.000E+00  3.42121E+01  2.121E-01  2.000E+01  2.000E+04 -1.317E-01
   1   16   27     3     6    2.5952E+05 -3.6780E+03   2.6320E+05  0.000E+00  0.000E+00  0.000E+00  3.33247E+01  2.136E-01  2.000E+01  2.000E+04 -1.839E-01
   1   17   28     3     7    2.6320E+05 -4.5133E+03   2.6772E+05  0.000E+00  0.000E+00  0.000E+00  3.24378E+01  2.156E-01  2.000E+01  2.000E+04 -2.257E-01
   1   18   29     3     8    2.6772E+05 -6.1706E+03   2.7389E+05  0.000E+00  0.000E+00  0.000E+00  3.15516E+01  2.182E-01  2.000E+01  2.000E+04 -3.085E-01
   1   18   30     3     9    2.7389E+05 -5.1056E+03   2.7899E+05  0.000E+00  0.000E+00  0.000E+00  3.06654E+01  2.209E-01  2.000E+01  2.000E+04 -2.553E-01



1
              HEAD IN LAYER   1 AT END OF TIME STEP   1 IN STRESS PERIOD    6
  ---------------------------------------------------------------------------

          1      2      3      4      5      6      7      8      9     10
         11     12     13     14     15     16     17     18     19     20
         21     22     23     24     25     26     27     28     29     30
 .........................................................................
   1  ****** ****** ****** ****** ****** ****** ****** ****** ****** ******
      ****** ****** ****** ****** ****** ****** ****** ****** ****** ******
      ****** ****** ****** ****** ****** ****** ****** ****** ****** ******
   2  ****** ****** ****** ****** ****** ****** ****** ****** ****** ******
      ****** ****** ****** ****** ****** ****** ****** ****** ****** ******
      ****** ****** ****** ****** ****** ****** ****** ****** ****** ******
   3  ****** ****** ****** ****** ****** ****** ****** ****** ****** ******
      ****** ****** ****** ****** ****** ****** ****** ****** ****** ******
      ****** ****** ****** ****** ****** ****** ****** ****** ****** ******
   4  ****** ****** ****** ****** ****** ****** ****** ****** ****** ******
      ****** ****** ****** ****** ****** ****** ****** ****** ****** ******
      ****** ****** ****** ****** ****** ****** ****** ****** ****** ******
   5  ****** ****** ****** ****** ****** ****** ****** ****** ****** ******
      ****** ****** ****** ****** ****** ****** ****** ****** ****** ******
      ****** ****** ****** ****** ****** ****** ****** ****** ****** ******
   6  ****** ****** ****** ****** ****** ****** ****** ****** ****** ******
      ****** ****** ****** ****** ****** ****** ****** ****** ****** ******
      ****** ****** ****** ****** ****** ****** ****** ****** ****** ******
   7  ****** ****** ****** ****** ****** ****** ****** ****** ****** ******
      ****** ****** ****** ****** ****** ****** ****** ****** ****** ******
      ****** ****** ****** ****** ****** ****** ****** ****** ****** ******
   8  ****** ****** ****** ****** ****** ****** ****** ****** ****** ******
      ****** ****** ****** ****** ****** ****** ****** ****** ****** ******
      ****** ****** ****** ****** ****** ****** ****** ****** ****** ******
   9  ****** ****** ****** ****** ****** ****** ****** ****** ****** ******
      ****** ****** ****** ****** ****** ****** ****** ****** ****** ******
      ****** ****** ****** ****** ****** ****** ****** ****** ****** ******
  10  ****** ****** ****** ****** ****** ****** ****** ****** ****** ******
      ****** ****** ****** ****** ****** ****** ****** ****** ****** ******
      ****** ****** ****** ****** ****** ****** ****** ****** ****** ******
  11  ****** ****** ****** ****** ****** ****** ****** ****** ****** ******
      ****** ****** ****** ****** ****** ****** ****** ****** ****** ******
      ****** ****** ****** ****** ****** ****** ****** ****** ****** ******
  12  ****** ****** ****** ****** ****** ****** ****** ****** ****** ******
      ****** ****** ****** ****** ****** ****** ****** ****** ****** ******
      ****** ****** ****** ****** ****** ****** ****** ****** ****** ******
  13  ****** ****** ****** ****** ****** ****** ****** ****** ****** ******
      ****** ****** ****** ****** ****** ****** ****** ****** ****** ******
      ****** ****** ****** ****** ****** ****** ****** ****** ****** ******
  14  ****** ****** ****** ****** ****** ****** ****** ****** ****** ******
      ****** ****** ****** ****** ****** ****** ****** ****** ****** ******
      ****** ****** ****** ****** ****** ****** ****** ****** ****** ******
  15  ****** ****** ****** ****** ****** ****** ****** ****** ****** ******
      ****** ****** ****** ****** ****** ****** ****** ****** ****** ******
      ****** ****** ****** ****** ****** ****** ****** ****** ****** ******
  16  ****** ****** ****** ****** ****** ****** ****** ****** ****** ******
      ****** ****** ****** ****** ****** ****** ****** ****** ****** ******
      ****** ****** ****** ****** ****** ****** ****** ****** ****** ******
  17  ****** ****** ****** ****** ****** ****** ****** ****** ****** ******
      ****** ****** ****** ****** ****** ****** ****** ****** ****** ******
      ****** ****** ****** ****** ****** ****** ****** ****** ****** ******
  18  ****** ****** ****** ****** ****** ****** ****** ****** ****** ******
      ****** ****** ****** ****** ****** ****** ****** ****** ****** ******
      ****** ****** ****** ****** ****** ****** ****** ****** ****** ******
  19  ****** ****** ****** ****** ****** ****** ****** ****** ****** ******
      ****** ****** ****** ****** ****** ****** ****** ****** ****** ******
      ****** ****** ****** ****** ****** ****** ****** ****** ****** ******
  20  ****** ****** ****** ****** ****** ****** ****** ****** ****** ******
      ****** ****** ****** ****** ****** ****** ****** ****** ****** ******
      ****** ****** ****** ****** ****** ****** ****** ****** ****** ******
  21  ****** ****** ****** ****** ****** ****** ****** ****** ****** ******
      ****** ****** ****** ****** ****** ****** ****** ****** ****** ******
      ****** ****** ****** ****** ****** ****** ****** ****** ****** ******
  22  ****** ****** ****** ****** ****** ****** ****** ****** ****** ******
      ****** ****** ****** ****** ****** ****** ****** ****** ****** ******
      ****** ****** ****** ****** ****** ****** ****** ****** ****** ******
  23  ****** ****** ****** ****** ****** ****** ****** ****** ****** ******
      ****** ****** ****** ****** ****** ****** ****** ****** ****** ******
      ****** ****** ****** ****** ****** ****** ****** ****** ****** ******
  24  ****** ****** ****** ****** ****** ****** ****** ****** ****** ******
      ****** ****** ****** ****** ****** ****** ****** ****** ****** ******
      ****** ****** ****** ****** ****** ****** ****** ****** ****** ******
  25  ****** ****** ****** ****** ****** ****** ****** ****** ****** ******
      ****** ****** ****** ****** ****** ****** ****** ****** ****** ******
      ****** ****** ****** ****** ****** ****** ****** ****** ****** ******

 HEAD WILL BE SAVED ON UNIT   51 AT END OF TIME STEP    1, STRESS PERIOD    6
1
  VOLUMETRIC BUDGET FOR ENTIRE MODEL AT END OF TIME STEP    1, STRESS PERIOD   6
  ------------------------------------------------------------------------------

     CUMULATIVE VOLUMES      L**3       RATES FOR THIS TIME STEP      L**3/T
     ------------------                 ------------------------

           IN:                                      IN:
           ---                                      ---
             STORAGE =    24356919.7709               STORAGE =           0.0000
       CONSTANT HEAD =    99922195.0899         CONSTANT HEAD =      188727.6062
               WELLS =           0.0000                 WELLS =           0.0000
            RECHARGE =    15097200.0000              RECHARGE =       55200.0000
      STREAM LEAKAGE =     3478784.3206        STREAM LEAKAGE =        6569.4367

            TOTAL IN =   142855099.1814              TOTAL IN =      250497.0429

          OUT:                                     OUT:
          ----                                     ----
             STORAGE =      927521.1094               STORAGE =        9913.4950
       CONSTANT HEAD =           0.0000         CONSTANT HEAD =           0.0000
               WELLS =    57552037.1946                 WELLS =      105021.9657
            RECHARGE =           0.0000              RECHARGE =           0.0000
      STREAM LEAKAGE =    84375541.5623        STREAM LEAKAGE =      135561.5805

           TOTAL OUT =   142855099.8664             TOTAL OUT =      250497.0412

            IN - OUT =          -0.6850              IN - OUT =       1.6706E-03

 PERCENT DISCREPANCY =          -0.00     PERCENT DISCREPANCY =           0.00






         TIME SUMMARY AT END OF TIME STEP    1 IN STRESS PERIOD    6
                    SECONDS     MINUTES      HOURS       DAYS        YEARS
                    -----------------------------------------------------------
   TIME STEP LENGTH 7.86240E+06 1.31040E+05  2184.0      91.000     0.24914    
 STRESS PERIOD TIME 7.86240E+06 1.31040E+05  2184.0      91.000     0.24914    
         TOTAL TIME 4.73472E+07 7.89120E+05  13152.      548.00      1.5003    
1
1
                            STRESS PERIOD NO.    7, LENGTH =   91.00000    
                            -----------------------------------------------

                              NUMBER OF TIME STEPS =     1

                               MULTIPLIER FOR DELT =     1.500

                            INITIAL TIME STEP SIZE =   91.00000    

 WELL NO.  LAYER   ROW   COL   STRESS RATE         
 --------------------------------------------------
      1      1     23      9     -0.3450E+05
      2      1      3      9     -0.3274E+05
      3      1      3     14     -0.3778E+05

      3 WELLS

                 RECHARGE =   0.00000    

 REUSING STREAM SEGMENT DATA FROM LAST STRESS PERIOD
 
 SOLVING FOR HEAD 


     7 CALLS TO PCG ROUTINE FOR TIME STEP   1 IN STRESS PERIOD    7
    26 TOTAL ITERATIONS

 OUTPUT CONTROL FOR STRESS PERIOD    7   TIME STEP    1
    SAVE BUDGET
    SAVE HEAD FOR ALL LAYERS
    PRINT HEAD FOR ALL LAYERS
 UBDSV2 SAVING "STREAMFLOW OUT  " ON UNIT  50 AT TIME STEP  1, STRESS PERIOD   7



 STREAM LISTING     PERIOD      7   STEP        1

 LAYER ROW COL. STREAM  RCH.  FLOW INTO     FLOW TO   FLOW OUT OF   OVRLND.     DIRECT     STREAM       STREAM     STREAM     STREAM   STREAMBED  STREAMBED
                SEG.NO.  NO.  STRM. RCH.    AQUIFER    STRM. RCH.    RUNOFF     PRECIP       ET          HEAD       DEPTH      WIDTH   CONDCTNC.   GRADIENT

   1   13    1     1     1    1.0000E+05 -2.1401E+03   1.0214E+05  0.000E+00  0.000E+00  0.000E+00  4.84069E+01  1.456E-01  2.000E+01  2.000E+04 -1.070E-01
   1   13    2     1     2    1.0214E+05 -3.7152E+03   1.0586E+05  0.000E+00  0.000E+00  0.000E+00  4.79322E+01  1.481E-01  2.000E+01  2.000E+04 -1.858E-01
   1   14    3     1     3    1.0586E+05 -2.9008E+03   1.0876E+05  0.000E+00  0.000E+00  0.000E+00  4.74577E+01  1.509E-01  2.000E+01  2.000E+04 -1.450E-01
   1   15    4     1     4    1.0876E+05 -2.8105E+03   1.1157E+05  0.000E+00  0.000E+00  0.000E+00  4.69828E+01  1.533E-01  2.000E+01  2.000E+04 -1.405E-01
   1   16    5     1     5    1.1157E+05 -3.0238E+03   1.1459E+05  0.000E+00  0.000E+00  0.000E+00  4.65080E+01  1.557E-01  2.000E+01  2.000E+04 -1.512E-01
   1   16    6     1     6    1.1459E+05 -2.2564E+03   1.1685E+05  0.000E+00  0.000E+00  0.000E+00  4.60329E+01  1.579E-01  2.000E+01  2.000E+04 -1.128E-01
   1   16    7     1     7    1.1685E+05 -2.2097E+03   1.1906E+05  0.000E+00  0.000E+00  0.000E+00  4.55574E+01  1.597E-01  2.000E+01  2.000E+04 -1.105E-01
   1   16    8     1     8    1.1906E+05 -2.1673E+03   1.2122E+05  0.000E+00  0.000E+00  0.000E+00  4.50819E+01  1.615E-01  2.000E+01  2.000E+04 -1.084E-01
   1   16    9     1     9    1.2122E+05 -2.1416E+03   1.2337E+05  0.000E+00  0.000E+00  0.000E+00  4.46064E+01  1.632E-01  2.000E+01  2.000E+04 -1.071E-01
   1   16   10     1    10    1.2337E+05 -2.1495E+03   1.2551E+05  0.000E+00  0.000E+00  0.000E+00  4.41308E+01  1.649E-01  2.000E+01  2.000E+04 -1.075E-01
   1   16   11     1    11    1.2551E+05 -2.2107E+03   1.2773E+05  0.000E+00  0.000E+00  0.000E+00  4.36553E+01  1.667E-01  2.000E+01  2.000E+04 -1.105E-01
   1   16   12     1    12    1.2773E+05 -3.2165E+03   1.3094E+05  0.000E+00  0.000E+00  0.000E+00  4.31802E+01  1.688E-01  2.000E+01  2.000E+04 -1.608E-01
   1   15   13     1    13    1.3094E+05 -3.0209E+03   1.3396E+05  0.000E+00  0.000E+00  0.000E+00  4.27053E+01  1.712E-01  2.000E+01  2.000E+04 -1.510E-01
   1   14   14     1    14    1.3396E+05 -3.0199E+03   1.3698E+05  0.000E+00  0.000E+00  0.000E+00  4.22304E+01  1.736E-01  2.000E+01  2.000E+04 -1.510E-01
   1   13   15     1    15    1.3698E+05 -3.1502E+03   1.4013E+05  0.000E+00  0.000E+00  0.000E+00  4.17555E+01  1.759E-01  2.000E+01  2.000E+04 -1.575E-01
   1   12   16     1    16    1.4013E+05 -3.9237E+03   1.4406E+05  0.000E+00  0.000E+00  0.000E+00  4.12809E+01  1.786E-01  2.000E+01  2.000E+04 -1.962E-01
   1   12   17     1    17    1.4406E+05 -2.7748E+03   1.4683E+05  0.000E+00  0.000E+00  0.000E+00  4.08061E+01  1.811E-01  2.000E+01  2.000E+04 -1.387E-01
   1   12   18     1    18    1.4683E+05 -2.7846E+03   1.4962E+05  0.000E+00  0.000E+00  0.000E+00  4.03309E+01  1.832E-01  2.000E+01  2.000E+04 -1.392E-01
   1   12   19     1    19    1.4962E+05 -3.7654E+03   1.5338E+05  0.000E+00  0.000E+00  0.000E+00  3.98561E+01  1.856E-01  2.000E+01  2.000E+04 -1.883E-01
   1   13   20     1    20    1.5338E+05 -2.6673E+03   1.5605E+05  0.000E+00  0.000E+00  0.000E+00  3.93811E+01  1.880E-01  2.000E+01  2.000E+04 -1.334E-01
   1   14   21     1    21    1.5605E+05 -2.1345E+03   1.5818E+05  0.000E+00  0.000E+00  0.000E+00  3.89056E+01  1.897E-01  2.000E+01  2.000E+04 -1.067E-01
   1   14   22     1    22    1.5818E+05  5.0047E+03   1.5318E+05  0.000E+00  0.000E+00  0.000E+00  3.84273E+01  1.887E-01  2.000E+01  2.000E+04  2.502E-01
   1    9   30     2     1    5.0000E+04 -2.5670E+03   5.2567E+04  0.000E+00  0.000E+00  0.000E+00  4.02426E+01  1.176E-01  2.000E+01  2.000E+04 -1.284E-01
   1    9   29     2     2    5.2567E+04 -2.8936E+03   5.5461E+04  0.000E+00  0.000E+00  0.000E+00  3.99964E+01  1.214E-01  2.000E+01  2.000E+04 -1.447E-01
   1    9   28     2     3    5.5461E+04 -3.2578E+03   5.8718E+04  0.000E+00  0.000E+00  0.000E+00  3.97505E+01  1.255E-01  2.000E+01  2.000E+04 -1.629E-01
   1    9   27     2     4    5.8718E+04 -5.8253E+03   6.4544E+04  0.000E+00  0.000E+00  0.000E+00  3.95064E+01  1.314E-01  2.000E+01  2.000E+04 -2.913E-01
   1   10   26     2     5    6.4544E+04 -3.4299E+03   6.7974E+04  0.000E+00  0.000E+00  0.000E+00  3.92622E+01  1.372E-01  2.000E+01  2.000E+04 -1.715E-01
   1   11   25     2     6    6.7974E+04 -2.3790E+03   7.0352E+04  0.000E+00  0.000E+00  0.000E+00  3.90158E+01  1.408E-01  2.000E+01  2.000E+04 -1.189E-01
   1   12   24     2     7    7.0352E+04 -1.5679E+03   7.1920E+04  0.000E+00  0.000E+00  0.000E+00  3.87682E+01  1.432E-01  2.000E+01  2.000E+04 -7.840E-02
   1   13   23     2     8    7.1920E+04 -8.4429E+02   7.2765E+04  0.000E+00  0.000E+00  0.000E+00  3.85196E+01  1.446E-01  2.000E+01  2.000E+04 -4.221E-02
   1   14   22     2     9    7.2765E+04  1.8392E+03   7.0925E+04  0.000E+00  0.000E+00  0.000E+00  3.82690E+01  1.440E-01  2.000E+01  2.000E+04  9.196E-02
   1   14   22     3     1    2.2410E+05 -8.4901E+03   2.3259E+05  0.000E+00  0.000E+00  0.000E+00  3.77526E+01  1.970E-01  2.000E+01  2.000E+04 -4.245E-01
   1   15   23     3     2    2.3259E+05 -2.9045E+03   2.3550E+05  0.000E+00  0.000E+00  0.000E+00  3.68666E+01  1.999E-01  2.000E+01  2.000E+04 -1.452E-01
   1   15   24     3     3    2.3550E+05 -1.9878E+03   2.3749E+05  0.000E+00  0.000E+00  0.000E+00  3.59790E+01  2.012E-01  2.000E+01  2.000E+04 -9.939E-02
   1   15   25     3     4    2.3749E+05 -1.8571E+03   2.3934E+05  0.000E+00  0.000E+00  0.000E+00  3.50911E+01  2.022E-01  2.000E+01  2.000E+04 -9.286E-02
   1   15   26     3     5    2.3934E+05 -2.1692E+03   2.4151E+05  0.000E+00  0.000E+00  0.000E+00  3.42032E+01  2.032E-01  2.000E+01  2.000E+04 -1.085E-01
   1   16   27     3     6    2.4151E+05 -3.1000E+03   2.4461E+05  0.000E+00  0.000E+00  0.000E+00  3.33156E+01  2.045E-01  2.000E+01  2.000E+04 -1.550E-01
   1   17   28     3     7    2.4461E+05 -3.9246E+03   2.4854E+05  0.000E+00  0.000E+00  0.000E+00  3.24285E+01  2.063E-01  2.000E+01  2.000E+04 -1.962E-01
   1   18   29     3     8    2.4854E+05 -5.6216E+03   2.5416E+05  0.000E+00  0.000E+00  0.000E+00  3.15420E+01  2.087E-01  2.000E+01  2.000E+04 -2.811E-01
   1   18   30     3     9    2.5416E+05 -4.6874E+03   2.5885E+05  0.000E+00  0.000E+00  0.000E+00  3.06557E+01  2.112E-01  2.000E+01  2.000E+04 -2.344E-01



1
              HEAD IN LAYER   1 AT END OF TIME STEP   1 IN STRESS PERIOD    7
  ---------------------------------------------------------------------------

          1      2      3      4      5      6      7      8      9     10
         11     12     13     14     15     16     17     18     19     20
         21     22     23     24     25     26     27     28     29     30
 .........................................................................
   1  ****** ****** ****** ****** ****** ****** ****** ****** ****** ******
      ****** ****** ****** ****** ****** ****** ****** ****** ****** ******
      ****** ****** ****** ****** ****** ****** ****** ****** ****** ******
   2  ****** ****** ****** ****** ****** ****** ****** ****** ****** ******
      ****** ****** ****** ****** ****** ****** ****** ****** ****** ******
      ****** ****** ****** ****** ****** ****** ****** ****** ****** ******
   3  ****** ****** ****** ****** ****** ****** ****** ****** ****** ******
      ****** ****** ****** ****** ****** ****** ****** ****** ****** ******
      ****** ****** ****** ****** ****** ****** ****** ****** ****** ******
   4  ****** ****** ****** ****** ****** ****** ****** ****** ****** ******
      ****** ****** ****** ****** ****** ****** ****** ****** ****** ******
      ****** ****** ****** ****** ****** ****** ****** ****** ****** ******
   5  ****** ****** ****** ****** ****** ****** ****** ****** ****** ******
      ****** ****** ****** ****** ****** ****** ****** ****** ****** ******
      ****** ****** ****** ****** ****** ****** ****** ****** ****** ******
   6  ****** ****** ****** ****** ****** ****** ****** ****** ****** ******
      ****** ****** ****** ****** ****** ****** ****** ****** ****** ******
      ****** ****** ****** ****** ****** ****** ****** ****** ****** ******
   7  ****** ****** ****** ****** ****** ****** ****** ****** ****** ******
      ****** ****** ****** ****** ****** ****** ****** ****** ****** ******
      ****** ****** ****** ****** ****** ****** ****** ****** ****** ******
   8  ****** ****** ****** ****** ****** ****** ****** ****** ****** ******
      ****** ****** ****** ****** ****** ****** ****** ****** ****** ******
      ****** ****** ****** ****** ****** ****** ****** ****** ****** ******
   9  ****** ****** ****** ****** ****** ****** ****** ****** ****** ******
      ****** ****** ****** ****** ****** ****** ****** ****** ****** ******
      ****** ****** ****** ****** ****** ****** ****** ****** ****** ******
  10  ****** ****** ****** ****** ****** ****** ****** ****** ****** ******
      ****** ****** ****** ****** ****** ****** ****** ****** ****** ******
      ****** ****** ****** ****** ****** ****** ****** ****** ****** ******
  11  ****** ****** ****** ****** ****** ****** ****** ****** ****** ******
      ****** ****** ****** ****** ****** ****** ****** ****** ****** ******
      ****** ****** ****** ****** ****** ****** ****** ****** ****** ******
  12  ****** ****** ****** ****** ****** ****** ****** ****** ****** ******
      ****** ****** ****** ****** ****** ****** ****** ****** ****** ******
      ****** ****** ****** ****** ****** ****** ****** ****** ****** ******
  13  ****** ****** ****** ****** ****** ****** ****** ****** ****** ******
      ****** ****** ****** ****** ****** ****** ****** ****** ****** ******
      ****** ****** ****** ****** ****** ****** ****** ****** ****** ******
  14  ****** ****** ****** ****** ****** ****** ****** ****** ****** ******
      ****** ****** ****** ****** ****** ****** ****** ****** ****** ******
      ****** ****** ****** ****** ****** ****** ****** ****** ****** ******
  15  ****** ****** ****** ****** ****** ****** ****** ****** ****** ******
      ****** ****** ****** ****** ****** ****** ****** ****** ****** ******
      ****** ****** ****** ****** ****** ****** ****** ****** ****** ******
  16  ****** ****** ****** ****** ****** ****** ****** ****** ****** ******
      ****** ****** ****** ****** ****** ****** ****** ****** ****** ******
      ****** ****** ****** ****** ****** ****** ****** ****** ****** ******
  17  ****** ****** ****** ****** ****** ****** ****** ****** ****** ******
      ****** ****** ****** ****** ****** ****** ****** ****** ****** ******
      ****** ****** ****** ****** ****** ****** ****** ****** ****** ******
  18  ****** ****** ****** ****** ****** ****** ****** ****** ****** ******
      ****** ****** ****** ****** ****** ****** ****** ****** ****** ******
      ****** ****** ****** ****** ****** ****** ****** ****** ****** ******
  19  ****** ****** ****** ****** ****** ****** ****** ****** ****** ******
      ****** ****** ****** ****** ****** ****** ****** ****** ****** ******
      ****** ****** ****** ****** ****** ****** ****** ****** ****** ******
  20  ****** ****** ****** ****** ****** ****** ****** ****** ****** ******
      ****** ****** ****** ****** ****** ****** ****** ****** ****** ******
      ****** ****** ****** ****** ****** ****** ****** ****** ****** ******
  21  ****** ****** ****** ****** ****** ****** ****** ****** ****** ******
      ****** ****** ****** ****** ****** ****** ****** ****** ****** ******
      ****** ****** ****** ****** ****** ****** ****** ****** ****** ******
  22  ****** ****** ****** ****** ****** ****** ****** ****** ****** ******
      ****** ****** ****** ****** ****** ****** ****** ****** ****** ******
      ****** ****** ****** ****** ****** ****** ****** ****** ****** ******
  23  ****** ****** ****** ****** ****** ****** ****** ****** ****** ******
      ****** ****** ****** ****** ****** ****** ****** ****** ****** ******
      ****** ****** ****** ****** ****** ****** ****** ****** ****** ******
  24  ****** ****** ****** ****** ****** ****** ****** ****** ****** ******
      ****** ****** ****** ****** ****** ****** ****** ****** ****** ******
      ****** ****** ****** ****** ****** ****** ****** ****** ****** ******
  25  ****** ****** ****** ****** ****** ****** ****** ****** ****** ******
      ****** ****** ****** ****** ****** ****** ****** ****** ****** ******
      ****** ****** ****** ****** ****** ****** ****** ****** ****** ******

 HEAD WILL BE SAVED ON UNIT   51 AT END OF TIME STEP    1, STRESS PERIOD    7
1
  VOLUMETRIC BUDGET FOR ENTIRE MODEL AT END OF TIME STEP    1, STRESS PERIOD   7
  ------------------------------------------------------------------------------

     CUMULATIVE VOLUMES      L**3       RATES FOR THIS TIME STEP      L**3/T
     ------------------                 ------------------------

           IN:                                      IN:
           ---                                      ---
             STORAGE =    25465771.0027               STORAGE =       12185.1784
       CONSTANT HEAD =   118275393.5270         CONSTANT HEAD =      201683.4993
               WELLS =           0.0000                 WELLS =           0.0000
            RECHARGE =    15097200.0000              RECHARGE =           0.0000
      STREAM LEAKAGE =     4101577.4757        STREAM LEAKAGE =        6843.8808

            TOTAL IN =   162939942.0054              TOTAL IN =      220712.5585

          OUT:                                     OUT:
          ----                                     ----
             STORAGE =      927521.1094               STORAGE =           0.0000
       CONSTANT HEAD =           0.0000         CONSTANT HEAD =           0.0000
               WELLS =    67109036.0718                 WELLS =      105021.9657
            RECHARGE =           0.0000              RECHARGE =           0.0000
      STREAM LEAKAGE =    94903385.7119        STREAM LEAKAGE =      115690.5950

           TOTAL OUT =   162939942.8931             TOTAL OUT =      220712.5607

            IN - OUT =          -0.8877              IN - OUT =      -2.2276E-03

 PERCENT DISCREPANCY =          -0.00     PERCENT DISCREPANCY =          -0.00






         TIME SUMMARY AT END OF TIME STEP    1 IN STRESS PERIOD    7
                    SECONDS     MINUTES      HOURS       DAYS        YEARS
                    -----------------------------------------------------------
   TIME STEP LENGTH 7.86240E+06 1.31040E+05  2184.0      91.000     0.24914    
 STRESS PERIOD TIME 7.86240E+06 1.31040E+05  2184.0      91.000     0.24914    
         TOTAL TIME 5.52096E+07 9.20160E+05  15336.      639.00      1.7495    
1
1
                            STRESS PERIOD NO.    8, LENGTH =   91.00000    
                            -----------------------------------------------

                              NUMBER OF TIME STEPS =     1

                               MULTIPLIER FOR DELT =     1.500

                            INITIAL TIME STEP SIZE =   91.00000    

 WELL NO.  LAYER   ROW   COL   STRESS RATE         
 --------------------------------------------------
      1      1     23      9     -0.3450E+05
      2      1      3      9     -0.3274E+05
      3      1      3     14     -0.3778E+05

      3 WELLS

                 RECHARGE =  1.000000E-03

 REUSING STREAM SEGMENT DATA FROM LAST STRESS PERIOD
 
 SOLVING FOR HEAD 


     6 CALLS TO PCG ROUTINE FOR TIME STEP   1 IN STRESS PERIOD    8
    23 TOTAL ITERATIONS

 OUTPUT CONTROL FOR STRESS PERIOD    8   TIME STEP    1
    SAVE BUDGET
    SAVE HEAD FOR ALL LAYERS
    PRINT HEAD FOR ALL LAYERS
 UBDSV2 SAVING "STREAMFLOW OUT  " ON UNIT  50 AT TIME STEP  1, STRESS PERIOD   8



 STREAM LISTING     PERIOD      8   STEP        1

 LAYER ROW COL. STREAM  RCH.  FLOW INTO     FLOW TO   FLOW OUT OF   OVRLND.     DIRECT     STREAM       STREAM     STREAM     STREAM   STREAMBED  STREAMBED
                SEG.NO.  NO.  STRM. RCH.    AQUIFER    STRM. RCH.    RUNOFF     PRECIP       ET          HEAD       DEPTH      WIDTH   CONDCTNC.   GRADIENT

   1   13    1     1     1    1.0000E+05 -2.3076E+03   1.0231E+05  0.000E+00  0.000E+00  0.000E+00  4.84070E+01  1.457E-01  2.000E+01  2.000E+04 -1.154E-01
   1   13    2     1     2    1.0231E+05 -3.9236E+03   1.0623E+05  0.000E+00  0.000E+00  0.000E+00  4.79324E+01  1.483E-01  2.000E+01  2.000E+04 -1.962E-01
   1   14    3     1     3    1.0623E+05 -3.1332E+03   1.0936E+05  0.000E+00  0.000E+00  0.000E+00  4.74581E+01  1.513E-01  2.000E+01  2.000E+04 -1.567E-01
   1   15    4     1     4    1.0936E+05 -3.0465E+03   1.1241E+05  0.000E+00  0.000E+00  0.000E+00  4.69835E+01  1.539E-01  2.000E+01  2.000E+04 -1.523E-01
   1   16    5     1     5    1.1241E+05 -3.2434E+03   1.1565E+05  0.000E+00  0.000E+00  0.000E+00  4.65088E+01  1.565E-01  2.000E+01  2.000E+04 -1.622E-01
   1   16    6     1     6    1.1565E+05 -2.4304E+03   1.1808E+05  0.000E+00  0.000E+00  0.000E+00  4.60338E+01  1.588E-01  2.000E+01  2.000E+04 -1.215E-01
   1   16    7     1     7    1.1808E+05 -2.3851E+03   1.2047E+05  0.000E+00  0.000E+00  0.000E+00  4.55585E+01  1.608E-01  2.000E+01  2.000E+04 -1.193E-01
   1   16    8     1     8    1.2047E+05 -2.3437E+03   1.2281E+05  0.000E+00  0.000E+00  0.000E+00  4.50831E+01  1.627E-01  2.000E+01  2.000E+04 -1.172E-01
   1   16    9     1     9    1.2281E+05 -2.3179E+03   1.2513E+05  0.000E+00  0.000E+00  0.000E+00  4.46077E+01  1.646E-01  2.000E+01  2.000E+04 -1.159E-01
   1   16   10     1    10    1.2513E+05 -2.3249E+03   1.2746E+05  0.000E+00  0.000E+00  0.000E+00  4.41323E+01  1.664E-01  2.000E+01  2.000E+04 -1.162E-01
   1   16   11     1    11    1.2746E+05 -2.3845E+03   1.2984E+05  0.000E+00  0.000E+00  0.000E+00  4.36569E+01  1.683E-01  2.000E+01  2.000E+04 -1.192E-01
   1   16   12     1    12    1.2984E+05 -3.4364E+03   1.3328E+05  0.000E+00  0.000E+00  0.000E+00  4.31819E+01  1.705E-01  2.000E+01  2.000E+04 -1.718E-01
   1   15   13     1    13    1.3328E+05 -3.2596E+03   1.3654E+05  0.000E+00  0.000E+00  0.000E+00  4.27072E+01  1.731E-01  2.000E+01  2.000E+04 -1.630E-01
   1   14   14     1    14    1.3654E+05 -3.2605E+03   1.3980E+05  0.000E+00  0.000E+00  0.000E+00  4.22324E+01  1.756E-01  2.000E+01  2.000E+04 -1.630E-01
   1   13   15     1    15    1.3980E+05 -3.3848E+03   1.4318E+05  0.000E+00  0.000E+00  0.000E+00  4.17577E+01  1.781E-01  2.000E+01  2.000E+04 -1.692E-01
   1   12   16     1    16    1.4318E+05 -4.1363E+03   1.4732E+05  0.000E+00  0.000E+00  0.000E+00  4.12832E+01  1.810E-01  2.000E+01  2.000E+04 -2.068E-01
   1   12   17     1    17    1.4732E+05 -2.9449E+03   1.5026E+05  0.000E+00  0.000E+00  0.000E+00  4.08086E+01  1.836E-01  2.000E+01  2.000E+04 -1.472E-01
   1   12   18     1    18    1.5026E+05 -2.9547E+03   1.5322E+05  0.000E+00  0.000E+00  0.000E+00  4.03335E+01  1.858E-01  2.000E+01  2.000E+04 -1.477E-01
   1   12   19     1    19    1.5322E+05 -3.9732E+03   1.5719E+05  0.000E+00  0.000E+00  0.000E+00  3.98588E+01  1.883E-01  2.000E+01  2.000E+04 -1.987E-01
   1   13   20     1    20    1.5719E+05 -2.8842E+03   1.6008E+05  0.000E+00  0.000E+00  0.000E+00  3.93840E+01  1.908E-01  2.000E+01  2.000E+04 -1.442E-01
   1   14   21     1    21    1.6008E+05 -2.3299E+03   1.6241E+05  0.000E+00  0.000E+00  0.000E+00  3.89086E+01  1.927E-01  2.000E+01  2.000E+04 -1.165E-01
   1   14   22     1    22    1.6241E+05  4.9611E+03   1.5744E+05  0.000E+00  0.000E+00  0.000E+00  3.84304E+01  1.917E-01  2.000E+01  2.000E+04  2.481E-01
   1    9   30     2     1    5.0000E+04 -2.7459E+03   5.2746E+04  0.000E+00  0.000E+00  0.000E+00  4.02428E+01  1.178E-01  2.000E+01  2.000E+04 -1.373E-01
   1    9   29     2     2    5.2746E+04 -3.0706E+03   5.5817E+04  0.000E+00  0.000E+00  0.000E+00  3.99967E+01  1.217E-01  2.000E+01  2.000E+04 -1.535E-01
   1    9   28     2     3    5.5817E+04 -3.4322E+03   5.9249E+04  0.000E+00  0.000E+00  0.000E+00  3.97510E+01  1.260E-01  2.000E+01  2.000E+04 -1.716E-01
   1    9   27     2     4    5.9249E+04 -6.0442E+03   6.5293E+04  0.000E+00  0.000E+00  0.000E+00  3.95072E+01  1.322E-01  2.000E+01  2.000E+04 -3.022E-01
   1   10   26     2     5    6.5293E+04 -3.6658E+03   6.8959E+04  0.000E+00  0.000E+00  0.000E+00  3.92633E+01  1.383E-01  2.000E+01  2.000E+04 -1.833E-01
   1   11   25     2     6    6.8959E+04 -2.6084E+03   7.1567E+04  0.000E+00  0.000E+00  0.000E+00  3.90171E+01  1.421E-01  2.000E+01  2.000E+04 -1.304E-01
   1   12   24     2     7    7.1567E+04 -1.7763E+03   7.3343E+04  0.000E+00  0.000E+00  0.000E+00  3.87697E+01  1.447E-01  2.000E+01  2.000E+04 -8.881E-02
   1   13   23     2     8    7.3343E+04 -1.0136E+03   7.4357E+04  0.000E+00  0.000E+00  0.000E+00  3.85214E+01  1.464E-01  2.000E+01  2.000E+04 -5.068E-02
   1   14   22     2     9    7.4357E+04  1.7732E+03   7.2584E+04  0.000E+00  0.000E+00  0.000E+00  3.82710E+01  1.460E-01  2.000E+01  2.000E+04  8.866E-02
   1   14   22     3     1    2.3003E+05 -8.5338E+03   2.3856E+05  0.000E+00  0.000E+00  0.000E+00  3.77556E+01  2.001E-01  2.000E+01  2.000E+04 -4.267E-01
   1   15   23     3     2    2.3856E+05 -3.0882E+03   2.4165E+05  0.000E+00  0.000E+00  0.000E+00  3.68697E+01  2.030E-01  2.000E+01  2.000E+04 -1.544E-01
   1   15   24     3     3    2.4165E+05 -2.1317E+03   2.4378E+05  0.000E+00  0.000E+00  0.000E+00  3.59821E+01  2.043E-01  2.000E+01  2.000E+04 -1.066E-01
   1   15   25     3     4    2.4378E+05 -2.0059E+03   2.4579E+05  0.000E+00  0.000E+00  0.000E+00  3.50943E+01  2.054E-01  2.000E+01  2.000E+04 -1.003E-01
   1   15   26     3     5    2.4579E+05 -2.3639E+03   2.4815E+05  0.000E+00  0.000E+00  0.000E+00  3.42065E+01  2.065E-01  2.000E+01  2.000E+04 -1.182E-01
   1   16   27     3     6    2.4815E+05 -3.3340E+03   2.5149E+05  0.000E+00  0.000E+00  0.000E+00  3.33190E+01  2.079E-01  2.000E+01  2.000E+04 -1.667E-01
   1   17   28     3     7    2.5149E+05 -4.1611E+03   2.5565E+05  0.000E+00  0.000E+00  0.000E+00  3.24320E+01  2.098E-01  2.000E+01  2.000E+04 -2.081E-01
   1   18   29     3     8    2.5565E+05 -5.8377E+03   2.6148E+05  0.000E+00  0.000E+00  0.000E+00  3.15456E+01  2.122E-01  2.000E+01  2.000E+04 -2.919E-01
   1   18   30     3     9    2.6148E+05 -4.8578E+03   2.6634E+05  0.000E+00  0.000E+00  0.000E+00  3.06593E+01  2.149E-01  2.000E+01  2.000E+04 -2.429E-01



1
              HEAD IN LAYER   1 AT END OF TIME STEP   1 IN STRESS PERIOD    8
  ---------------------------------------------------------------------------

          1      2      3      4      5      6      7      8      9     10
         11     12     13     14     15     16     17     18     19     20
         21     22     23     24     25     26     27     28     29     30
 .........................................................................
   1  ****** ****** ****** ****** ****** ****** ****** ****** ****** ******
      ****** ****** ****** ****** ****** ****** ****** ****** ****** ******
      ****** ****** ****** ****** ****** ****** ****** ****** ****** ******
   2  ****** ****** ****** ****** ****** ****** ****** ****** ****** ******
      ****** ****** ****** ****** ****** ****** ****** ****** ****** ******
      ****** ****** ****** ****** ****** ****** ****** ****** ****** ******
   3  ****** ****** ****** ****** ****** ****** ****** ****** ****** ******
      ****** ****** ****** ****** ****** ****** ****** ****** ****** ******
      ****** ****** ****** ****** ****** ****** ****** ****** ****** ******
   4  ****** ****** ****** ****** ****** ****** ****** ****** ****** ******
      ****** ****** ****** ****** ****** ****** ****** ****** ****** ******
      ****** ****** ****** ****** ****** ****** ****** ****** ****** ******
   5  ****** ****** ****** ****** ****** ****** ****** ****** ****** ******
      ****** ****** ****** ****** ****** ****** ****** ****** ****** ******
      ****** ****** ****** ****** ****** ****** ****** ****** ****** ******
   6  ****** ****** ****** ****** ****** ****** ****** ****** ****** ******
      ****** ****** ****** ****** ****** ****** ****** ****** ****** ******
      ****** ****** ****** ****** ****** ****** ****** ****** ****** ******
   7  ****** ****** ****** ****** ****** ****** ****** ****** ****** ******
      ****** ****** ****** ****** ****** ****** ****** ****** ****** ******
      ****** ****** ****** ****** ****** ****** ****** ****** ****** ******
   8  ****** ****** ****** ****** ****** ****** ****** ****** ****** ******
      ****** ****** ****** ****** ****** ****** ****** ****** ****** ******
      ****** ****** ****** ****** ****** ****** ****** ****** ****** ******
   9  ****** ****** ****** ****** ****** ****** ****** ****** ****** ******
      ****** ****** ****** ****** ****** ****** ****** ****** ****** ******
      ****** ****** ****** ****** ****** ****** ****** ****** ****** ******
  10  ****** ****** ****** ****** ****** ****** ****** ****** ****** ******
      ****** ****** ****** ****** ****** ****** ****** ****** ****** ******
      ****** ****** ****** ****** ****** ****** ****** ****** ****** ******
  11  ****** ****** ****** ****** ****** ****** ****** ****** ****** ******
      ****** ****** ****** ****** ****** ****** ****** ****** ****** ******
      ****** ****** ****** ****** ****** ****** ****** ****** ****** ******
  12  ****** ****** ****** ****** ****** ****** ****** ****** ****** ******
      ****** ****** ****** ****** ****** ****** ****** ****** ****** ******
      ****** ****** ****** ****** ****** ****** ****** ****** ****** ******
  13  ****** ****** ****** ****** ****** ****** ****** ****** ****** ******
      ****** ****** ****** ****** ****** ****** ****** ****** ****** ******
      ****** ****** ****** ****** ****** ****** ****** ****** ****** ******
  14  ****** ****** ****** ****** ****** ****** ****** ****** ****** ******
      ****** ****** ****** ****** ****** ****** ****** ****** ****** ******
      ****** ****** ****** ****** ****** ****** ****** ****** ****** ******
  15  ****** ****** ****** ****** ****** ****** ****** ****** ****** ******
      ****** ****** ****** ****** ****** ****** ****** ****** ****** ******
      ****** ****** ****** ****** ****** ****** ****** ****** ****** ******
  16  ****** ****** ****** ****** ****** ****** ****** ****** ****** ******
      ****** ****** ****** ****** ****** ****** ****** ****** ****** ******
      ****** ****** ****** ****** ****** ****** ****** ****** ****** ******
  17  ****** ****** ****** ****** ****** ****** ****** ****** ****** ******
      ****** ****** ****** ****** ****** ****** ****** ****** ****** ******
      ****** ****** ****** ****** ****** ****** ****** ****** ****** ******
  18  ****** ****** ****** ****** ****** ****** ****** ****** ****** ******
      ****** ****** ****** ****** ****** ****** ****** ****** ****** ******
      ****** ****** ****** ****** ****** ****** ****** ****** ****** ******
  19  ****** ****** ****** ****** ****** ****** ****** ****** ****** ******
      ****** ****** ****** ****** ****** ****** ****** ****** ****** ******
      ****** ****** ****** ****** ****** ****** ****** ****** ****** ******
  20  ****** ****** ****** ****** ****** ****** ****** ****** ****** ******
      ****** ****** ****** ****** ****** ****** ****** ****** ****** ******
      ****** ****** ****** ****** ****** ****** ****** ****** ****** ******
  21  ****** ****** ****** ****** ****** ****** ****** ****** ****** ******
      ****** ****** ****** ****** ****** ****** ****** ****** ****** ******
      ****** ****** ****** ****** ****** ****** ****** ****** ****** ******
  22  ****** ****** ****** ****** ****** ****** ****** ****** ****** ******
      ****** ****** ****** ****** ****** ****** ****** ****** ****** ******
      ****** ****** ****** ****** ****** ****** ****** ****** ****** ******
  23  ****** ****** ****** ****** ****** ****** ****** ****** ****** ******
      ****** ****** ****** ****** ****** ****** ****** ****** ****** ******
      ****** ****** ****** ****** ****** ****** ****** ****** ****** ******
  24  ****** ****** ****** ****** ****** ****** ****** ****** ****** ******
      ****** ****** ****** ****** ****** ****** ****** ****** ****** ******
      ****** ****** ****** ****** ****** ****** ****** ****** ****** ******
  25  ****** ****** ****** ****** ****** ****** ****** ****** ****** ******
      ****** ****** ****** ****** ****** ****** ****** ****** ****** ******
      ****** ****** ****** ****** ****** ****** ****** ****** ****** ******

 HEAD WILL BE SAVED ON UNIT   51 AT END OF TIME STEP    1, STRESS PERIOD    8
1
  VOLUMETRIC BUDGET FOR ENTIRE MODEL AT END OF TIME STEP    1, STRESS PERIOD   8
  ------------------------------------------------------------------------------

     CUMULATIVE VOLUMES      L**3       RATES FOR THIS TIME STEP      L**3/T
     ------------------                 ------------------------

           IN:                                      IN:
           ---                                      ---
             STORAGE =    25465771.0027               STORAGE =           0.0000
       CONSTANT HEAD =   136235396.0128         CONSTANT HEAD =      197362.6647
               WELLS =           0.0000                 WELLS =           0.0000
            RECHARGE =    17608800.0000              RECHARGE =       27600.0000
      STREAM LEAKAGE =     4714394.4310        STREAM LEAKAGE =        6734.2523

            TOTAL IN =   184024361.4465              TOTAL IN =      231696.9169

          OUT:                                     OUT:
          ----                                     ----
             STORAGE =     1254984.8151               STORAGE =        3598.5023
       CONSTANT HEAD =           0.0000         CONSTANT HEAD =           0.0000
               WELLS =    76666034.9490                 WELLS =      105021.9657
            RECHARGE =           0.0000              RECHARGE =           0.0000
      STREAM LEAKAGE =   106103342.4933        STREAM LEAKAGE =      123076.4481

           TOTAL OUT =   184024362.2575             TOTAL OUT =      231696.9161

            IN - OUT =          -0.8110              IN - OUT =       8.4266E-04

 PERCENT DISCREPANCY =          -0.00     PERCENT DISCREPANCY =           0.00






         TIME SUMMARY AT END OF TIME STEP    1 IN STRESS PERIOD    8
                    SECONDS     MINUTES      HOURS       DAYS        YEARS
                    -----------------------------------------------------------
   TIME STEP LENGTH 7.86240E+06 1.31040E+05  2184.0      91.000     0.24914    
 STRESS PERIOD TIME 7.86240E+06 1.31040E+05  2184.0      91.000     0.24914    
         TOTAL TIME 6.30720E+07 1.05120E+06  17520.      730.00      1.9986    
1
1
                            STRESS PERIOD NO.    9, LENGTH =   92.00000    
                            -----------------------------------------------

                              NUMBER OF TIME STEPS =     1

                               MULTIPLIER FOR DELT =     1.500

                            INITIAL TIME STEP SIZE =   92.00000    

 WELL NO.  LAYER   ROW   COL   STRESS RATE         
 --------------------------------------------------
      1      1     23      9     -0.3450E+05
      2      1      3      9     -0.3274E+05
      3      1      3     14     -0.3778E+05

      3 WELLS

                 RECHARGE =  5.000000E-04

 REUSING STREAM SEGMENT DATA FROM LAST STRESS PERIOD
 
 SOLVING FOR HEAD 


     6 CALLS TO PCG ROUTINE FOR TIME STEP   1 IN STRESS PERIOD    9
    22 TOTAL ITERATIONS

 OUTPUT CONTROL FOR STRESS PERIOD    9   TIME STEP    1
    SAVE BUDGET
    SAVE HEAD FOR ALL LAYERS
    PRINT HEAD FOR ALL LAYERS
 UBDSV2 SAVING "STREAMFLOW OUT  " ON UNIT  50 AT TIME STEP  1, STRESS PERIOD   9



 STREAM LISTING     PERIOD      9   STEP        1

 LAYER ROW COL. STREAM  RCH.  FLOW INTO     FLOW TO   FLOW OUT OF   OVRLND.     DIRECT     STREAM       STREAM     STREAM     STREAM   STREAMBED  STREAMBED
                SEG.NO.  NO.  STRM. RCH.    AQUIFER    STRM. RCH.    RUNOFF     PRECIP       ET          HEAD       DEPTH      WIDTH   CONDCTNC.   GRADIENT

   1   13    1     1     1    1.0000E+05 -2.1913E+03   1.0219E+05  0.000E+00  0.000E+00  0.000E+00  4.84070E+01  1.456E-01  2.000E+01  2.000E+04 -1.096E-01
   1   13    2     1     2    1.0219E+05 -3.7702E+03   1.0596E+05  0.000E+00  0.000E+00  0.000E+00  4.79323E+01  1.482E-01  2.000E+01  2.000E+04 -1.885E-01
   1   14    3     1     3    1.0596E+05 -2.9781E+03   1.0894E+05  0.000E+00  0.000E+00  0.000E+00  4.74578E+01  1.510E-01  2.000E+01  2.000E+04 -1.489E-01
   1   15    4     1     4    1.0894E+05 -2.8942E+03   1.1183E+05  0.000E+00  0.000E+00  0.000E+00  4.69830E+01  1.535E-01  2.000E+01  2.000E+04 -1.447E-01
   1   16    5     1     5    1.1183E+05 -3.1057E+03   1.1494E+05  0.000E+00  0.000E+00  0.000E+00  4.65082E+01  1.560E-01  2.000E+01  2.000E+04 -1.553E-01
   1   16    6     1     6    1.1494E+05 -2.3196E+03   1.1726E+05  0.000E+00  0.000E+00  0.000E+00  4.60332E+01  1.582E-01  2.000E+01  2.000E+04 -1.160E-01
   1   16    7     1     7    1.1726E+05 -2.2725E+03   1.1953E+05  0.000E+00  0.000E+00  0.000E+00  4.55578E+01  1.601E-01  2.000E+01  2.000E+04 -1.136E-01
   1   16    8     1     8    1.1953E+05 -2.2300E+03   1.2176E+05  0.000E+00  0.000E+00  0.000E+00  4.50823E+01  1.619E-01  2.000E+01  2.000E+04 -1.115E-01
   1   16    9     1     9    1.2176E+05 -2.2043E+03   1.2397E+05  0.000E+00  0.000E+00  0.000E+00  4.46069E+01  1.637E-01  2.000E+01  2.000E+04 -1.102E-01
   1   16   10     1    10    1.2397E+05 -2.2124E+03   1.2618E+05  0.000E+00  0.000E+00  0.000E+00  4.41313E+01  1.654E-01  2.000E+01  2.000E+04 -1.106E-01
   1   16   11     1    11    1.2618E+05 -2.2738E+03   1.2845E+05  0.000E+00  0.000E+00  0.000E+00  4.36558E+01  1.672E-01  2.000E+01  2.000E+04 -1.137E-01
   1   16   12     1    12    1.2845E+05 -3.2968E+03   1.3175E+05  0.000E+00  0.000E+00  0.000E+00  4.31808E+01  1.694E-01  2.000E+01  2.000E+04 -1.648E-01
   1   15   13     1    13    1.3175E+05 -3.1051E+03   1.3485E+05  0.000E+00  0.000E+00  0.000E+00  4.27060E+01  1.719E-01  2.000E+01  2.000E+04 -1.553E-01
   1   14   14     1    14    1.3485E+05 -3.1026E+03   1.3796E+05  0.000E+00  0.000E+00  0.000E+00  4.22311E+01  1.743E-01  2.000E+01  2.000E+04 -1.551E-01
   1   13   15     1    15    1.3796E+05 -3.2289E+03   1.4119E+05  0.000E+00  0.000E+00  0.000E+00  4.17562E+01  1.767E-01  2.000E+01  2.000E+04 -1.614E-01
   1   12   16     1    16    1.4119E+05 -3.9877E+03   1.4517E+05  0.000E+00  0.000E+00  0.000E+00  4.12817E+01  1.794E-01  2.000E+01  2.000E+04 -1.994E-01
   1   12   17     1    17    1.4517E+05 -2.8340E+03   1.4801E+05  0.000E+00  0.000E+00  0.000E+00  4.08070E+01  1.820E-01  2.000E+01  2.000E+04 -1.417E-01
   1   12   18     1    18    1.4801E+05 -2.8460E+03   1.5085E+05  0.000E+00  0.000E+00  0.000E+00  4.03318E+01  1.841E-01  2.000E+01  2.000E+04 -1.423E-01
   1   12   19     1    19    1.5085E+05 -3.8413E+03   1.5469E+05  0.000E+00  0.000E+00  0.000E+00  3.98570E+01  1.865E-01  2.000E+01  2.000E+04 -1.921E-01
   1   13   20     1    20    1.5469E+05 -2.7544E+03   1.5745E+05  0.000E+00  0.000E+00  0.000E+00  3.93821E+01  1.889E-01  2.000E+01  2.000E+04 -1.377E-01
   1   14   21     1    21    1.5745E+05 -2.2122E+03   1.5966E+05  0.000E+00  0.000E+00  0.000E+00  3.89066E+01  1.907E-01  2.000E+01  2.000E+04 -1.106E-01
   1   14   22     1    22    1.5966E+05  4.9840E+03   1.5468E+05  0.000E+00  0.000E+00  0.000E+00  3.84284E+01  1.897E-01  2.000E+01  2.000E+04  2.492E-01
   1    9   30     2     1    5.0000E+04 -2.6463E+03   5.2646E+04  0.000E+00  0.000E+00  0.000E+00  4.02427E+01  1.177E-01  2.000E+01  2.000E+04 -1.323E-01
   1    9   29     2     2    5.2646E+04 -2.9717E+03   5.5618E+04  0.000E+00  0.000E+00  0.000E+00  3.99965E+01  1.215E-01  2.000E+01  2.000E+04 -1.486E-01
   1    9   28     2     3    5.5618E+04 -3.3338E+03   5.8952E+04  0.000E+00  0.000E+00  0.000E+00  3.97507E+01  1.257E-01  2.000E+01  2.000E+04 -1.667E-01
   1    9   27     2     4    5.8952E+04 -5.9147E+03   6.4866E+04  0.000E+00  0.000E+00  0.000E+00  3.95067E+01  1.317E-01  2.000E+01  2.000E+04 -2.957E-01
   1   10   26     2     5    6.4866E+04 -3.5297E+03   6.8396E+04  0.000E+00  0.000E+00  0.000E+00  3.92627E+01  1.377E-01  2.000E+01  2.000E+04 -1.765E-01
   1   11   25     2     6    6.8396E+04 -2.4769E+03   7.0873E+04  0.000E+00  0.000E+00  0.000E+00  3.90163E+01  1.413E-01  2.000E+01  2.000E+04 -1.238E-01
   1   12   24     2     7    7.0873E+04 -1.6581E+03   7.2531E+04  0.000E+00  0.000E+00  0.000E+00  3.87688E+01  1.438E-01  2.000E+01  2.000E+04 -8.290E-02
   1   13   23     2     8    7.2531E+04 -9.1922E+02   7.3450E+04  0.000E+00  0.000E+00  0.000E+00  3.85204E+01  1.454E-01  2.000E+01  2.000E+04 -4.596E-02
   1   14   22     2     9    7.3450E+04  1.8137E+03   7.1637E+04  0.000E+00  0.000E+00  0.000E+00  3.82699E+01  1.449E-01  2.000E+01  2.000E+04  9.068E-02
   1   14   22     3     1    2.2631E+05 -8.5094E+03   2.3482E+05  0.000E+00  0.000E+00  0.000E+00  3.77537E+01  1.981E-01  2.000E+01  2.000E+04 -4.255E-01
   1   15   23     3     2    2.3482E+05 -2.9784E+03   2.3780E+05  0.000E+00  0.000E+00  0.000E+00  3.68678E+01  2.011E-01  2.000E+01  2.000E+04 -1.489E-01
   1   15   24     3     3    2.3780E+05 -2.0500E+03   2.3985E+05  0.000E+00  0.000E+00  0.000E+00  3.59801E+01  2.024E-01  2.000E+01  2.000E+04 -1.025E-01
   1   15   25     3     4    2.3985E+05 -1.9235E+03   2.4177E+05  0.000E+00  0.000E+00  0.000E+00  3.50923E+01  2.034E-01  2.000E+01  2.000E+04 -9.617E-02
   1   15   26     3     5    2.4177E+05 -2.2584E+03   2.4403E+05  0.000E+00  0.000E+00  0.000E+00  3.42044E+01  2.044E-01  2.000E+01  2.000E+04 -1.129E-01
   1   16   27     3     6    2.4403E+05 -3.2039E+03   2.4724E+05  0.000E+00  0.000E+00  0.000E+00  3.33169E+01  2.058E-01  2.000E+01  2.000E+04 -1.602E-01
   1   17   28     3     7    2.4724E+05 -4.0288E+03   2.5127E+05  0.000E+00  0.000E+00  0.000E+00  3.24298E+01  2.076E-01  2.000E+01  2.000E+04 -2.014E-01
   1   18   29     3     8    2.5127E+05 -5.7148E+03   2.5698E+05  0.000E+00  0.000E+00  0.000E+00  3.15434E+01  2.101E-01  2.000E+01  2.000E+04 -2.857E-01
   1   18   30     3     9    2.5698E+05 -4.7636E+03   2.6174E+05  0.000E+00  0.000E+00  0.000E+00  3.06571E+01  2.126E-01  2.000E+01  2.000E+04 -2.382E-01



1
              HEAD IN LAYER   1 AT END OF TIME STEP   1 IN STRESS PERIOD    9
  ---------------------------------------------------------------------------

          1      2      3      4      5      6      7      8      9     10
         11     12     13     14     15     16     17     18     19     20
         21     22     23     24     25     26     27     28     29     30
 .........................................................................
   1  ****** ****** ****** ****** ****** ****** ****** ****** ****** ******
      ****** ****** ****** ****** ****** ****** ****** ****** ****** ******
      ****** ****** ****** ****** ****** ****** ****** ****** ****** ******
   2  ****** ****** ****** ****** ****** ****** ****** ****** ****** ******
      ****** ****** ****** ****** ****** ****** ****** ****** ****** ******
      ****** ****** ****** ****** ****** ****** ****** ****** ****** ******
   3  ****** ****** ****** ****** ****** ****** ****** ****** ****** ******
      ****** ****** ****** ****** ****** ****** ****** ****** ****** ******
      ****** ****** ****** ****** ****** ****** ****** ****** ****** ******
   4  ****** ****** ****** ****** ****** ****** ****** ****** ****** ******
      ****** ****** ****** ****** ****** ****** ****** ****** ****** ******
      ****** ****** ****** ****** ****** ****** ****** ****** ****** ******
   5  ****** ****** ****** ****** ****** ****** ****** ****** ****** ******
      ****** ****** ****** ****** ****** ****** ****** ****** ****** ******
      ****** ****** ****** ****** ****** ****** ****** ****** ****** ******
   6  ****** ****** ****** ****** ****** ****** ****** ****** ****** ******
      ****** ****** ****** ****** ****** ****** ****** ****** ****** ******
      ****** ****** ****** ****** ****** ****** ****** ****** ****** ******
   7  ****** ****** ****** ****** ****** ****** ****** ****** ****** ******
      ****** ****** ****** ****** ****** ****** ****** ****** ****** ******
      ****** ****** ****** ****** ****** ****** ****** ****** ****** ******
   8  ****** ****** ****** ****** ****** ****** ****** ****** ****** ******
      ****** ****** ****** ****** ****** ****** ****** ****** ****** ******
      ****** ****** ****** ****** ****** ****** ****** ****** ****** ******
   9  ****** ****** ****** ****** ****** ****** ****** ****** ****** ******
      ****** ****** ****** ****** ****** ****** ****** ****** ****** ******
      ****** ****** ****** ****** ****** ****** ****** ****** ****** ******
  10  ****** ****** ****** ****** ****** ****** ****** ****** ****** ******
      ****** ****** ****** ****** ****** ****** ****** ****** ****** ******
      ****** ****** ****** ****** ****** ****** ****** ****** ****** ******
  11  ****** ****** ****** ****** ****** ****** ****** ****** ****** ******
      ****** ****** ****** ****** ****** ****** ****** ****** ****** ******
      ****** ****** ****** ****** ****** ****** ****** ****** ****** ******
  12  ****** ****** ****** ****** ****** ****** ****** ****** ****** ******
      ****** ****** ****** ****** ****** ****** ****** ****** ****** ******
      ****** ****** ****** ****** ****** ****** ****** ****** ****** ******
  13  ****** ****** ****** ****** ****** ****** ****** ****** ****** ******
      ****** ****** ****** ****** ****** ****** ****** ****** ****** ******
      ****** ****** ****** ****** ****** ****** ****** ****** ****** ******
  14  ****** ****** ****** ****** ****** ****** ****** ****** ****** ******
      ****** ****** ****** ****** ****** ****** ****** ****** ****** ******
      ****** ****** ****** ****** ****** ****** ****** ****** ****** ******
  15  ****** ****** ****** ****** ****** ****** ****** ****** ****** ******
      ****** ****** ****** ****** ****** ****** ****** ****** ****** ******
      ****** ****** ****** ****** ****** ****** ****** ****** ****** ******
  16  ****** ****** ****** ****** ****** ****** ****** ****** ****** ******
      ****** ****** ****** ****** ****** ****** ****** ****** ****** ******
      ****** ****** ****** ****** ****** ****** ****** ****** ****** ******
  17  ****** ****** ****** ****** ****** ****** ****** ****** ****** ******
      ****** ****** ****** ****** ****** ****** ****** ****** ****** ******
      ****** ****** ****** ****** ****** ****** ****** ****** ****** ******
  18  ****** ****** ****** ****** ****** ****** ****** ****** ****** ******
      ****** ****** ****** ****** ****** ****** ****** ****** ****** ******
      ****** ****** ****** ****** ****** ****** ****** ****** ****** ******
  19  ****** ****** ****** ****** ****** ****** ****** ****** ****** ******
      ****** ****** ****** ****** ****** ****** ****** ****** ****** ******
      ****** ****** ****** ****** ****** ****** ****** ****** ****** ******
  20  ****** ****** ****** ****** ****** ****** ****** ****** ****** ******
      ****** ****** ****** ****** ****** ****** ****** ****** ****** ******
      ****** ****** ****** ****** ****** ****** ****** ****** ****** ******
  21  ****** ****** ****** ****** ****** ****** ****** ****** ****** ******
      ****** ****** ****** ****** ****** ****** ****** ****** ****** ******
      ****** ****** ****** ****** ****** ****** ****** ****** ****** ******
  22  ****** ****** ****** ****** ****** ****** ****** ****** ****** ******
      ****** ****** ****** ****** ****** ****** ****** ****** ****** ******
      ****** ****** ****** ****** ****** ****** ****** ****** ****** ******
  23  ****** ****** ****** ****** ****** ****** ****** ****** ****** ******
      ****** ****** ****** ****** ****** ****** ****** ****** ****** ******
      ****** ****** ****** ****** ****** ****** ****** ****** ****** ******
  24  ****** ****** ****** ****** ****** ****** ****** ****** ****** ******
      ****** ****** ****** ****** ****** ****** ****** ****** ****** ******
      ****** ****** ****** ****** ****** ****** ****** ****** ****** ******
  25  ****** ****** ****** ****** ****** ****** ****** ****** ****** ******
      ****** ****** ****** ****** ****** ****** ****** ****** ****** ******
      ****** ****** ****** ****** ****** ****** ****** ****** ****** ******

 HEAD WILL BE SAVED ON UNIT   51 AT END OF TIME STEP    1, STRESS PERIOD    9
1
  VOLUMETRIC BUDGET FOR ENTIRE MODEL AT END OF TIME STEP    1, STRESS PERIOD   9
  ------------------------------------------------------------------------------

     CUMULATIVE VOLUMES      L**3       RATES FOR THIS TIME STEP      L**3/T
     ------------------                 ------------------------

           IN:                                      IN:
           ---                                      ---
             STORAGE =    25713773.6289               STORAGE =        2695.6807
       CONSTANT HEAD =   154660289.7991         CONSTANT HEAD =      200270.5846
               WELLS =           0.0000                 WELLS =           0.0000
            RECHARGE =    18878400.0000              RECHARGE =       13800.0000
      STREAM LEAKAGE =     5339784.0190        STREAM LEAKAGE =        6797.7129

            TOTAL IN =   204592247.4469              TOTAL IN =      223563.9783

          OUT:                                     OUT:
          ----                                     ----
             STORAGE =     1254984.8151               STORAGE =           0.0000
       CONSTANT HEAD =           0.0000         CONSTANT HEAD =           0.0000
               WELLS =    86328055.7919                 WELLS =      105021.9657
            RECHARGE =           0.0000              RECHARGE =           0.0000
      STREAM LEAKAGE =   117009207.9383        STREAM LEAKAGE =      118542.0157

           TOTAL OUT =   204592248.5453             TOTAL OUT =      223563.9814

            IN - OUT =          -1.0984              IN - OUT =      -3.1240E-03

 PERCENT DISCREPANCY =          -0.00     PERCENT DISCREPANCY =          -0.00






         TIME SUMMARY AT END OF TIME STEP    1 IN STRESS PERIOD    9
                    SECONDS     MINUTES      HOURS       DAYS        YEARS
                    -----------------------------------------------------------
   TIME STEP LENGTH 7.94880E+06 1.32480E+05  2208.0      92.000     0.25188    
 STRESS PERIOD TIME 7.94880E+06 1.32480E+05  2208.0      92.000     0.25188    
         TOTAL TIME 7.10208E+07 1.18368E+06  19728.      822.00      2.2505    
1
1
                            STRESS PERIOD NO.   10, LENGTH =   91.00000    
                            -----------------------------------------------

                              NUMBER OF TIME STEPS =     1

                               MULTIPLIER FOR DELT =     1.500

                            INITIAL TIME STEP SIZE =   91.00000    

 WELL NO.  LAYER   ROW   COL   STRESS RATE         
 --------------------------------------------------
      1      1     23      9     -0.3450E+05
      2      1      3      9     -0.3274E+05
      3      1      3     14     -0.3778E+05

      3 WELLS

                 RECHARGE =  2.000000E-03

 REUSING STREAM SEGMENT DATA FROM LAST STRESS PERIOD
 
 SOLVING FOR HEAD 


     7 CALLS TO PCG ROUTINE FOR TIME STEP   1 IN STRESS PERIOD   10
    26 TOTAL ITERATIONS

 OUTPUT CONTROL FOR STRESS PERIOD   10   TIME STEP    1
    SAVE BUDGET
    SAVE HEAD FOR ALL LAYERS
    PRINT HEAD FOR ALL LAYERS
 UBDSV2 SAVING "STREAMFLOW OUT  " ON UNIT  50 AT TIME STEP  1, STRESS PERIOD  10



 STREAM LISTING     PERIOD     10   STEP        1

 LAYER ROW COL. STREAM  RCH.  FLOW INTO     FLOW TO   FLOW OUT OF   OVRLND.     DIRECT     STREAM       STREAM     STREAM     STREAM   STREAMBED  STREAMBED
                SEG.NO.  NO.  STRM. RCH.    AQUIFER    STRM. RCH.    RUNOFF     PRECIP       ET          HEAD       DEPTH      WIDTH   CONDCTNC.   GRADIENT

   1   13    1     1     1    1.0000E+05 -2.6141E+03   1.0261E+05  0.000E+00  0.000E+00  0.000E+00  4.84071E+01  1.458E-01  2.000E+01  2.000E+04 -1.307E-01
   1   13    2     1     2    1.0261E+05 -4.3318E+03   1.0695E+05  0.000E+00  0.000E+00  0.000E+00  4.79329E+01  1.488E-01  2.000E+01  2.000E+04 -2.166E-01
   1   14    3     1     3    1.0695E+05 -3.5445E+03   1.1049E+05  0.000E+00  0.000E+00  0.000E+00  4.74589E+01  1.521E-01  2.000E+01  2.000E+04 -1.772E-01
   1   15    4     1     4    1.1049E+05 -3.4537E+03   1.1394E+05  0.000E+00  0.000E+00  0.000E+00  4.69846E+01  1.550E-01  2.000E+01  2.000E+04 -1.727E-01
   1   16    5     1     5    1.1394E+05 -3.6207E+03   1.1756E+05  0.000E+00  0.000E+00  0.000E+00  4.65102E+01  1.579E-01  2.000E+01  2.000E+04 -1.810E-01
   1   16    6     1     6    1.1756E+05 -2.7269E+03   1.2029E+05  0.000E+00  0.000E+00  0.000E+00  4.60355E+01  1.605E-01  2.000E+01  2.000E+04 -1.363E-01
   1   16    7     1     7    1.2029E+05 -2.6865E+03   1.2298E+05  0.000E+00  0.000E+00  0.000E+00  4.55604E+01  1.627E-01  2.000E+01  2.000E+04 -1.343E-01
   1   16    8     1     8    1.2298E+05 -2.6478E+03   1.2563E+05  0.000E+00  0.000E+00  0.000E+00  4.50853E+01  1.648E-01  2.000E+01  2.000E+04 -1.324E-01
   1   16    9     1     9    1.2563E+05 -2.6221E+03   1.2825E+05  0.000E+00  0.000E+00  0.000E+00  4.46101E+01  1.669E-01  2.000E+01  2.000E+04 -1.311E-01
   1   16   10     1    10    1.2825E+05 -2.6263E+03   1.3087E+05  0.000E+00  0.000E+00  0.000E+00  4.41349E+01  1.690E-01  2.000E+01  2.000E+04 -1.313E-01
   1   16   11     1    11    1.3087E+05 -2.6818E+03   1.3356E+05  0.000E+00  0.000E+00  0.000E+00  4.36597E+01  1.710E-01  2.000E+01  2.000E+04 -1.341E-01
   1   16   12     1    12    1.3356E+05 -3.8214E+03   1.3738E+05  0.000E+00  0.000E+00  0.000E+00  4.31849E+01  1.735E-01  2.000E+01  2.000E+04 -1.911E-01
   1   15   13     1    13    1.3738E+05 -3.6769E+03   1.4105E+05  0.000E+00  0.000E+00  0.000E+00  4.27105E+01  1.764E-01  2.000E+01  2.000E+04 -1.838E-01
   1   14   14     1    14    1.4105E+05 -3.6858E+03   1.4474E+05  0.000E+00  0.000E+00  0.000E+00  4.22360E+01  1.792E-01  2.000E+01  2.000E+04 -1.843E-01
   1   13   15     1    15    1.4474E+05 -3.8032E+03   1.4854E+05  0.000E+00  0.000E+00  0.000E+00  4.17615E+01  1.820E-01  2.000E+01  2.000E+04 -1.902E-01
   1   12   16     1    16    1.4854E+05 -4.5396E+03   1.5308E+05  0.000E+00  0.000E+00  0.000E+00  4.12874E+01  1.851E-01  2.000E+01  2.000E+04 -2.270E-01
   1   12   17     1    17    1.5308E+05 -3.2422E+03   1.5633E+05  0.000E+00  0.000E+00  0.000E+00  4.08129E+01  1.879E-01  2.000E+01  2.000E+04 -1.621E-01
   1   12   18     1    18    1.5633E+05 -3.2463E+03   1.5957E+05  0.000E+00  0.000E+00  0.000E+00  4.03380E+01  1.903E-01  2.000E+01  2.000E+04 -1.623E-01
   1   12   19     1    19    1.5957E+05 -4.3288E+03   1.6390E+05  0.000E+00  0.000E+00  0.000E+00  3.98635E+01  1.930E-01  2.000E+01  2.000E+04 -2.164E-01
   1   13   20     1    20    1.6390E+05 -3.2271E+03   1.6713E+05  0.000E+00  0.000E+00  0.000E+00  3.93889E+01  1.957E-01  2.000E+01  2.000E+04 -1.614E-01
   1   14   21     1    21    1.6713E+05 -2.6476E+03   1.6978E+05  0.000E+00  0.000E+00  0.000E+00  3.89137E+01  1.978E-01  2.000E+01  2.000E+04 -1.324E-01
   1   14   22     1    22    1.6978E+05  4.9044E+03   1.6487E+05  0.000E+00  0.000E+00  0.000E+00  3.84356E+01  1.970E-01  2.000E+01  2.000E+04  2.452E-01
   1    9   30     2     1    5.0000E+04 -3.0076E+03   5.3008E+04  0.000E+00  0.000E+00  0.000E+00  4.02429E+01  1.179E-01  2.000E+01  2.000E+04 -1.504E-01
   1    9   29     2     2    5.3008E+04 -3.3303E+03   5.6338E+04  0.000E+00  0.000E+00  0.000E+00  3.99972E+01  1.222E-01  2.000E+01  2.000E+04 -1.665E-01
   1    9   28     2     3    5.6338E+04 -3.6908E+03   6.0029E+04  0.000E+00  0.000E+00  0.000E+00  3.97519E+01  1.269E-01  2.000E+01  2.000E+04 -1.845E-01
   1    9   27     2     4    6.0029E+04 -6.3942E+03   6.6423E+04  0.000E+00  0.000E+00  0.000E+00  3.95084E+01  1.334E-01  2.000E+01  2.000E+04 -3.197E-01
   1   10   26     2     5    6.6423E+04 -4.0249E+03   7.0448E+04  0.000E+00  0.000E+00  0.000E+00  3.92649E+01  1.399E-01  2.000E+01  2.000E+04 -2.012E-01
   1   11   25     2     6    7.0448E+04 -2.9507E+03   7.3399E+04  0.000E+00  0.000E+00  0.000E+00  3.90191E+01  1.441E-01  2.000E+01  2.000E+04 -1.475E-01
   1   12   24     2     7    7.3399E+04 -2.0768E+03   7.5475E+04  0.000E+00  0.000E+00  0.000E+00  3.87721E+01  1.471E-01  2.000E+01  2.000E+04 -1.038E-01
   1   13   23     2     8    7.5475E+04 -1.2455E+03   7.6721E+04  0.000E+00  0.000E+00  0.000E+00  3.85241E+01  1.491E-01  2.000E+01  2.000E+04 -6.227E-02
   1   14   22     2     9    7.6721E+04  1.6683E+03   7.5053E+04  0.000E+00  0.000E+00  0.000E+00  3.82738E+01  1.488E-01  2.000E+01  2.000E+04  8.341E-02
   1   14   22     3     1    2.3992E+05 -8.5951E+03   2.4852E+05  0.000E+00  0.000E+00  0.000E+00  3.77607E+01  2.051E-01  2.000E+01  2.000E+04 -4.298E-01
   1   15   23     3     2    2.4852E+05 -3.3847E+03   2.5190E+05  0.000E+00  0.000E+00  0.000E+00  3.68748E+01  2.081E-01  2.000E+01  2.000E+04 -1.692E-01
   1   15   24     3     3    2.5190E+05 -2.3421E+03   2.5425E+05  0.000E+00  0.000E+00  0.000E+00  3.59873E+01  2.095E-01  2.000E+01  2.000E+04 -1.171E-01
   1   15   25     3     4    2.5425E+05 -2.2154E+03   2.5646E+05  0.000E+00  0.000E+00  0.000E+00  3.50996E+01  2.107E-01  2.000E+01  2.000E+04 -1.108E-01
   1   15   26     3     5    2.5646E+05 -2.6331E+03   2.5909E+05  0.000E+00  0.000E+00  0.000E+00  3.42119E+01  2.119E-01  2.000E+01  2.000E+04 -1.317E-01
   1   16   27     3     6    2.5909E+05 -3.6755E+03   2.6277E+05  0.000E+00  0.000E+00  0.000E+00  3.33245E+01  2.134E-01  2.000E+01  2.000E+04 -1.838E-01
   1   17   28     3     7    2.6277E+05 -4.5106E+03   2.6728E+05  0.000E+00  0.000E+00  0.000E+00  3.24376E+01  2.154E-01  2.000E+01  2.000E+04 -2.255E-01
   1   18   29     3     8    2.6728E+05 -6.1677E+03   2.7345E+05  0.000E+00  0.000E+00  0.000E+00  3.15513E+01  2.180E-01  2.000E+01  2.000E+04 -3.084E-01
   1   18   30     3     9    2.7345E+05 -5.1040E+03   2.7855E+05  0.000E+00  0.000E+00  0.000E+00  3.06652E+01  2.207E-01  2.000E+01  2.000E+04 -2.552E-01



1
              HEAD IN LAYER   1 AT END OF TIME STEP   1 IN STRESS PERIOD   10
  ---------------------------------------------------------------------------

          1      2      3      4      5      6      7      8      9     10
         11     12     13     14     15     16     17     18     19     20
         21     22     23     24     25     26     27     28     29     30
 .........................................................................
   1  ****** ****** ****** ****** ****** ****** ****** ****** ****** ******
      ****** ****** ****** ****** ****** ****** ****** ****** ****** ******
      ****** ****** ****** ****** ****** ****** ****** ****** ****** ******
   2  ****** ****** ****** ****** ****** ****** ****** ****** ****** ******
      ****** ****** ****** ****** ****** ****** ****** ****** ****** ******
      ****** ****** ****** ****** ****** ****** ****** ****** ****** ******
   3  ****** ****** ****** ****** ****** ****** ****** ****** ****** ******
      ****** ****** ****** ****** ****** ****** ****** ****** ****** ******
      ****** ****** ****** ****** ****** ****** ****** ****** ****** ******
   4  ****** ****** ****** ****** ****** ****** ****** ****** ****** ******
      ****** ****** ****** ****** ****** ****** ****** ****** ****** ******
      ****** ****** ****** ****** ****** ****** ****** ****** ****** ******
   5  ****** ****** ****** ****** ****** ****** ****** ****** ****** ******
      ****** ****** ****** ****** ****** ****** ****** ****** ****** ******
      ****** ****** ****** ****** ****** ****** ****** ****** ****** ******
   6  ****** ****** ****** ****** ****** ****** ****** ****** ****** ******
      ****** ****** ****** ****** ****** ****** ****** ****** ****** ******
      ****** ****** ****** ****** ****** ****** ****** ****** ****** ******
   7  ****** ****** ****** ****** ****** ****** ****** ****** ****** ******
      ****** ****** ****** ****** ****** ****** ****** ****** ****** ******
      ****** ****** ****** ****** ****** ****** ****** ****** ****** ******
   8  ****** ****** ****** ****** ****** ****** ****** ****** ****** ******
      ****** ****** ****** ****** ****** ****** ****** ****** ****** ******
      ****** ****** ****** ****** ****** ****** ****** ****** ****** ******
   9  ****** ****** ****** ****** ****** ****** ****** ****** ****** ******
      ****** ****** ****** ****** ****** ****** ****** ****** ****** ******
      ****** ****** ****** ****** ****** ****** ****** ****** ****** ******
  10  ****** ****** ****** ****** ****** ****** ****** ****** ****** ******
      ****** ****** ****** ****** ****** ****** ****** ****** ****** ******
      ****** ****** ****** ****** ****** ****** ****** ****** ****** ******
  11  ****** ****** ****** ****** ****** ****** ****** ****** ****** ******
      ****** ****** ****** ****** ****** ****** ****** ****** ****** ******
      ****** ****** ****** ****** ****** ****** ****** ****** ****** ******
  12  ****** ****** ****** ****** ****** ****** ****** ****** ****** ******
      ****** ****** ****** ****** ****** ****** ****** ****** ****** ******
      ****** ****** ****** ****** ****** ****** ****** ****** ****** ******
  13  ****** ****** ****** ****** ****** ****** ****** ****** ****** ******
      ****** ****** ****** ****** ****** ****** ****** ****** ****** ******
      ****** ****** ****** ****** ****** ****** ****** ****** ****** ******
  14  ****** ****** ****** ****** ****** ****** ****** ****** ****** ******
      ****** ****** ****** ****** ****** ****** ****** ****** ****** ******
      ****** ****** ****** ****** ****** ****** ****** ****** ****** ******
  15  ****** ****** ****** ****** ****** ****** ****** ****** ****** ******
      ****** ****** ****** ****** ****** ****** ****** ****** ****** ******
      ****** ****** ****** ****** ****** ****** ****** ****** ****** ******
  16  ****** ****** ****** ****** ****** ****** ****** ****** ****** ******
      ****** ****** ****** ****** ****** ****** ****** ****** ****** ******
      ****** ****** ****** ****** ****** ****** ****** ****** ****** ******
  17  ****** ****** ****** ****** ****** ****** ****** ****** ****** ******
      ****** ****** ****** ****** ****** ****** ****** ****** ****** ******
      ****** ****** ****** ****** ****** ****** ****** ****** ****** ******
  18  ****** ****** ****** ****** ****** ****** ****** ****** ****** ******
      ****** ****** ****** ****** ****** ****** ****** ****** ****** ******
      ****** ****** ****** ****** ****** ****** ****** ****** ****** ******
  19  ****** ****** ****** ****** ****** ****** ****** ****** ****** ******
      ****** ****** ****** ****** ****** ****** ****** ****** ****** ******
      ****** ****** ****** ****** ****** ****** ****** ****** ****** ******
  20  ****** ****** ****** ****** ****** ****** ****** ****** ****** ******
      ****** ****** ****** ****** ****** ****** ****** ****** ****** ******
      ****** ****** ****** ****** ****** ****** ****** ****** ****** ******
  21  ****** ****** ****** ****** ****** ****** ****** ****** ****** ******
      ****** ****** ****** ****** ****** ****** ****** ****** ****** ******
      ****** ****** ****** ****** ****** ****** ****** ****** ****** ******
  22  ****** ****** ****** ****** ****** ****** ****** ****** ****** ******
      ****** ****** ****** ****** ****** ****** ****** ****** ****** ******
      ****** ****** ****** ****** ****** ****** ****** ****** ****** ******
  23  ****** ****** ****** ****** ****** ****** ****** ****** ****** ******
      ****** ****** ****** ****** ****** ****** ****** ****** ****** ******
      ****** ****** ****** ****** ****** ****** ****** ****** ****** ******
  24  ****** ****** ****** ****** ****** ****** ****** ****** ****** ******
      ****** ****** ****** ****** ****** ****** ****** ****** ****** ******
      ****** ****** ****** ****** ****** ****** ****** ****** ****** ******
  25  ****** ****** ****** ****** ****** ****** ****** ****** ****** ******
      ****** ****** ****** ****** ****** ****** ****** ****** ****** ******
      ****** ****** ****** ****** ****** ****** ****** ****** ****** ******

 HEAD WILL BE SAVED ON UNIT   51 AT END OF TIME STEP    1, STRESS PERIOD   10
1
  VOLUMETRIC BUDGET FOR ENTIRE MODEL AT END OF TIME STEP    1, STRESS PERIOD  10
  ------------------------------------------------------------------------------

     CUMULATIVE VOLUMES      L**3       RATES FOR THIS TIME STEP      L**3/T
     ------------------                 ------------------------

           IN:                                      IN:
           ---                                      ---
             STORAGE =    25713773.6289               STORAGE =           0.0000
       CONSTANT HEAD =   171870735.1929         CONSTANT HEAD =      189125.7736
               WELLS =           0.0000                 WELLS =           0.0000
            RECHARGE =    23901600.0000              RECHARGE =       55200.0000
      STREAM LEAKAGE =     5937900.6305        STREAM LEAKAGE =        6572.7100

            TOTAL IN =   227424009.4523              TOTAL IN =      250898.4836

          OUT:                                     OUT:
          ----                                     ----
             STORAGE =     2233443.2083               STORAGE =       10752.2900
       CONSTANT HEAD =           0.0000         CONSTANT HEAD =           0.0000
               WELLS =    95885054.6691                 WELLS =      105021.9657
            RECHARGE =           0.0000              RECHARGE =           0.0000
      STREAM LEAKAGE =   129305512.5117        STREAM LEAKAGE =      135124.2261

           TOTAL OUT =   227424010.3891             TOTAL OUT =      250898.4818

            IN - OUT =          -0.9368              IN - OUT =       1.7751E-03

 PERCENT DISCREPANCY =          -0.00     PERCENT DISCREPANCY =           0.00






         TIME SUMMARY AT END OF TIME STEP    1 IN STRESS PERIOD   10
                    SECONDS     MINUTES      HOURS       DAYS        YEARS
                    -----------------------------------------------------------
   TIME STEP LENGTH 7.86240E+06 1.31040E+05  2184.0      91.000     0.24914    
 STRESS PERIOD TIME 7.86240E+06 1.31040E+05  2184.0      91.000     0.24914    
         TOTAL TIME 7.88832E+07 1.31472E+06  21912.      913.00      2.4997    
1
1
                            STRESS PERIOD NO.   11, LENGTH =   91.00000    
                            -----------------------------------------------

                              NUMBER OF TIME STEPS =     1

                               MULTIPLIER FOR DELT =     1.500

                            INITIAL TIME STEP SIZE =   91.00000    

 WELL NO.  LAYER   ROW   COL   STRESS RATE         
 --------------------------------------------------
      1      1     23      9     -0.3450E+05
      2      1      3      9     -0.3274E+05
      3      1      3     14     -0.3778E+05

      3 WELLS

                 RECHARGE =   0.00000    

 REUSING STREAM SEGMENT DATA FROM LAST STRESS PERIOD
 
 SOLVING FOR HEAD 


     7 CALLS TO PCG ROUTINE FOR TIME STEP   1 IN STRESS PERIOD   11
    26 TOTAL ITERATIONS

 OUTPUT CONTROL FOR STRESS PERIOD   11   TIME STEP    1
    SAVE BUDGET
    SAVE HEAD FOR ALL LAYERS
    PRINT HEAD FOR ALL LAYERS
 UBDSV2 SAVING "STREAMFLOW OUT  " ON UNIT  50 AT TIME STEP  1, STRESS PERIOD  11



 STREAM LISTING     PERIOD     11   STEP        1

 LAYER ROW COL. STREAM  RCH.  FLOW INTO     FLOW TO   FLOW OUT OF   OVRLND.     DIRECT     STREAM       STREAM     STREAM     STREAM   STREAMBED  STREAMBED
                SEG.NO.  NO.  STRM. RCH.    AQUIFER    STRM. RCH.    RUNOFF     PRECIP       ET          HEAD       DEPTH      WIDTH   CONDCTNC.   GRADIENT

   1   13    1     1     1    1.0000E+05 -2.1298E+03   1.0213E+05  0.000E+00  0.000E+00  0.000E+00  4.84069E+01  1.456E-01  2.000E+01  2.000E+04 -1.065E-01
   1   13    2     1     2    1.0213E+05 -3.6986E+03   1.0583E+05  0.000E+00  0.000E+00  0.000E+00  4.79322E+01  1.481E-01  2.000E+01  2.000E+04 -1.849E-01
   1   14    3     1     3    1.0583E+05 -2.8895E+03   1.0872E+05  0.000E+00  0.000E+00  0.000E+00  4.74577E+01  1.509E-01  2.000E+01  2.000E+04 -1.445E-01
   1   15    4     1     4    1.0872E+05 -2.8019E+03   1.1152E+05  0.000E+00  0.000E+00  0.000E+00  4.69828E+01  1.533E-01  2.000E+01  2.000E+04 -1.401E-01
   1   16    5     1     5    1.1152E+05 -3.0190E+03   1.1454E+05  0.000E+00  0.000E+00  0.000E+00  4.65080E+01  1.557E-01  2.000E+01  2.000E+04 -1.510E-01
   1   16    6     1     6    1.1454E+05 -2.2510E+03   1.1679E+05  0.000E+00  0.000E+00  0.000E+00  4.60328E+01  1.578E-01  2.000E+01  2.000E+04 -1.126E-01
   1   16    7     1     7    1.1679E+05 -2.2037E+03   1.1899E+05  0.000E+00  0.000E+00  0.000E+00  4.55574E+01  1.597E-01  2.000E+01  2.000E+04 -1.102E-01
   1   16    8     1     8    1.1899E+05 -2.1610E+03   1.2115E+05  0.000E+00  0.000E+00  0.000E+00  4.50819E+01  1.614E-01  2.000E+01  2.000E+04 -1.081E-01
   1   16    9     1     9    1.2115E+05 -2.1354E+03   1.2329E+05  0.000E+00  0.000E+00  0.000E+00  4.46063E+01  1.632E-01  2.000E+01  2.000E+04 -1.068E-01
   1   16   10     1    10    1.2329E+05 -2.1438E+03   1.2543E+05  0.000E+00  0.000E+00  0.000E+00  4.41308E+01  1.649E-01  2.000E+01  2.000E+04 -1.072E-01
   1   16   11     1    11    1.2543E+05 -2.2056E+03   1.2764E+05  0.000E+00  0.000E+00  0.000E+00  4.36552E+01  1.666E-01  2.000E+01  2.000E+04 -1.103E-01
   1   16   12     1    12    1.2764E+05 -3.2118E+03   1.3085E+05  0.000E+00  0.000E+00  0.000E+00  4.31801E+01  1.687E-01  2.000E+01  2.000E+04 -1.606E-01
   1   15   13     1    13    1.3085E+05 -3.0132E+03   1.3386E+05  0.000E+00  0.000E+00  0.000E+00  4.27052E+01  1.711E-01  2.000E+01  2.000E+04 -1.507E-01
   1   14   14     1    14    1.3386E+05 -3.0108E+03   1.3688E+05  0.000E+00  0.000E+00  0.000E+00  4.22303E+01  1.735E-01  2.000E+01  2.000E+04 -1.505E-01
   1   13   15     1    15    1.3688E+05 -3.1403E+03   1.4002E+05  0.000E+00  0.000E+00  0.000E+00  4.17554E+01  1.758E-01  2.000E+01  2.000E+04 -1.570E-01
   1   12   16     1    16    1.4002E+05 -3.9120E+03   1.4393E+05  0.000E+00  0.000E+00  0.000E+00  4.12808E+01  1.785E-01  2.000E+01  2.000E+04 -1.956E-01
   1   12   17     1    17    1.4393E+05 -2.7688E+03   1.4670E+05  0.000E+00  0.000E+00  0.000E+00  4.08060E+01  1.810E-01  2.000E+01  2.000E+04 -1.384E-01
   1   12   18     1    18    1.4670E+05 -2.7795E+03   1.4948E+05  0.000E+00  0.000E+00  0.000E+00  4.03308E+01  1.831E-01  2.000E+01  2.000E+04 -1.390E-01
   1   12   19     1    19    1.4948E+05 -3.7596E+03   1.5324E+05  0.000E+00  0.000E+00  0.000E+00  3.98559E+01  1.855E-01  2.000E+01  2.000E+04 -1.880E-01
   1   13   20     1    20    1.5324E+05 -2.6641E+03   1.5590E+05  0.000E+00  0.000E+00  0.000E+00  3.93810E+01  1.878E-01  2.000E+01  2.000E+04 -1.332E-01
   1   14   21     1    21    1.5590E+05 -2.1324E+03   1.5803E+05  0.000E+00  0.000E+00  0.000E+00  3.89055E+01  1.896E-01  2.000E+01  2.000E+04 -1.066E-01
   1   14   22     1    22    1.5803E+05  5.0044E+03   1.5303E+05  0.000E+00  0.000E+00  0.000E+00  3.84272E+01  1.885E-01  2.000E+01  2.000E+04  2.502E-01
   1    9   30     2     1    5.0000E+04 -2.5662E+03   5.2566E+04  0.000E+00  0.000E+00  0.000E+00  4.02426E+01  1.176E-01  2.000E+01  2.000E+04 -1.283E-01
   1    9   29     2     2    5.2566E+04 -2.8926E+03   5.5459E+04  0.000E+00  0.000E+00  0.000E+00  3.99964E+01  1.214E-01  2.000E+01  2.000E+04 -1.446E-01
   1    9   28     2     3    5.5459E+04 -3.2566E+03   5.8715E+04  0.000E+00  0.000E+00  0.000E+00  3.97505E+01  1.255E-01  2.000E+01  2.000E+04 -1.628E-01
   1    9   27     2     4    5.8715E+04 -5.8225E+03   6.4538E+04  0.000E+00  0.000E+00  0.000E+00  3.95064E+01  1.314E-01  2.000E+01  2.000E+04 -2.911E-01
   1   10   26     2     5    6.4538E+04 -3.4273E+03   6.7965E+04  0.000E+00  0.000E+00  0.000E+00  3.92622E+01  1.372E-01  2.000E+01  2.000E+04 -1.714E-01
   1   11   25     2     6    6.7965E+04 -2.3763E+03   7.0341E+04  0.000E+00  0.000E+00  0.000E+00  3.90158E+01  1.408E-01  2.000E+01  2.000E+04 -1.188E-01
   1   12   24     2     7    7.0341E+04 -1.5655E+03   7.1907E+04  0.000E+00  0.000E+00  0.000E+00  3.87681E+01  1.431E-01  2.000E+01  2.000E+04 -7.828E-02
   1   13   23     2     8    7.1907E+04 -8.4253E+02   7.2749E+04  0.000E+00  0.000E+00  0.000E+00  3.85196E+01  1.446E-01  2.000E+01  2.000E+04 -4.213E-02
   1   14   22     2     9    7.2749E+04  1.8407E+03   7.0909E+04  0.000E+00  0.000E+00  0.000E+00  3.82690E+01  1.440E-01  2.000E+01  2.000E+04  9.204E-02
   1   14   22     3     1    2.2394E+05 -8.4899E+03   2.3243E+05  0.000E+00  0.000E+00  0.000E+00  3.77525E+01  1.969E-01  2.000E+01  2.000E+04 -4.245E-01
   1   15   23     3     2    2.3243E+05 -2.9030E+03   2.3533E+05  0.000E+00  0.000E+00  0.000E+00  3.68665E+01  1.998E-01  2.000E+01  2.000E+04 -1.452E-01
   1   15   24     3     3    2.3533E+05 -1.9870E+03   2.3732E+05  0.000E+00  0.000E+00  0.000E+00  3.59789E+01  2.011E-01  2.000E+01  2.000E+04 -9.935E-02
   1   15   25     3     4    2.3732E+05 -1.8566E+03   2.3917E+05  0.000E+00  0.000E+00  0.000E+00  3.50910E+01  2.021E-01  2.000E+01  2.000E+04 -9.283E-02
   1   15   26     3     5    2.3917E+05 -2.1688E+03   2.4134E+05  0.000E+00  0.000E+00  0.000E+00  3.42031E+01  2.031E-01  2.000E+01  2.000E+04 -1.084E-01
   1   16   27     3     6    2.4134E+05 -3.0993E+03   2.4444E+05  0.000E+00  0.000E+00  0.000E+00  3.33155E+01  2.044E-01  2.000E+01  2.000E+04 -1.550E-01
   1   17   28     3     7    2.4444E+05 -3.9238E+03   2.4836E+05  0.000E+00  0.000E+00  0.000E+00  3.24284E+01  2.062E-01  2.000E+01  2.000E+04 -1.962E-01
   1   18   29     3     8    2.4836E+05 -5.6207E+03   2.5399E+05  0.000E+00  0.000E+00  0.000E+00  3.15419E+01  2.086E-01  2.000E+01  2.000E+04 -2.810E-01
   1   18   30     3     9    2.5399E+05 -4.6869E+03   2.5867E+05  0.000E+00  0.000E+00  0.000E+00  3.06556E+01  2.111E-01  2.000E+01  2.000E+04 -2.343E-01



1
              HEAD IN LAYER   1 AT END OF TIME STEP   1 IN STRESS PERIOD   11
  ---------------------------------------------------------------------------

          1      2      3      4      5      6      7      8      9     10
         11     12     13     14     15     16     17     18     19     20
         21     22     23     24     25     26     27     28     29     30
 .........................................................................
   1  ****** ****** ****** ****** ****** ****** ****** ****** ****** ******
      ****** ****** ****** ****** ****** ****** ****** ****** ****** ******
      ****** ****** ****** ****** ****** ****** ****** ****** ****** ******
   2  ****** ****** ****** ****** ****** ****** ****** ****** ****** ******
      ****** ****** ****** ****** ****** ****** ****** ****** ****** ******
      ****** ****** ****** ****** ****** ****** ****** ****** ****** ******
   3  ****** ****** ****** ****** ****** ****** ****** ****** ****** ******
      ****** ****** ****** ****** ****** ****** ****** ****** ****** ******
      ****** ****** ****** ****** ****** ****** ****** ****** ****** ******
   4  ****** ****** ****** ****** ****** ****** ****** ****** ****** ******
      ****** ****** ****** ****** ****** ****** ****** ****** ****** ******
      ****** ****** ****** ****** ****** ****** ****** ****** ****** ******
   5  ****** ****** ****** ****** ****** ****** ****** ****** ****** ******
      ****** ****** ****** ****** ****** ****** ****** ****** ****** ******
      ****** ****** ****** ****** ****** ****** ****** ****** ****** ******
   6  ****** ****** ****** ****** ****** ****** ****** ****** ****** ******
      ****** ****** ****** ****** ****** ****** ****** ****** ****** ******
      ****** ****** ****** ****** ****** ****** ****** ****** ****** ******
   7  ****** ****** ****** ****** ****** ****** ****** ****** ****** ******
      ****** ****** ****** ****** ****** ****** ****** ****** ****** ******
      ****** ****** ****** ****** ****** ****** ****** ****** ****** ******
   8  ****** ****** ****** ****** ****** ****** ****** ****** ****** ******
      ****** ****** ****** ****** ****** ****** ****** ****** ****** ******
      ****** ****** ****** ****** ****** ****** ****** ****** ****** ******
   9  ****** ****** ****** ****** ****** ****** ****** ****** ****** ******
      ****** ****** ****** ****** ****** ****** ****** ****** ****** ******
      ****** ****** ****** ****** ****** ****** ****** ****** ****** ******
  10  ****** ****** ****** ****** ****** ****** ****** ****** ****** ******
      ****** ****** ****** ****** ****** ****** ****** ****** ****** ******
      ****** ****** ****** ****** ****** ****** ****** ****** ****** ******
  11  ****** ****** ****** ****** ****** ****** ****** ****** ****** ******
      ****** ****** ****** ****** ****** ****** ****** ****** ****** ******
      ****** ****** ****** ****** ****** ****** ****** ****** ****** ******
  12  ****** ****** ****** ****** ****** ****** ****** ****** ****** ******
      ****** ****** ****** ****** ****** ****** ****** ****** ****** ******
      ****** ****** ****** ****** ****** ****** ****** ****** ****** ******
  13  ****** ****** ****** ****** ****** ****** ****** ****** ****** ******
      ****** ****** ****** ****** ****** ****** ****** ****** ****** ******
      ****** ****** ****** ****** ****** ****** ****** ****** ****** ******
  14  ****** ****** ****** ****** ****** ****** ****** ****** ****** ******
      ****** ****** ****** ****** ****** ****** ****** ****** ****** ******
      ****** ****** ****** ****** ****** ****** ****** ****** ****** ******
  15  ****** ****** ****** ****** ****** ****** ****** ****** ****** ******
      ****** ****** ****** ****** ****** ****** ****** ****** ****** ******
      ****** ****** ****** ****** ****** ****** ****** ****** ****** ******
  16  ****** ****** ****** ****** ****** ****** ****** ****** ****** ******
      ****** ****** ****** ****** ****** ****** ****** ****** ****** ******
      ****** ****** ****** ****** ****** ****** ****** ****** ****** ******
  17  ****** ****** ****** ****** ****** ****** ****** ****** ****** ******
      ****** ****** ****** ****** ****** ****** ****** ****** ****** ******
      ****** ****** ****** ****** ****** ****** ****** ****** ****** ******
  18  ****** ****** ****** ****** ****** ****** ****** ****** ****** ******
      ****** ****** ****** ****** ****** ****** ****** ****** ****** ******
      ****** ****** ****** ****** ****** ****** ****** ****** ****** ******
  19  ****** ****** ****** ****** ****** ****** ****** ****** ****** ******
      ****** ****** ****** ****** ****** ****** ****** ****** ****** ******
      ****** ****** ****** ****** ****** ****** ****** ****** ****** ******
  20  ****** ****** ****** ****** ****** ****** ****** ****** ****** ******
      ****** ****** ****** ****** ****** ****** ****** ****** ****** ******
      ****** ****** ****** ****** ****** ****** ****** ****** ****** ******
  21  ****** ****** ****** ****** ****** ****** ****** ****** ****** ******
      ****** ****** ****** ****** ****** ****** ****** ****** ****** ******
      ****** ****** ****** ****** ****** ****** ****** ****** ****** ******
  22  ****** ****** ****** ****** ****** ****** ****** ****** ****** ******
      ****** ****** ****** ****** ****** ****** ****** ****** ****** ******
      ****** ****** ****** ****** ****** ****** ****** ****** ****** ******
  23  ****** ****** ****** ****** ****** ****** ****** ****** ****** ******
      ****** ****** ****** ****** ****** ****** ****** ****** ****** ******
      ****** ****** ****** ****** ****** ****** ****** ****** ****** ******
  24  ****** ****** ****** ****** ****** ****** ****** ****** ****** ******
      ****** ****** ****** ****** ****** ****** ****** ****** ****** ******
      ****** ****** ****** ****** ****** ****** ****** ****** ****** ******
  25  ****** ****** ****** ****** ****** ****** ****** ****** ****** ******
      ****** ****** ****** ****** ****** ****** ****** ****** ****** ******
      ****** ****** ****** ****** ****** ****** ****** ****** ****** ******

 HEAD WILL BE SAVED ON UNIT   51 AT END OF TIME STEP    1, STRESS PERIOD   11
1
  VOLUMETRIC BUDGET FOR ENTIRE MODEL AT END OF TIME STEP    1, STRESS PERIOD  11
  ------------------------------------------------------------------------------

     CUMULATIVE VOLUMES      L**3       RATES FOR THIS TIME STEP      L**3/T
     ------------------                 ------------------------

           IN:                                      IN:
           ---                                      ---
             STORAGE =    26792344.1862               STORAGE =       11852.4237
       CONSTANT HEAD =   190238340.0968         CONSTANT HEAD =      201841.8121
               WELLS =           0.0000                 WELLS =           0.0000
            RECHARGE =    23901600.0000              RECHARGE =           0.0000
      STREAM LEAKAGE =     6560802.6095        STREAM LEAKAGE =        6845.0767

            TOTAL IN =   247493086.8926              TOTAL IN =      220539.3125

          OUT:                                     OUT:
          ----                                     ----
             STORAGE =     2233443.2083               STORAGE =           0.0000
       CONSTANT HEAD =           0.0000         CONSTANT HEAD =           0.0000
               WELLS =   105442053.5463                 WELLS =      105021.9657
            RECHARGE =           0.0000              RECHARGE =           0.0000
      STREAM LEAKAGE =   139817591.2739        STREAM LEAKAGE =      115517.3490

           TOTAL OUT =   247493088.0286             TOTAL OUT =      220539.3147

            IN - OUT =          -1.1360              IN - OUT =      -2.1882E-03

 PERCENT DISCREPANCY =          -0.00     PERCENT DISCREPANCY =          -0.00






         TIME SUMMARY AT END OF TIME STEP    1 IN STRESS PERIOD   11
                    SECONDS     MINUTES      HOURS       DAYS        YEARS
                    -----------------------------------------------------------
   TIME STEP LENGTH 7.86240E+06 1.31040E+05  2184.0      91.000     0.24914    
 STRESS PERIOD TIME 7.86240E+06 1.31040E+05  2184.0      91.000     0.24914    
         TOTAL TIME 8.67456E+07 1.44576E+06  24096.      1004.0      2.7488    
1
1
                            STRESS PERIOD NO.   12, LENGTH =   91.00000    
                            -----------------------------------------------

                              NUMBER OF TIME STEPS =     1

                               MULTIPLIER FOR DELT =     1.500

                            INITIAL TIME STEP SIZE =   91.00000    

 WELL NO.  LAYER   ROW   COL   STRESS RATE         
 --------------------------------------------------
      1      1     23      9     -0.3450E+05
      2      1      3      9     -0.3274E+05
      3      1      3     14     -0.3778E+05

      3 WELLS

                 RECHARGE =  1.000000E-03

 REUSING STREAM SEGMENT DATA FROM LAST STRESS PERIOD
 
 SOLVING FOR HEAD 


     6 CALLS TO PCG ROUTINE FOR TIME STEP   1 IN STRESS PERIOD   12
    23 TOTAL ITERATIONS

 OUTPUT CONTROL FOR STRESS PERIOD   12   TIME STEP    1
    SAVE BUDGET
    SAVE HEAD FOR ALL LAYERS
    PRINT HEAD FOR ALL LAYERS
 UBDSV2 SAVING "STREAMFLOW OUT  " ON UNIT  50 AT TIME STEP  1, STRESS PERIOD  12



 STREAM LISTING     PERIOD     12   STEP        1

 LAYER ROW COL. STREAM  RCH.  FLOW INTO     FLOW TO   FLOW OUT OF   OVRLND.     DIRECT     STREAM       STREAM     STREAM     STREAM   STREAMBED  STREAMBED
                SEG.NO.  NO.  STRM. RCH.    AQUIFER    STRM. RCH.    RUNOFF     PRECIP       ET          HEAD       DEPTH      WIDTH   CONDCTNC.   GRADIENT

   1   13    1     1     1    1.0000E+05 -2.3032E+03   1.0230E+05  0.000E+00  0.000E+00  0.000E+00  4.84070E+01  1.456E-01  2.000E+01  2.000E+04 -1.152E-01
   1   13    2     1     2    1.0230E+05 -3.9166E+03   1.0622E+05  0.000E+00  0.000E+00  0.000E+00  4.79324E+01  1.483E-01  2.000E+01  2.000E+04 -1.958E-01
   1   14    3     1     3    1.0622E+05 -3.1285E+03   1.0935E+05  0.000E+00  0.000E+00  0.000E+00  4.74581E+01  1.513E-01  2.000E+01  2.000E+04 -1.564E-01
   1   15    4     1     4    1.0935E+05 -3.0430E+03   1.1239E+05  0.000E+00  0.000E+00  0.000E+00  4.69834E+01  1.539E-01  2.000E+01  2.000E+04 -1.521E-01
   1   16    5     1     5    1.1239E+05 -3.2415E+03   1.1563E+05  0.000E+00  0.000E+00  0.000E+00  4.65088E+01  1.565E-01  2.000E+01  2.000E+04 -1.621E-01
   1   16    6     1     6    1.1563E+05 -2.4282E+03   1.1806E+05  0.000E+00  0.000E+00  0.000E+00  4.60338E+01  1.588E-01  2.000E+01  2.000E+04 -1.214E-01
   1   16    7     1     7    1.1806E+05 -2.3827E+03   1.2044E+05  0.000E+00  0.000E+00  0.000E+00  4.55585E+01  1.608E-01  2.000E+01  2.000E+04 -1.191E-01
   1   16    8     1     8    1.2044E+05 -2.3411E+03   1.2278E+05  0.000E+00  0.000E+00  0.000E+00  4.50831E+01  1.627E-01  2.000E+01  2.000E+04 -1.171E-01
   1   16    9     1     9    1.2278E+05 -2.3154E+03   1.2510E+05  0.000E+00  0.000E+00  0.000E+00  4.46077E+01  1.645E-01  2.000E+01  2.000E+04 -1.158E-01
   1   16   10     1    10    1.2510E+05 -2.3226E+03   1.2742E+05  0.000E+00  0.000E+00  0.000E+00  4.41323E+01  1.664E-01  2.000E+01  2.000E+04 -1.161E-01
   1   16   11     1    11    1.2742E+05 -2.3825E+03   1.2981E+05  0.000E+00  0.000E+00  0.000E+00  4.36569E+01  1.682E-01  2.000E+01  2.000E+04 -1.191E-01
   1   16   12     1    12    1.2981E+05 -3.4346E+03   1.3324E+05  0.000E+00  0.000E+00  0.000E+00  4.31819E+01  1.705E-01  2.000E+01  2.000E+04 -1.717E-01
   1   15   13     1    13    1.3324E+05 -3.2565E+03   1.3650E+05  0.000E+00  0.000E+00  0.000E+00  4.27072E+01  1.731E-01  2.000E+01  2.000E+04 -1.628E-01
   1   14   14     1    14    1.3650E+05 -3.2568E+03   1.3975E+05  0.000E+00  0.000E+00  0.000E+00  4.22324E+01  1.756E-01  2.000E+01  2.000E+04 -1.628E-01
   1   13   15     1    15    1.3975E+05 -3.3808E+03   1.4313E+05  0.000E+00  0.000E+00  0.000E+00  4.17576E+01  1.781E-01  2.000E+01  2.000E+04 -1.690E-01
   1   12   16     1    16    1.4313E+05 -4.1315E+03   1.4727E+05  0.000E+00  0.000E+00  0.000E+00  4.12832E+01  1.809E-01  2.000E+01  2.000E+04 -2.066E-01
   1   12   17     1    17    1.4727E+05 -2.9425E+03   1.5021E+05  0.000E+00  0.000E+00  0.000E+00  4.08086E+01  1.836E-01  2.000E+01  2.000E+04 -1.471E-01
   1   12   18     1    18    1.5021E+05 -2.9527E+03   1.5316E+05  0.000E+00  0.000E+00  0.000E+00  4.03335E+01  1.857E-01  2.000E+01  2.000E+04 -1.476E-01
   1   12   19     1    19    1.5316E+05 -3.9709E+03   1.5713E+05  0.000E+00  0.000E+00  0.000E+00  3.98587E+01  1.883E-01  2.000E+01  2.000E+04 -1.985E-01
   1   13   20     1    20    1.5713E+05 -2.8829E+03   1.6001E+05  0.000E+00  0.000E+00  0.000E+00  3.93839E+01  1.907E-01  2.000E+01  2.000E+04 -1.441E-01
   1   14   21     1    21    1.6001E+05 -2.3292E+03   1.6234E+05  0.000E+00  0.000E+00  0.000E+00  3.89085E+01  1.926E-01  2.000E+01  2.000E+04 -1.165E-01
   1   14   22     1    22    1.6234E+05  4.9609E+03   1.5738E+05  0.000E+00  0.000E+00  0.000E+00  3.84303E+01  1.917E-01  2.000E+01  2.000E+04  2.480E-01
   1    9   30     2     1    5.0000E+04 -2.7456E+03   5.2746E+04  0.000E+00  0.000E+00  0.000E+00  4.02428E+01  1.178E-01  2.000E+01  2.000E+04 -1.373E-01
   1    9   29     2     2    5.2746E+04 -3.0702E+03   5.5816E+04  0.000E+00  0.000E+00  0.000E+00  3.99967E+01  1.217E-01  2.000E+01  2.000E+04 -1.535E-01
   1    9   28     2     3    5.5816E+04 -3.4317E+03   5.9248E+04  0.000E+00  0.000E+00  0.000E+00  3.97510E+01  1.260E-01  2.000E+01  2.000E+04 -1.716E-01
   1    9   27     2     4    5.9248E+04 -6.0431E+03   6.5291E+04  0.000E+00  0.000E+00  0.000E+00  3.95072E+01  1.322E-01  2.000E+01  2.000E+04 -3.022E-01
   1   10   26     2     5    6.5291E+04 -3.6648E+03   6.8955E+04  0.000E+00  0.000E+00  0.000E+00  3.92633E+01  1.383E-01  2.000E+01  2.000E+04 -1.832E-01
   1   11   25     2     6    6.8955E+04 -2.6074E+03   7.1563E+04  0.000E+00  0.000E+00  0.000E+00  3.90171E+01  1.421E-01  2.000E+01  2.000E+04 -1.304E-01
   1   12   24     2     7    7.1563E+04 -1.7753E+03   7.3338E+04  0.000E+00  0.000E+00  0.000E+00  3.87697E+01  1.447E-01  2.000E+01  2.000E+04 -8.877E-02
   1   13   23     2     8    7.3338E+04 -1.0130E+03   7.4351E+04  0.000E+00  0.000E+00  0.000E+00  3.85214E+01  1.464E-01  2.000E+01  2.000E+04 -5.065E-02
   1   14   22     2     9    7.4351E+04  1.7737E+03   7.2577E+04  0.000E+00  0.000E+00  0.000E+00  3.82710E+01  1.460E-01  2.000E+01  2.000E+04  8.869E-02
   1   14   22     3     1    2.2996E+05 -8.5338E+03   2.3849E+05  0.000E+00  0.000E+00  0.000E+00  3.77556E+01  2.000E-01  2.000E+01  2.000E+04 -4.267E-01
   1   15   23     3     2    2.3849E+05 -3.0877E+03   2.4158E+05  0.000E+00  0.000E+00  0.000E+00  3.68697E+01  2.030E-01  2.000E+01  2.000E+04 -1.544E-01
   1   15   24     3     3    2.4158E+05 -2.1315E+03   2.4371E+05  0.000E+00  0.000E+00  0.000E+00  3.59821E+01  2.043E-01  2.000E+01  2.000E+04 -1.066E-01
   1   15   25     3     4    2.4371E+05 -2.0058E+03   2.4572E+05  0.000E+00  0.000E+00  0.000E+00  3.50942E+01  2.054E-01  2.000E+01  2.000E+04 -1.003E-01
   1   15   26     3     5    2.4572E+05 -2.3638E+03   2.4808E+05  0.000E+00  0.000E+00  0.000E+00  3.42064E+01  2.064E-01  2.000E+01  2.000E+04 -1.182E-01
   1   16   27     3     6    2.4808E+05 -3.3337E+03   2.5142E+05  0.000E+00  0.000E+00  0.000E+00  3.33190E+01  2.079E-01  2.000E+01  2.000E+04 -1.667E-01
   1   17   28     3     7    2.5142E+05 -4.1608E+03   2.5558E+05  0.000E+00  0.000E+00  0.000E+00  3.24320E+01  2.097E-01  2.000E+01  2.000E+04 -2.080E-01
   1   18   29     3     8    2.5558E+05 -5.8374E+03   2.6141E+05  0.000E+00  0.000E+00  0.000E+00  3.15455E+01  2.122E-01  2.000E+01  2.000E+04 -2.919E-01
   1   18   30     3     9    2.6141E+05 -4.8577E+03   2.6627E+05  0.000E+00  0.000E+00  0.000E+00  3.06593E+01  2.148E-01  2.000E+01  2.000E+04 -2.429E-01



1
              HEAD IN LAYER   1 AT END OF TIME STEP   1 IN STRESS PERIOD   12
  ---------------------------------------------------------------------------

          1      2      3      4      5      6      7      8      9     10
         11     12     13     14     15     16     17     18     19     20
         21     22     23     24     25     26     27     28     29     30
 .........................................................................
   1  ****** ****** ****** ****** ****** ****** ****** ****** ****** ******
      ****** ****** ****** ****** ****** ****** ****** ****** ****** ******
      ****** ****** ****** ****** ****** ****** ****** ****** ****** ******
   2  ****** ****** ****** ****** ****** ****** ****** ****** ****** ******
      ****** ****** ****** ****** ****** ****** ****** ****** ****** ******
      ****** ****** ****** ****** ****** ****** ****** ****** ****** ******
   3  ****** ****** ****** ****** ****** ****** ****** ****** ****** ******
      ****** ****** ****** ****** ****** ****** ****** ****** ****** ******
      ****** ****** ****** ****** ****** ****** ****** ****** ****** ******
   4  ****** ****** ****** ****** ****** ****** ****** ****** ****** ******
      ****** ****** ****** ****** ****** ****** ****** ****** ****** ******
      ****** ****** ****** ****** ****** ****** ****** ****** ****** ******
   5  ****** ****** ****** ****** ****** ****** ****** ****** ****** ******
      ****** ****** ****** ****** ****** ****** ****** ****** ****** ******
      ****** ****** ****** ****** ****** ****** ****** ****** ****** ******
   6  ****** ****** ****** ****** ****** ****** ****** ****** ****** ******
      ****** ****** ****** ****** ****** ****** ****** ****** ****** ******
      ****** ****** ****** ****** ****** ****** ****** ****** ****** ******
   7  ****** ****** ****** ****** ****** ****** ****** ****** ****** ******
      ****** ****** ****** ****** ****** ****** ****** ****** ****** ******
      ****** ****** ****** ****** ****** ****** ****** ****** ****** ******
   8  ****** ****** ****** ****** ****** ****** ****** ****** ****** ******
      ****** ****** ****** ****** ****** ****** ****** ****** ****** ******
      ****** ****** ****** ****** ****** ****** ****** ****** ****** ******
   9  ****** ****** ****** ****** ****** ****** ****** ****** ****** ******
      ****** ****** ****** ****** ****** ****** ****** ****** ****** ******
      ****** ****** ****** ****** ****** ****** ****** ****** ****** ******
  10  ****** ****** ****** ****** ****** ****** ****** ****** ****** ******
      ****** ****** ****** ****** ****** ****** ****** ****** ****** ******
      ****** ****** ****** ****** ****** ****** ****** ****** ****** ******
  11  ****** ****** ****** ****** ****** ****** ****** ****** ****** ******
      ****** ****** ****** ****** ****** ****** ****** ****** ****** ******
      ****** ****** ****** ****** ****** ****** ****** ****** ****** ******
  12  ****** ****** ****** ****** ****** ****** ****** ****** ****** ******
      ****** ****** ****** ****** ****** ****** ****** ****** ****** ******
      ****** ****** ****** ****** ****** ****** ****** ****** ****** ******
  13  ****** ****** ****** ****** ****** ****** ****** ****** ****** ******
      ****** ****** ****** ****** ****** ****** ****** ****** ****** ******
      ****** ****** ****** ****** ****** ****** ****** ****** ****** ******
  14  ****** ****** ****** ****** ****** ****** ****** ****** ****** ******
      ****** ****** ****** ****** ****** ****** ****** ****** ****** ******
      ****** ****** ****** ****** ****** ****** ****** ****** ****** ******
  15  ****** ****** ****** ****** ****** ****** ****** ****** ****** ******
      ****** ****** ****** ****** ****** ****** ****** ****** ****** ******
      ****** ****** ****** ****** ****** ****** ****** ****** ****** ******
  16  ****** ****** ****** ****** ****** ****** ****** ****** ****** ******
      ****** ****** ****** ****** ****** ****** ****** ****** ****** ******
      ****** ****** ****** ****** ****** ****** ****** ****** ****** ******
  17  ****** ****** ****** ****** ****** ****** ****** ****** ****** ******
      ****** ****** ****** ****** ****** ****** ****** ****** ****** ******
      ****** ****** ****** ****** ****** ****** ****** ****** ****** ******
  18  ****** ****** ****** ****** ****** ****** ****** ****** ****** ******
      ****** ****** ****** ****** ****** ****** ****** ****** ****** ******
      ****** ****** ****** ****** ****** ****** ****** ****** ****** ******
  19  ****** ****** ****** ****** ****** ****** ****** ****** ****** ******
      ****** ****** ****** ****** ****** ****** ****** ****** ****** ******
      ****** ****** ****** ****** ****** ****** ****** ****** ****** ******
  20  ****** ****** ****** ****** ****** ****** ****** ****** ****** ******
      ****** ****** ****** ****** ****** ****** ****** ****** ****** ******
      ****** ****** ****** ****** ****** ****** ****** ****** ****** ******
  21  ****** ****** ****** ****** ****** ****** ****** ****** ****** ******
      ****** ****** ****** ****** ****** ****** ****** ****** ****** ******
      ****** ****** ****** ****** ****** ****** ****** ****** ****** ******
  22  ****** ****** ****** ****** ****** ****** ****** ****** ****** ******
      ****** ****** ****** ****** ****** ****** ****** ****** ****** ******
      ****** ****** ****** ****** ****** ****** ****** ****** ****** ******
  23  ****** ****** ****** ****** ****** ****** ****** ****** ****** ******
      ****** ****** ****** ****** ****** ****** ****** ****** ****** ******
      ****** ****** ****** ****** ****** ****** ****** ****** ****** ******
  24  ****** ****** ****** ****** ****** ****** ****** ****** ****** ******
      ****** ****** ****** ****** ****** ****** ****** ****** ****** ******
      ****** ****** ****** ****** ****** ****** ****** ****** ****** ******
  25  ****** ****** ****** ****** ****** ****** ****** ****** ****** ******
      ****** ****** ****** ****** ****** ****** ****** ****** ****** ******
      ****** ****** ****** ****** ****** ****** ****** ****** ****** ******

 HEAD WILL BE SAVED ON UNIT   51 AT END OF TIME STEP    1, STRESS PERIOD   12
1
  VOLUMETRIC BUDGET FOR ENTIRE MODEL AT END OF TIME STEP    1, STRESS PERIOD  12
  ------------------------------------------------------------------------------

     CUMULATIVE VOLUMES      L**3       RATES FOR THIS TIME STEP      L**3/T
     ------------------                 ------------------------

           IN:                                      IN:
           ---                                      ---
             STORAGE =    26792344.1862               STORAGE =           0.0000
       CONSTANT HEAD =   208204149.5285         CONSTANT HEAD =      197426.4773
               WELLS =           0.0000                 WELLS =           0.0000
            RECHARGE =    26413200.0000              RECHARGE =       27600.0000
      STREAM LEAKAGE =     7173659.9440        STREAM LEAKAGE =        6734.6960

            TOTAL IN =   268583353.6588              TOTAL IN =      231761.1733

          OUT:                                     OUT:
          ----                                     ----
             STORAGE =     2573100.7536               STORAGE =        3732.5005
       CONSTANT HEAD =           0.0000         CONSTANT HEAD =           0.0000
               WELLS =   114999052.4235                 WELLS =      105021.9657
            RECHARGE =           0.0000              RECHARGE =           0.0000
      STREAM LEAKAGE =   151011201.5393        STREAM LEAKAGE =      123006.7062

           TOTAL OUT =   268583354.7164             TOTAL OUT =      231761.1724

            IN - OUT =          -1.0576              IN - OUT =       8.6118E-04

 PERCENT DISCREPANCY =          -0.00     PERCENT DISCREPANCY =           0.00






         TIME SUMMARY AT END OF TIME STEP    1 IN STRESS PERIOD   12
                    SECONDS     MINUTES      HOURS       DAYS        YEARS
                    -----------------------------------------------------------
   TIME STEP LENGTH 7.86240E+06 1.31040E+05  2184.0      91.000     0.24914    
 STRESS PERIOD TIME 7.86240E+06 1.31040E+05  2184.0      91.000     0.24914    
         TOTAL TIME 9.46080E+07 1.57680E+06  26280.      1095.0      2.9979    
1

 Run end date and time (yyyy/mm/dd hh:mm:ss): 2018/10/09 15:00:04
 Elapsed run time:  0.083 Seconds

