                                  MODFLOW-2005     
      U.S. GEOLOGICAL SURVEY MODULAR FINITE-DIFFERENCE GROUND-WATER FLOW MODEL
                            VERSION 1.11.00 8/8/2013

 LIST FILE: supply2.lst
                         UNIT   10

 OPENING ..\data\supply.dis
 FILE TYPE:DIS   UNIT   11   STATUS:OLD    
 FORMAT:FORMATTED              ACCESS:SEQUENTIAL          

 OPENING ..\data\supply.ba6
 FILE TYPE:BAS6   UNIT   12   STATUS:OLD    
 FORMAT:FORMATTED              ACCESS:SEQUENTIAL          

 OPENING ..\data\supply_het.bc6
 FILE TYPE:BCF6   UNIT   13   STATUS:OLD    
 FORMAT:FORMATTED              ACCESS:SEQUENTIAL          

 OPENING ..\data\supply.rch
 FILE TYPE:RCH   UNIT   15   STATUS:OLD    
 FORMAT:FORMATTED              ACCESS:SEQUENTIAL          

 OPENING ..\data\supply2.sfr
 FILE TYPE:SFR   UNIT   16   STATUS:OLD    
 FORMAT:FORMATTED              ACCESS:SEQUENTIAL          

 OPENING ..\data\supply.oc
 FILE TYPE:OC   UNIT   17   STATUS:OLD    
 FORMAT:FORMATTED              ACCESS:SEQUENTIAL          

 OPENING ..\data\supply.pcg
 FILE TYPE:PCG   UNIT   18   STATUS:OLD    
 FORMAT:FORMATTED              ACCESS:SEQUENTIAL          

 OPENING supply2.wel
 FILE TYPE:WEL   UNIT   19   STATUS:OLD    
 FORMAT:FORMATTED              ACCESS:SEQUENTIAL          

 OPENING supply2sf.cbc
 FILE TYPE:DATA(BINARY)   UNIT   50   STATUS:UNKNOWN
 FORMAT:BINARY                 ACCESS:SEQUENTIAL          

 OPENING supply2hd.bhd
 FILE TYPE:DATA(BINARY)   UNIT   51   STATUS:UNKNOWN
 FORMAT:BINARY                 ACCESS:SEQUENTIAL          

 BAS -- BASIC PACKAGE, VERSION 7, 5/2/2005 INPUT READ FROM UNIT   12
 
 MODFLOW was compiled using uniform precision
 Precision of REAL and DOUBLE PRECISION variables:          15

 DISCRETIZATION INPUT DATA READ FROM UNIT   11
    1 LAYERS        25 ROWS        30 COLUMNS
   12 STRESS PERIOD(S) IN SIMULATION
 MODEL TIME UNIT IS DAYS
 MODEL LENGTH UNIT IS UNDEFINED
  Confining bed flag for each layer:
   0

                     DELR =   200.000    

                     DELC =   200.000    

 TOP ELEVATION OF LAYER 1 =  100.0000    

   MODEL LAYER BOTTOM EL. =   0.00000     FOR LAYER   1


 STRESS PERIOD     LENGTH       TIME STEPS     MULTIPLIER FOR DELT    SS FLAG
 ----------------------------------------------------------------------------
        1         92.00000          1                    1.500         TR
        2         91.00000          1                    1.500         TR
        3         91.00000          1                    1.500         TR
        4         91.00000          1                    1.500         TR
        5         92.00000          1                    1.500         TR
        6         91.00000          1                    1.500         TR
        7         91.00000          1                    1.500         TR
        8         91.00000          1                    1.500         TR
        9         92.00000          1                    1.500         TR
       10         91.00000          1                    1.500         TR
       11         91.00000          1                    1.500         TR
       12         91.00000          1                    1.500         TR

 TRANSIENT SIMULATION



 
 #MODOFC transient water supply sample problem                                   
 #                                                                               
 THE FREE FORMAT OPTION HAS BEEN SELECTED



                     BOUNDARY ARRAY FOR LAYER   1
 READING ON UNIT   12 WITH FORMAT: (20I4)              

 AQUIFER HEAD WILL BE SET TO   0.0000     AT ALL NO-FLOW NODES (IBOUND=0).



                       INITIAL HEAD FOR LAYER   1
 READING ON UNIT   12 WITH FORMAT: (10F13.0)           

 OUTPUT CONTROL IS SPECIFIED ONLY AT TIME STEPS FOR WHICH OUTPUT IS DESIRED
 COMPACT CELL-BY-CELL BUDGET FILES WILL BE WRITTEN
 HEAD PRINT FORMAT CODE IS  18    DRAWDOWN PRINT FORMAT CODE IS   0
 HEADS WILL BE SAVED ON UNIT   51    DRAWDOWNS WILL BE SAVED ON UNIT    0

 BCF -- BLOCK-CENTERED FLOW PACKAGE, VERSION 7, 5/2/2005
         INPUT READ FROM UNIT 13
 TRANSIENT SIMULATION
 HEAD AT CELLS THAT CONVERT TO DRY=   0.0000    
 WETTING CAPABILITY IS NOT ACTIVE
      LAYER  LAYER-TYPE CODE     INTERBLOCK T
      --------------------------------------------
         1            0          0 -- HARMONIC    

 COLUMN TO ROW ANISOTROPY =  1.000000    

     PRIMARY STORAGE COEF =  5.000000E-02 FOR LAYER   1



               TRANSMIS. ALONG ROWS FOR LAYER   1
 READING ON UNIT   13 WITH FORMAT: (FREE)              

 WEL -- WELL PACKAGE, VERSION 7, 5/2/2005 INPUT READ FROM UNIT   19
 # Well package input file written by MMProc
 No named parameters
 MAXIMUM OF      4 ACTIVE WELLS AT ONE TIME


     0 Well parameters

 RCH -- RECHARGE PACKAGE, VERSION 7, 5/2/2005 INPUT READ FROM UNIT   15
 No named parameters
 OPTION 1 -- RECHARGE TO TOP LAYER


     0 Recharge parameters

 SFR7 -- STREAMFLOW ROUTING PACKAGE, VERSION 1.0.7, 2013-01-15
         INPUT READ FROM UNIT  16
 #  Supply2 test problem for GWM-VI
 #  The eighth entry in the first data line is ISTCB2 -
 #    Setting this to a negative number indicates that
 #    streamflows out of the reach will be saved to a
 #    binary file.  The absolute value of ISTCB2 is the
 #    unit to which unformatted flows will be written.
 #
 No named parameters
 Segment information will not be 
 read by reach
 No named parameters
 No specifed inflow files


 NUMBER OF STREAM REACHES IS   40

 NUMBER OF STREAM SEGMENTS IS    3

 NUMBER OF STREAM PARAMETERS IS    0

 NUMBER OF STREAM SEGMENTS DEFINED USING PARAMETERS IS              0

 MAXIMUM ERROR FOR STREAM LEAKAGE RATES IS  1.00E-04

 CONSTANT FOR MANNINGS EQUATION IS  1.2839E+05





   STREAM NETWORK DESCRIPTION: 

   LAYER    ROW    COL   SEGMENT   REACH     LENGTH
                          NUMBER   NUMBER    IN CELL        
   --------------------------------------------------
      1     13      1       1        1    2.0000E+02
      1     13      2       1        2    2.0000E+02
      1     14      3       1        3    2.0000E+02
      1     15      4       1        4    2.0000E+02
      1     16      5       1        5    2.0000E+02
      1     16      6       1        6    2.0000E+02
      1     16      7       1        7    2.0000E+02
      1     16      8       1        8    2.0000E+02
      1     16      9       1        9    2.0000E+02
      1     16     10       1       10    2.0000E+02
      1     16     11       1       11    2.0000E+02
      1     16     12       1       12    2.0000E+02
      1     15     13       1       13    2.0000E+02
      1     14     14       1       14    2.0000E+02
      1     13     15       1       15    2.0000E+02
      1     12     16       1       16    2.0000E+02
      1     12     17       1       17    2.0000E+02
      1     12     18       1       18    2.0000E+02
      1     12     19       1       19    2.0000E+02
      1     13     20       1       20    2.0000E+02
      1     14     21       1       21    2.0000E+02
      1     14     22       1       22    2.0000E+02
      1      9     30       2        1    2.0000E+02
      1      9     29       2        2    2.0000E+02
      1      9     28       2        3    2.0000E+02
      1      9     27       2        4    2.0000E+02
      1     10     26       2        5    2.0000E+02
      1     11     25       2        6    2.0000E+02
      1     12     24       2        7    2.0000E+02
      1     13     23       2        8    2.0000E+02
      1     14     22       2        9    2.0000E+02
      1     14     22       3        1    2.0000E+02
      1     15     23       3        2    2.0000E+02
      1     15     24       3        3    2.0000E+02
      1     15     25       3        4    2.0000E+02
      1     15     26       3        5    2.0000E+02
      1     16     27       3        6    2.0000E+02
      1     17     28       3        7    2.0000E+02
      1     18     29       3        8    2.0000E+02
      1     18     30       3        9    2.0000E+02




 PCG -- CONJUGATE-GRADIENT SOLUTION PACKAGE, VERSION 7, 5/2/2005
 MAXIMUM OF    500 CALLS OF SOLUTION ROUTINE
 MAXIMUM OF      5 INTERNAL ITERATIONS PER CALL TO SOLUTION ROUTINE
 MATRIX PRECONDITIONING TYPE :    1



                                    SOLUTION BY THE CONJUGATE-GRADIENT METHOD
                                   -------------------------------------------
                    MAXIMUM NUMBER OF CALLS TO PCG ROUTINE =      500
                        MAXIMUM ITERATIONS PER CALL TO PCG =        5
                               MATRIX PRECONDITIONING TYPE =        1
        RELAXATION FACTOR (ONLY USED WITH PRECOND. TYPE 1) =    0.10000E+01
 PARAMETER OF POLYNOMIAL PRECOND. = 2 (2) OR IS CALCULATED :        0
                         HEAD CHANGE CRITERION FOR CLOSURE =    0.10000E-05
                     RESIDUAL CHANGE CRITERION FOR CLOSURE =    0.10000E+01
            PCG HEAD AND RESIDUAL CHANGE PRINTOUT INTERVAL =        1
     PRINTING FROM SOLVER IS LIMITED(1) OR SUPPRESSED (>1) =        1
                            STEADY-STATE DAMPING PARAMETER =    0.10000E+01
                               TRANSIENT DAMPING PARAMETER =    0.10000E+01
1
                            STRESS PERIOD NO.    1, LENGTH =   92.00000    
                            -----------------------------------------------

                              NUMBER OF TIME STEPS =     1

                               MULTIPLIER FOR DELT =     1.500

                            INITIAL TIME STEP SIZE =   92.00000    

 WELL NO.  LAYER   ROW   COL   STRESS RATE         
 --------------------------------------------------
      1      1     12     22      -9012.    
      2      1     10     16      -9566.    
      3      1      6     24     -0.1330E+05
      4      1      6     17      -7129.    

      4 WELLS

                 RECHARGE =  5.000000E-04



 CLASSIFICATION & COUNT OF STREAM SEGMENTS BASED ON SOURCE OF INFLOW:

                HEADWATER     DIVERSION     RECEIVES TRIBUTARY FLOW
                ---------     ---------     -----------------------
                     2              0               1



                    INPUT DATA FOR EACH STREAM SEGMENT
 ---------------------------------------------------------------------------------------------

 SEGMENT    SEG.     INFLOW   OVERLAND   STREAM    STREAM   ICALC  OUTFLOW  DIVERSION PRIORITY
    NO.    LENGTH     RATE     RUNOFF      ET       PPT.    METH.  TO SEG.  FROM SEG.    NO.

      1  4.400E+03 1.000E+05 0.000E+00 0.000E+00 0.000E+00    1        3        0        0
      2  1.800E+03 5.000E+04 0.000E+00 0.000E+00 0.000E+00    1        3        0        0
      3  1.800E+03 0.000E+00 0.000E+00 0.000E+00 0.000E+00    1        0        0        0


         STREAMBED PROPERTIES AND STREAM DIMENSIONS

 SEGMENT     BED HYD. COND.      BED THICKNESS     ELEV.-TOP OF BED     WIDTH OF STREAM     DEPTH OF STREAM    STREAM ROUGHNESS
    No.     UPPER     LOWER     UPPER     LOWER     UPPER     LOWER     UPPER     LOWER     UPPER     LOWER   CHANNEL      BANK

     1  5.000E+00 5.000E+00 1.000E+00 1.000E+00 4.850E+01 3.800E+01 2.000E+01 2.000E+01                     5.000E-02
     2  5.000E+00 5.000E+00 1.000E+00 1.000E+00 4.025E+01 3.800E+01 2.000E+01 2.000E+01                     5.000E-02
     3  5.000E+00 5.000E+00 1.000E+00 1.000E+00 3.800E+01 3.000E+01 2.000E+01 2.000E+01                     5.000E-02



 
 SOLVING FOR HEAD 


     9 CALLS TO PCG ROUTINE FOR TIME STEP   1 IN STRESS PERIOD    1
    36 TOTAL ITERATIONS

 OUTPUT CONTROL FOR STRESS PERIOD    1   TIME STEP    1
    SAVE BUDGET
    SAVE HEAD FOR ALL LAYERS
    PRINT HEAD FOR ALL LAYERS
 UBDSV2 SAVING "STREAMFLOW OUT  " ON UNIT  50 AT TIME STEP  1, STRESS PERIOD   1



 STREAM LISTING     PERIOD      1   STEP        1

 LAYER ROW COL. STREAM  RCH.  FLOW INTO     FLOW TO   FLOW OUT OF   OVRLND.     DIRECT     STREAM       STREAM     STREAM     STREAM   STREAMBED  STREAMBED
                SEG.NO.  NO.  STRM. RCH.    AQUIFER    STRM. RCH.    RUNOFF     PRECIP       ET          HEAD       DEPTH      WIDTH   CONDCTNC.   GRADIENT

   1   13    1     1     1    1.0000E+05 -6.1094E+03   1.0611E+05  0.000E+00  0.000E+00  0.000E+00  4.84087E+01  1.473E-01  2.000E+01  2.000E+04 -3.055E-01
   1   13    2     1     2    1.0611E+05 -7.5783E+03   1.1369E+05  0.000E+00  0.000E+00  0.000E+00  4.79372E+01  1.531E-01  2.000E+01  2.000E+04 -3.789E-01
   1   14    3     1     3    1.1369E+05 -2.1983E+03   1.1589E+05  0.000E+00  0.000E+00  0.000E+00  4.74639E+01  1.571E-01  2.000E+01  2.000E+04 -1.099E-01
   1   15    4     1     4    1.1589E+05 -2.2700E+03   1.1816E+05  0.000E+00  0.000E+00  0.000E+00  4.69885E+01  1.590E-01  2.000E+01  2.000E+04 -1.135E-01
   1   16    5     1     5    1.1816E+05 -7.1867E+03   1.2534E+05  0.000E+00  0.000E+00  0.000E+00  4.65151E+01  1.628E-01  2.000E+01  2.000E+04 -3.593E-01
   1   16    6     1     6    1.2534E+05 -4.3047E+03   1.2965E+05  0.000E+00  0.000E+00  0.000E+00  4.60423E+01  1.673E-01  2.000E+01  2.000E+04 -2.152E-01
   1   16    7     1     7    1.2965E+05 -4.1397E+03   1.3379E+05  0.000E+00  0.000E+00  0.000E+00  4.55684E+01  1.707E-01  2.000E+01  2.000E+04 -2.070E-01
   1   16    8     1     8    1.3379E+05 -4.0990E+03   1.3789E+05  0.000E+00  0.000E+00  0.000E+00  4.50943E+01  1.738E-01  2.000E+01  2.000E+04 -2.049E-01
   1   16    9     1     9    1.3789E+05 -4.0883E+03   1.4197E+05  0.000E+00  0.000E+00  0.000E+00  4.46201E+01  1.770E-01  2.000E+01  2.000E+04 -2.044E-01
   1   16   10     1    10    1.4197E+05 -4.0851E+03   1.4606E+05  0.000E+00  0.000E+00  0.000E+00  4.41460E+01  1.800E-01  2.000E+01  2.000E+04 -2.043E-01
   1   16   11     1    11    1.4606E+05 -4.1187E+03   1.5018E+05  0.000E+00  0.000E+00  0.000E+00  4.36717E+01  1.831E-01  2.000E+01  2.000E+04 -2.059E-01
   1   16   12     1    12    1.5018E+05 -6.9635E+03   1.5714E+05  0.000E+00  0.000E+00  0.000E+00  4.31985E+01  1.872E-01  2.000E+01  2.000E+04 -3.482E-01
   1   15   13     1    13    1.5714E+05 -7.1586E+03   1.6430E+05  0.000E+00  0.000E+00  0.000E+00  4.27264E+01  1.923E-01  2.000E+01  2.000E+04 -3.579E-01
   1   14   14     1    14    1.6430E+05 -7.4675E+03   1.7177E+05  0.000E+00  0.000E+00  0.000E+00  4.22543E+01  1.975E-01  2.000E+01  2.000E+04 -3.734E-01
   1   13   15     1    15    1.7177E+05 -7.3833E+03   1.7915E+05  0.000E+00  0.000E+00  0.000E+00  4.17822E+01  2.027E-01  2.000E+01  2.000E+04 -3.692E-01
   1   12   16     1    16    1.7915E+05 -6.4342E+03   1.8559E+05  0.000E+00  0.000E+00  0.000E+00  4.13097E+01  2.074E-01  2.000E+01  2.000E+04 -3.217E-01
   1   12   17     1    17    1.8559E+05 -4.8773E+03   1.9046E+05  0.000E+00  0.000E+00  0.000E+00  4.08363E+01  2.113E-01  2.000E+01  2.000E+04 -2.439E-01
   1   12   18     1    18    1.9046E+05 -5.0633E+03   1.9553E+05  0.000E+00  0.000E+00  0.000E+00  4.03623E+01  2.146E-01  2.000E+01  2.000E+04 -2.532E-01
   1   12   19     1    19    1.9553E+05 -6.0280E+03   2.0155E+05  0.000E+00  0.000E+00  0.000E+00  3.98887E+01  2.183E-01  2.000E+01  2.000E+04 -3.014E-01
   1   13   20     1    20    2.0155E+05 -5.2919E+03   2.0685E+05  0.000E+00  0.000E+00  0.000E+00  3.94152E+01  2.220E-01  2.000E+01  2.000E+04 -2.646E-01
   1   14   21     1    21    2.0685E+05 -5.6217E+03   2.1247E+05  0.000E+00  0.000E+00  0.000E+00  3.89415E+01  2.255E-01  2.000E+01  2.000E+04 -2.811E-01
   1   14   22     1    22    2.1247E+05  4.1802E+03   2.0829E+05  0.000E+00  0.000E+00  0.000E+00  3.84646E+01  2.260E-01  2.000E+01  2.000E+04  2.090E-01
   1    9   30     2     1    5.0000E+04 -4.5055E+03   5.4505E+04  0.000E+00  0.000E+00  0.000E+00  4.02440E+01  1.190E-01  2.000E+01  2.000E+04 -2.253E-01
   1    9   29     2     2    5.4505E+04 -4.7377E+03   5.9243E+04  0.000E+00  0.000E+00  0.000E+00  4.00002E+01  1.252E-01  2.000E+01  2.000E+04 -2.369E-01
   1    9   28     2     3    5.9243E+04 -4.8624E+03   6.4106E+04  0.000E+00  0.000E+00  0.000E+00  3.97564E+01  1.314E-01  2.000E+01  2.000E+04 -2.431E-01
   1    9   27     2     4    6.4106E+04 -6.8526E+03   7.0958E+04  0.000E+00  0.000E+00  0.000E+00  3.95138E+01  1.388E-01  2.000E+01  2.000E+04 -3.426E-01
   1   10   26     2     5    7.0958E+04 -6.0913E+03   7.7049E+04  0.000E+00  0.000E+00  0.000E+00  3.92716E+01  1.466E-01  2.000E+01  2.000E+04 -3.046E-01
   1   11   25     2     6    7.7049E+04 -5.5103E+03   8.2560E+04  0.000E+00  0.000E+00  0.000E+00  3.90284E+01  1.534E-01  2.000E+01  2.000E+04 -2.755E-01
   1   12   24     2     7    8.2560E+04 -3.9418E+03   8.6502E+04  0.000E+00  0.000E+00  0.000E+00  3.87838E+01  1.588E-01  2.000E+01  2.000E+04 -1.971E-01
   1   13   23     2     8    8.6502E+04 -1.0528E+03   8.7554E+04  0.000E+00  0.000E+00  0.000E+00  3.85366E+01  1.616E-01  2.000E+01  2.000E+04 -5.264E-02
   1   14   22     2     9    8.7554E+04  6.2354E+02   8.6931E+04  0.000E+00  0.000E+00  0.000E+00  3.82868E+01  1.618E-01  2.000E+01  2.000E+04  3.118E-02
   1   14   22     3     1    2.9522E+05 -9.3616E+03   3.0458E+05  0.000E+00  0.000E+00  0.000E+00  3.77876E+01  2.320E-01  2.000E+01  2.000E+04 -4.681E-01
   1   15   23     3     2    3.0458E+05 -1.9866E+03   3.0657E+05  0.000E+00  0.000E+00  0.000E+00  3.69013E+01  2.346E-01  2.000E+01  2.000E+04 -9.933E-02
   1   15   24     3     3    3.0657E+05 -1.5292E+03   3.0810E+05  0.000E+00  0.000E+00  0.000E+00  3.60132E+01  2.354E-01  2.000E+01  2.000E+04 -7.646E-02
   1   15   25     3     4    3.0810E+05 -1.5790E+03   3.0967E+05  0.000E+00  0.000E+00  0.000E+00  3.51250E+01  2.361E-01  2.000E+01  2.000E+04 -7.895E-02
   1   15   26     3     5    3.0967E+05 -1.8823E+03   3.1156E+05  0.000E+00  0.000E+00  0.000E+00  3.42369E+01  2.369E-01  2.000E+01  2.000E+04 -9.412E-02
   1   16   27     3     6    3.1156E+05 -2.1644E+03   3.1372E+05  0.000E+00  0.000E+00  0.000E+00  3.33490E+01  2.379E-01  2.000E+01  2.000E+04 -1.082E-01
   1   17   28     3     7    3.1372E+05 -6.5790E+03   3.2030E+05  0.000E+00  0.000E+00  0.000E+00  3.24621E+01  2.399E-01  2.000E+01  2.000E+04 -3.289E-01
   1   18   29     3     8    3.2030E+05 -7.9951E+03   3.2830E+05  0.000E+00  0.000E+00  0.000E+00  3.15765E+01  2.431E-01  2.000E+01  2.000E+04 -3.998E-01
   1   18   30     3     9    3.2830E+05 -7.1748E+03   3.3547E+05  0.000E+00  0.000E+00  0.000E+00  3.06910E+01  2.465E-01  2.000E+01  2.000E+04 -3.587E-01



1
              HEAD IN LAYER   1 AT END OF TIME STEP   1 IN STRESS PERIOD    1
  ---------------------------------------------------------------------------

          1      2      3      4      5      6      7      8      9     10
         11     12     13     14     15     16     17     18     19     20
         21     22     23     24     25     26     27     28     29     30
 .........................................................................
   1  ****** ****** ****** ****** ****** ****** ****** ****** ****** ******
      ****** ****** ****** ****** ****** ****** ****** ****** ****** ******
      ****** ****** ****** ****** ****** ****** ****** ****** ****** ******
   2  ****** ****** ****** ****** ****** ****** ****** ****** ****** ******
      ****** ****** ****** ****** ****** ****** ****** ****** ****** ******
      ****** ****** ****** ****** ****** ****** ****** ****** ****** ******
   3  ****** ****** ****** ****** ****** ****** ****** ****** ****** ******
      ****** ****** ****** ****** ****** ****** ****** ****** ****** ******
      ****** ****** ****** ****** ****** ****** ****** ****** ****** ******
   4  ****** ****** ****** ****** ****** ****** ****** ****** ****** ******
      ****** ****** ****** ****** ****** ****** ****** ****** ****** ******
      ****** ****** ****** ****** ****** ****** ****** ****** ****** ******
   5  ****** ****** ****** ****** ****** ****** ****** ****** ****** ******
      ****** ****** ****** ****** ****** ****** ****** ****** ****** ******
      ****** ****** ****** ****** ****** ****** ****** ****** ****** ******
   6  ****** ****** ****** ****** ****** ****** ****** ****** ****** ******
      ****** ****** ****** ****** ****** ****** ****** ****** ****** ******
      ****** ****** ****** ****** ****** ****** ****** ****** ****** ******
   7  ****** ****** ****** ****** ****** ****** ****** ****** ****** ******
      ****** ****** ****** ****** ****** ****** ****** ****** ****** ******
      ****** ****** ****** ****** ****** ****** ****** ****** ****** ******
   8  ****** ****** ****** ****** ****** ****** ****** ****** ****** ******
      ****** ****** ****** ****** ****** ****** ****** ****** ****** ******
      ****** ****** ****** ****** ****** ****** ****** ****** ****** ******
   9  ****** ****** ****** ****** ****** ****** ****** ****** ****** ******
      ****** ****** ****** ****** ****** ****** ****** ****** ****** ******
      ****** ****** ****** ****** ****** ****** ****** ****** ****** ******
  10  ****** ****** ****** ****** ****** ****** ****** ****** ****** ******
      ****** ****** ****** ****** ****** ****** ****** ****** ****** ******
      ****** ****** ****** ****** ****** ****** ****** ****** ****** ******
  11  ****** ****** ****** ****** ****** ****** ****** ****** ****** ******
      ****** ****** ****** ****** ****** ****** ****** ****** ****** ******
      ****** ****** ****** ****** ****** ****** ****** ****** ****** ******
  12  ****** ****** ****** ****** ****** ****** ****** ****** ****** ******
      ****** ****** ****** ****** ****** ****** ****** ****** ****** ******
      ****** ****** ****** ****** ****** ****** ****** ****** ****** ******
  13  ****** ****** ****** ****** ****** ****** ****** ****** ****** ******
      ****** ****** ****** ****** ****** ****** ****** ****** ****** ******
      ****** ****** ****** ****** ****** ****** ****** ****** ****** ******
  14  ****** ****** ****** ****** ****** ****** ****** ****** ****** ******
      ****** ****** ****** ****** ****** ****** ****** ****** ****** ******
      ****** ****** ****** ****** ****** ****** ****** ****** ****** ******
  15  ****** ****** ****** ****** ****** ****** ****** ****** ****** ******
      ****** ****** ****** ****** ****** ****** ****** ****** ****** ******
      ****** ****** ****** ****** ****** ****** ****** ****** ****** ******
  16  ****** ****** ****** ****** ****** ****** ****** ****** ****** ******
      ****** ****** ****** ****** ****** ****** ****** ****** ****** ******
      ****** ****** ****** ****** ****** ****** ****** ****** ****** ******
  17  ****** ****** ****** ****** ****** ****** ****** ****** ****** ******
      ****** ****** ****** ****** ****** ****** ****** ****** ****** ******
      ****** ****** ****** ****** ****** ****** ****** ****** ****** ******
  18  ****** ****** ****** ****** ****** ****** ****** ****** ****** ******
      ****** ****** ****** ****** ****** ****** ****** ****** ****** ******
      ****** ****** ****** ****** ****** ****** ****** ****** ****** ******
  19  ****** ****** ****** ****** ****** ****** ****** ****** ****** ******
      ****** ****** ****** ****** ****** ****** ****** ****** ****** ******
      ****** ****** ****** ****** ****** ****** ****** ****** ****** ******
  20  ****** ****** ****** ****** ****** ****** ****** ****** ****** ******
      ****** ****** ****** ****** ****** ****** ****** ****** ****** ******
      ****** ****** ****** ****** ****** ****** ****** ****** ****** ******
  21  ****** ****** ****** ****** ****** ****** ****** ****** ****** ******
      ****** ****** ****** ****** ****** ****** ****** ****** ****** ******
      ****** ****** ****** ****** ****** ****** ****** ****** ****** ******
  22  ****** ****** ****** ****** ****** ****** ****** ****** ****** ******
      ****** ****** ****** ****** ****** ****** ****** ****** ****** ******
      ****** ****** ****** ****** ****** ****** ****** ****** ****** ******
  23  ****** ****** ****** ****** ****** ****** ****** ****** ****** ******
      ****** ****** ****** ****** ****** ****** ****** ****** ****** ******
      ****** ****** ****** ****** ****** ****** ****** ****** ****** ******
  24  ****** ****** ****** ****** ****** ****** ****** ****** ****** ******
      ****** ****** ****** ****** ****** ****** ****** ****** ****** ******
      ****** ****** ****** ****** ****** ****** ****** ****** ****** ******
  25  ****** ****** ****** ****** ****** ****** ****** ****** ****** ******
      ****** ****** ****** ****** ****** ****** ****** ****** ****** ******
      ****** ****** ****** ****** ****** ****** ****** ****** ****** ******

 HEAD WILL BE SAVED ON UNIT   51 AT END OF TIME STEP    1, STRESS PERIOD    1
1
  VOLUMETRIC BUDGET FOR ENTIRE MODEL AT END OF TIME STEP    1, STRESS PERIOD   1
  ------------------------------------------------------------------------------

     CUMULATIVE VOLUMES      L**3       RATES FOR THIS TIME STEP      L**3/T
     ------------------                 ------------------------

           IN:                                      IN:
           ---                                      ---
             STORAGE =    18182580.8222               STORAGE =      197636.7481
       CONSTANT HEAD =     1199687.7058         CONSTANT HEAD =       13040.0838
               WELLS =           0.0000                 WELLS =           0.0000
            RECHARGE =     1269600.0000              RECHARGE =       13800.0000
      STREAM LEAKAGE =      441943.0128        STREAM LEAKAGE =        4803.7284

            TOTAL IN =    21093811.5408              TOTAL IN =      229280.5602

          OUT:                                     OUT:
          ----                                     ----
             STORAGE =           0.0000               STORAGE =           0.0000
       CONSTANT HEAD =           0.0000         CONSTANT HEAD =           0.0000
               WELLS =     3588594.1376                 WELLS =       39006.4580
            RECHARGE =           0.0000              RECHARGE =           0.0000
      STREAM LEAKAGE =    17505217.6929        STREAM LEAKAGE =      190274.1054

           TOTAL OUT =    21093811.8305             TOTAL OUT =      229280.5634

            IN - OUT =          -0.2897              IN - OUT =      -3.1489E-03

 PERCENT DISCREPANCY =          -0.00     PERCENT DISCREPANCY =          -0.00






         TIME SUMMARY AT END OF TIME STEP    1 IN STRESS PERIOD    1
                    SECONDS     MINUTES      HOURS       DAYS        YEARS
                    -----------------------------------------------------------
   TIME STEP LENGTH 7.94880E+06 1.32480E+05  2208.0      92.000     0.25188    
 STRESS PERIOD TIME 7.94880E+06 1.32480E+05  2208.0      92.000     0.25188    
         TOTAL TIME 7.94880E+06 1.32480E+05  2208.0      92.000     0.25188    
1
1
                            STRESS PERIOD NO.    2, LENGTH =   91.00000    
                            -----------------------------------------------

                              NUMBER OF TIME STEPS =     1

                               MULTIPLIER FOR DELT =     1.500

                            INITIAL TIME STEP SIZE =   91.00000    

 WELL NO.  LAYER   ROW   COL   STRESS RATE         
 --------------------------------------------------
      1      1     12     22      -9012.    
      2      1     10     16      -9566.    
      3      1      6     24     -0.1330E+05
      4      1      6     17      -7129.    

      4 WELLS

                 RECHARGE =  2.000000E-03

 REUSING STREAM SEGMENT DATA FROM LAST STRESS PERIOD
 
 SOLVING FOR HEAD 


     7 CALLS TO PCG ROUTINE FOR TIME STEP   1 IN STRESS PERIOD    2
    27 TOTAL ITERATIONS

 OUTPUT CONTROL FOR STRESS PERIOD    2   TIME STEP    1
    SAVE BUDGET
    SAVE HEAD FOR ALL LAYERS
    PRINT HEAD FOR ALL LAYERS
 UBDSV2 SAVING "STREAMFLOW OUT  " ON UNIT  50 AT TIME STEP  1, STRESS PERIOD   2



 STREAM LISTING     PERIOD      2   STEP        1

 LAYER ROW COL. STREAM  RCH.  FLOW INTO     FLOW TO   FLOW OUT OF   OVRLND.     DIRECT     STREAM       STREAM     STREAM     STREAM   STREAMBED  STREAMBED
                SEG.NO.  NO.  STRM. RCH.    AQUIFER    STRM. RCH.    RUNOFF     PRECIP       ET          HEAD       DEPTH      WIDTH   CONDCTNC.   GRADIENT

   1   13    1     1     1    1.0000E+05 -3.9702E+03   1.0397E+05  0.000E+00  0.000E+00  0.000E+00  4.84077E+01  1.464E-01  2.000E+01  2.000E+04 -1.985E-01
   1   13    2     1     2    1.0397E+05 -5.2298E+03   1.0920E+05  0.000E+00  0.000E+00  0.000E+00  4.79344E+01  1.503E-01  2.000E+01  2.000E+04 -2.615E-01
   1   14    3     1     3    1.0920E+05 -1.1140E+03   1.1031E+05  0.000E+00  0.000E+00  0.000E+00  4.74598E+01  1.530E-01  2.000E+01  2.000E+04 -5.570E-02
   1   15    4     1     4    1.1031E+05 -1.1430E+03   1.1146E+05  0.000E+00  0.000E+00  0.000E+00  4.69834E+01  1.539E-01  2.000E+01  2.000E+04 -5.715E-02
   1   16    5     1     5    1.1146E+05 -4.2591E+03   1.1572E+05  0.000E+00  0.000E+00  0.000E+00  4.65084E+01  1.561E-01  2.000E+01  2.000E+04 -2.130E-01
   1   16    6     1     6    1.1572E+05 -2.5108E+03   1.1823E+05  0.000E+00  0.000E+00  0.000E+00  4.60339E+01  1.589E-01  2.000E+01  2.000E+04 -1.255E-01
   1   16    7     1     7    1.1823E+05 -2.4166E+03   1.2064E+05  0.000E+00  0.000E+00  0.000E+00  4.55586E+01  1.609E-01  2.000E+01  2.000E+04 -1.208E-01
   1   16    8     1     8    1.2064E+05 -2.3876E+03   1.2303E+05  0.000E+00  0.000E+00  0.000E+00  4.50833E+01  1.629E-01  2.000E+01  2.000E+04 -1.194E-01
   1   16    9     1     9    1.2303E+05 -2.3668E+03   1.2540E+05  0.000E+00  0.000E+00  0.000E+00  4.46079E+01  1.648E-01  2.000E+01  2.000E+04 -1.183E-01
   1   16   10     1    10    1.2540E+05 -2.3421E+03   1.2774E+05  0.000E+00  0.000E+00  0.000E+00  4.41325E+01  1.666E-01  2.000E+01  2.000E+04 -1.171E-01
   1   16   11     1    11    1.2774E+05 -2.3466E+03   1.3009E+05  0.000E+00  0.000E+00  0.000E+00  4.36571E+01  1.685E-01  2.000E+01  2.000E+04 -1.173E-01
   1   16   12     1    12    1.3009E+05 -4.0735E+03   1.3416E+05  0.000E+00  0.000E+00  0.000E+00  4.31823E+01  1.710E-01  2.000E+01  2.000E+04 -2.037E-01
   1   15   13     1    13    1.3416E+05 -3.8555E+03   1.3802E+05  0.000E+00  0.000E+00  0.000E+00  4.27081E+01  1.740E-01  2.000E+01  2.000E+04 -1.928E-01
   1   14   14     1    14    1.3802E+05 -3.9717E+03   1.4199E+05  0.000E+00  0.000E+00  0.000E+00  4.22338E+01  1.770E-01  2.000E+01  2.000E+04 -1.986E-01
   1   13   15     1    15    1.4199E+05 -3.7821E+03   1.4577E+05  0.000E+00  0.000E+00  0.000E+00  4.17595E+01  1.799E-01  2.000E+01  2.000E+04 -1.891E-01
   1   12   16     1    16    1.4577E+05 -2.7567E+03   1.4853E+05  0.000E+00  0.000E+00  0.000E+00  4.12847E+01  1.824E-01  2.000E+01  2.000E+04 -1.378E-01
   1   12   17     1    17    1.4853E+05 -2.0344E+03   1.5056E+05  0.000E+00  0.000E+00  0.000E+00  4.08092E+01  1.842E-01  2.000E+01  2.000E+04 -1.017E-01
   1   12   18     1    18    1.5056E+05 -2.2275E+03   1.5279E+05  0.000E+00  0.000E+00  0.000E+00  4.03335E+01  1.857E-01  2.000E+01  2.000E+04 -1.114E-01
   1   12   19     1    19    1.5279E+05 -2.3899E+03   1.5518E+05  0.000E+00  0.000E+00  0.000E+00  3.98579E+01  1.874E-01  2.000E+01  2.000E+04 -1.195E-01
   1   13   20     1    20    1.5518E+05 -1.9043E+03   1.5708E+05  0.000E+00  0.000E+00  0.000E+00  3.93822E+01  1.890E-01  2.000E+01  2.000E+04 -9.522E-02
   1   14   21     1    21    1.5708E+05 -2.8168E+03   1.5990E+05  0.000E+00  0.000E+00  0.000E+00  3.89066E+01  1.907E-01  2.000E+01  2.000E+04 -1.408E-01
   1   14   22     1    22    1.5990E+05  5.0041E+03   1.5489E+05  0.000E+00  0.000E+00  0.000E+00  3.84285E+01  1.899E-01  2.000E+01  2.000E+04  2.502E-01
   1    9   30     2     1    5.0000E+04 -1.5704E+03   5.1570E+04  0.000E+00  0.000E+00  0.000E+00  4.02420E+01  1.170E-01  2.000E+01  2.000E+04 -7.852E-02
   1    9   29     2     2    5.1570E+04 -1.7956E+03   5.3366E+04  0.000E+00  0.000E+00  0.000E+00  3.99943E+01  1.193E-01  2.000E+01  2.000E+04 -8.978E-02
   1    9   28     2     3    5.3366E+04 -1.8856E+03   5.5252E+04  0.000E+00  0.000E+00  0.000E+00  3.97468E+01  1.218E-01  2.000E+01  2.000E+04 -9.428E-02
   1    9   27     2     4    5.5252E+04 -2.7860E+03   5.8038E+04  0.000E+00  0.000E+00  0.000E+00  3.94999E+01  1.249E-01  2.000E+01  2.000E+04 -1.393E-01
   1   10   26     2     5    5.8038E+04 -2.0129E+03   6.0051E+04  0.000E+00  0.000E+00  0.000E+00  3.92530E+01  1.280E-01  2.000E+01  2.000E+04 -1.006E-01
   1   11   25     2     6    6.0051E+04 -1.6377E+03   6.1688E+04  0.000E+00  0.000E+00  0.000E+00  3.90054E+01  1.304E-01  2.000E+01  2.000E+04 -8.188E-02
   1   12   24     2     7    6.1688E+04 -4.0515E+02   6.2093E+04  0.000E+00  0.000E+00  0.000E+00  3.87567E+01  1.317E-01  2.000E+01  2.000E+04 -2.026E-02
   1   13   23     2     8    6.2093E+04  6.6449E+01   6.2027E+04  0.000E+00  0.000E+00  0.000E+00  3.85069E+01  1.319E-01  2.000E+01  2.000E+04  3.322E-03
   1   14   22     2     9    6.2027E+04  1.5508E+03   6.0476E+04  0.000E+00  0.000E+00  0.000E+00  3.82559E+01  1.309E-01  2.000E+01  2.000E+04  7.754E-02
   1   14   22     3     1    2.1537E+05 -8.6061E+03   2.2398E+05  0.000E+00  0.000E+00  0.000E+00  3.77480E+01  1.925E-01  2.000E+01  2.000E+04 -4.303E-01
   1   15   23     3     2    2.2398E+05 -1.0523E+03   2.2503E+05  0.000E+00  0.000E+00  0.000E+00  3.68617E+01  1.950E-01  2.000E+01  2.000E+04 -5.261E-02
   1   15   24     3     3    2.2503E+05 -6.6422E+02   2.2569E+05  0.000E+00  0.000E+00  0.000E+00  3.59732E+01  1.954E-01  2.000E+01  2.000E+04 -3.321E-02
   1   15   25     3     4    2.2569E+05 -6.7041E+02   2.2636E+05  0.000E+00  0.000E+00  0.000E+00  3.50847E+01  1.958E-01  2.000E+01  2.000E+04 -3.352E-02
   1   15   26     3     5    2.2636E+05 -7.7184E+02   2.2714E+05  0.000E+00  0.000E+00  0.000E+00  3.41962E+01  1.962E-01  2.000E+01  2.000E+04 -3.859E-02
   1   16   27     3     6    2.2714E+05 -8.9819E+02   2.2803E+05  0.000E+00  0.000E+00  0.000E+00  3.33077E+01  1.966E-01  2.000E+01  2.000E+04 -4.491E-02
   1   17   28     3     7    2.2803E+05 -3.2563E+03   2.3129E+05  0.000E+00  0.000E+00  0.000E+00  3.24199E+01  1.977E-01  2.000E+01  2.000E+04 -1.628E-01
   1   18   29     3     8    2.3129E+05 -5.0579E+03   2.3635E+05  0.000E+00  0.000E+00  0.000E+00  3.15331E+01  1.998E-01  2.000E+01  2.000E+04 -2.529E-01
   1   18   30     3     9    2.3635E+05 -4.6852E+03   2.4103E+05  0.000E+00  0.000E+00  0.000E+00  3.06467E+01  2.023E-01  2.000E+01  2.000E+04 -2.343E-01



1
              HEAD IN LAYER   1 AT END OF TIME STEP   1 IN STRESS PERIOD    2
  ---------------------------------------------------------------------------

          1      2      3      4      5      6      7      8      9     10
         11     12     13     14     15     16     17     18     19     20
         21     22     23     24     25     26     27     28     29     30
 .........................................................................
   1  ****** ****** ****** ****** ****** ****** ****** ****** ****** ******
      ****** ****** ****** ****** ****** ****** ****** ****** ****** ******
      ****** ****** ****** ****** ****** ****** ****** ****** ****** ******
   2  ****** ****** ****** ****** ****** ****** ****** ****** ****** ******
      ****** ****** ****** ****** ****** ****** ****** ****** ****** ******
      ****** ****** ****** ****** ****** ****** ****** ****** ****** ******
   3  ****** ****** ****** ****** ****** ****** ****** ****** ****** ******
      ****** ****** ****** ****** ****** ****** ****** ****** ****** ******
      ****** ****** ****** ****** ****** ****** ****** ****** ****** ******
   4  ****** ****** ****** ****** ****** ****** ****** ****** ****** ******
      ****** ****** ****** ****** ****** ****** ****** ****** ****** ******
      ****** ****** ****** ****** ****** ****** ****** ****** ****** ******
   5  ****** ****** ****** ****** ****** ****** ****** ****** ****** ******
      ****** ****** ****** ****** ****** ****** ****** ****** ****** ******
      ****** ****** ****** ****** ****** ****** ****** ****** ****** ******
   6  ****** ****** ****** ****** ****** ****** ****** ****** ****** ******
      ****** ****** ****** ****** ****** ****** ****** ****** ****** ******
      ****** ****** ****** ****** ****** ****** ****** ****** ****** ******
   7  ****** ****** ****** ****** ****** ****** ****** ****** ****** ******
      ****** ****** ****** ****** ****** ****** ****** ****** ****** ******
      ****** ****** ****** ****** ****** ****** ****** ****** ****** ******
   8  ****** ****** ****** ****** ****** ****** ****** ****** ****** ******
      ****** ****** ****** ****** ****** ****** ****** ****** ****** ******
      ****** ****** ****** ****** ****** ****** ****** ****** ****** ******
   9  ****** ****** ****** ****** ****** ****** ****** ****** ****** ******
      ****** ****** ****** ****** ****** ****** ****** ****** ****** ******
      ****** ****** ****** ****** ****** ****** ****** ****** ****** ******
  10  ****** ****** ****** ****** ****** ****** ****** ****** ****** ******
      ****** ****** ****** ****** ****** ****** ****** ****** ****** ******
      ****** ****** ****** ****** ****** ****** ****** ****** ****** ******
  11  ****** ****** ****** ****** ****** ****** ****** ****** ****** ******
      ****** ****** ****** ****** ****** ****** ****** ****** ****** ******
      ****** ****** ****** ****** ****** ****** ****** ****** ****** ******
  12  ****** ****** ****** ****** ****** ****** ****** ****** ****** ******
      ****** ****** ****** ****** ****** ****** ****** ****** ****** ******
      ****** ****** ****** ****** ****** ****** ****** ****** ****** ******
  13  ****** ****** ****** ****** ****** ****** ****** ****** ****** ******
      ****** ****** ****** ****** ****** ****** ****** ****** ****** ******
      ****** ****** ****** ****** ****** ****** ****** ****** ****** ******
  14  ****** ****** ****** ****** ****** ****** ****** ****** ****** ******
      ****** ****** ****** ****** ****** ****** ****** ****** ****** ******
      ****** ****** ****** ****** ****** ****** ****** ****** ****** ******
  15  ****** ****** ****** ****** ****** ****** ****** ****** ****** ******
      ****** ****** ****** ****** ****** ****** ****** ****** ****** ******
      ****** ****** ****** ****** ****** ****** ****** ****** ****** ******
  16  ****** ****** ****** ****** ****** ****** ****** ****** ****** ******
      ****** ****** ****** ****** ****** ****** ****** ****** ****** ******
      ****** ****** ****** ****** ****** ****** ****** ****** ****** ******
  17  ****** ****** ****** ****** ****** ****** ****** ****** ****** ******
      ****** ****** ****** ****** ****** ****** ****** ****** ****** ******
      ****** ****** ****** ****** ****** ****** ****** ****** ****** ******
  18  ****** ****** ****** ****** ****** ****** ****** ****** ****** ******
      ****** ****** ****** ****** ****** ****** ****** ****** ****** ******
      ****** ****** ****** ****** ****** ****** ****** ****** ****** ******
  19  ****** ****** ****** ****** ****** ****** ****** ****** ****** ******
      ****** ****** ****** ****** ****** ****** ****** ****** ****** ******
      ****** ****** ****** ****** ****** ****** ****** ****** ****** ******
  20  ****** ****** ****** ****** ****** ****** ****** ****** ****** ******
      ****** ****** ****** ****** ****** ****** ****** ****** ****** ******
      ****** ****** ****** ****** ****** ****** ****** ****** ****** ******
  21  ****** ****** ****** ****** ****** ****** ****** ****** ****** ******
      ****** ****** ****** ****** ****** ****** ****** ****** ****** ******
      ****** ****** ****** ****** ****** ****** ****** ****** ****** ******
  22  ****** ****** ****** ****** ****** ****** ****** ****** ****** ******
      ****** ****** ****** ****** ****** ****** ****** ****** ****** ******
      ****** ****** ****** ****** ****** ****** ****** ****** ****** ******
  23  ****** ****** ****** ****** ****** ****** ****** ****** ****** ******
      ****** ****** ****** ****** ****** ****** ****** ****** ****** ******
      ****** ****** ****** ****** ****** ****** ****** ****** ****** ******
  24  ****** ****** ****** ****** ****** ****** ****** ****** ****** ******
      ****** ****** ****** ****** ****** ****** ****** ****** ****** ******
      ****** ****** ****** ****** ****** ****** ****** ****** ****** ******
  25  ****** ****** ****** ****** ****** ****** ****** ****** ****** ******
      ****** ****** ****** ****** ****** ****** ****** ****** ****** ******
      ****** ****** ****** ****** ****** ****** ****** ****** ****** ******

 HEAD WILL BE SAVED ON UNIT   51 AT END OF TIME STEP    1, STRESS PERIOD    2
1
  VOLUMETRIC BUDGET FOR ENTIRE MODEL AT END OF TIME STEP    1, STRESS PERIOD   2
  ------------------------------------------------------------------------------

     CUMULATIVE VOLUMES      L**3       RATES FOR THIS TIME STEP      L**3/T
     ------------------                 ------------------------

           IN:                                      IN:
           ---                                      ---
             STORAGE =    23353685.4816               STORAGE =       56825.3259
       CONSTANT HEAD =     2839002.1152         CONSTANT HEAD =       18014.4441
               WELLS =           0.0000                 WELLS =           0.0000
            RECHARGE =     6292800.0000              RECHARGE =       55200.0000
      STREAM LEAKAGE =     1044484.6004        STREAM LEAKAGE =        6621.3361

            TOTAL IN =    33529972.1972              TOTAL IN =      136661.1061

          OUT:                                     OUT:
          ----                                     ----
             STORAGE =           0.0000               STORAGE =           0.0000
       CONSTANT HEAD =           0.0000         CONSTANT HEAD =           0.0000
               WELLS =     7138181.8171                 WELLS =       39006.4580
            RECHARGE =           0.0000              RECHARGE =           0.0000
      STREAM LEAKAGE =    26391791.6371        STREAM LEAKAGE =       97654.6587

           TOTAL OUT =    33529973.4542             TOTAL OUT =      136661.1167

            IN - OUT =          -1.2571              IN - OUT =      -1.0630E-02

 PERCENT DISCREPANCY =          -0.00     PERCENT DISCREPANCY =          -0.00






         TIME SUMMARY AT END OF TIME STEP    1 IN STRESS PERIOD    2
                    SECONDS     MINUTES      HOURS       DAYS        YEARS
                    -----------------------------------------------------------
   TIME STEP LENGTH 7.86240E+06 1.31040E+05  2184.0      91.000     0.24914    
 STRESS PERIOD TIME 7.86240E+06 1.31040E+05  2184.0      91.000     0.24914    
         TOTAL TIME 1.58112E+07 2.63520E+05  4392.0      183.00     0.50103    
1
1
                            STRESS PERIOD NO.    3, LENGTH =   91.00000    
                            -----------------------------------------------

                              NUMBER OF TIME STEPS =     1

                               MULTIPLIER FOR DELT =     1.500

                            INITIAL TIME STEP SIZE =   91.00000    

 WELL NO.  LAYER   ROW   COL   STRESS RATE         
 --------------------------------------------------
      1      1     12     22      -9012.    
      2      1     10     16      -9566.    
      3      1      6     24     -0.1330E+05
      4      1      6     17      -7129.    

      4 WELLS

                 RECHARGE =   0.00000    

 REUSING STREAM SEGMENT DATA FROM LAST STRESS PERIOD
 
 SOLVING FOR HEAD 


     7 CALLS TO PCG ROUTINE FOR TIME STEP   1 IN STRESS PERIOD    3
    27 TOTAL ITERATIONS

 OUTPUT CONTROL FOR STRESS PERIOD    3   TIME STEP    1
    SAVE BUDGET
    SAVE HEAD FOR ALL LAYERS
    PRINT HEAD FOR ALL LAYERS
 UBDSV2 SAVING "STREAMFLOW OUT  " ON UNIT  50 AT TIME STEP  1, STRESS PERIOD   3



 STREAM LISTING     PERIOD      3   STEP        1

 LAYER ROW COL. STREAM  RCH.  FLOW INTO     FLOW TO   FLOW OUT OF   OVRLND.     DIRECT     STREAM       STREAM     STREAM     STREAM   STREAMBED  STREAMBED
                SEG.NO.  NO.  STRM. RCH.    AQUIFER    STRM. RCH.    RUNOFF     PRECIP       ET          HEAD       DEPTH      WIDTH   CONDCTNC.   GRADIENT

   1   13    1     1     1    1.0000E+05 -2.6943E+03   1.0269E+05  0.000E+00  0.000E+00  0.000E+00  4.84072E+01  1.458E-01  2.000E+01  2.000E+04 -1.347E-01
   1   13    2     1     2    1.0269E+05 -3.7980E+03   1.0649E+05  0.000E+00  0.000E+00  0.000E+00  4.79327E+01  1.486E-01  2.000E+01  2.000E+04 -1.899E-01
   1   14    3     1     3    1.0649E+05 -6.5121E+02   1.0714E+05  0.000E+00  0.000E+00  0.000E+00  4.74573E+01  1.505E-01  2.000E+01  2.000E+04 -3.256E-02
   1   15    4     1     4    1.0714E+05 -6.3701E+02   1.0778E+05  0.000E+00  0.000E+00  0.000E+00  4.69806E+01  1.510E-01  2.000E+01  2.000E+04 -3.185E-02
   1   16    5     1     5    1.0778E+05 -2.4696E+03   1.1025E+05  0.000E+00  0.000E+00  0.000E+00  4.65046E+01  1.523E-01  2.000E+01  2.000E+04 -1.235E-01
   1   16    6     1     6    1.1025E+05 -1.5101E+03   1.1176E+05  0.000E+00  0.000E+00  0.000E+00  4.60290E+01  1.540E-01  2.000E+01  2.000E+04 -7.551E-02
   1   16    7     1     7    1.1176E+05 -1.4738E+03   1.1323E+05  0.000E+00  0.000E+00  0.000E+00  4.55530E+01  1.552E-01  2.000E+01  2.000E+04 -7.369E-02
   1   16    8     1     8    1.1323E+05 -1.4627E+03   1.1470E+05  0.000E+00  0.000E+00  0.000E+00  4.50769E+01  1.565E-01  2.000E+01  2.000E+04 -7.314E-02
   1   16    9     1     9    1.1470E+05 -1.4465E+03   1.1614E+05  0.000E+00  0.000E+00  0.000E+00  4.46008E+01  1.576E-01  2.000E+01  2.000E+04 -7.233E-02
   1   16   10     1    10    1.1614E+05 -1.4227E+03   1.1757E+05  0.000E+00  0.000E+00  0.000E+00  4.41247E+01  1.588E-01  2.000E+01  2.000E+04 -7.114E-02
   1   16   11     1    11    1.1757E+05 -1.4229E+03   1.1899E+05  0.000E+00  0.000E+00  0.000E+00  4.36486E+01  1.600E-01  2.000E+01  2.000E+04 -7.114E-02
   1   16   12     1    12    1.1899E+05 -2.4612E+03   1.2145E+05  0.000E+00  0.000E+00  0.000E+00  4.31729E+01  1.616E-01  2.000E+01  2.000E+04 -1.231E-01
   1   15   13     1    13    1.2145E+05 -2.1652E+03   1.2362E+05  0.000E+00  0.000E+00  0.000E+00  4.26975E+01  1.634E-01  2.000E+01  2.000E+04 -1.083E-01
   1   14   14     1    14    1.2362E+05 -2.1975E+03   1.2581E+05  0.000E+00  0.000E+00  0.000E+00  4.22220E+01  1.651E-01  2.000E+01  2.000E+04 -1.099E-01
   1   13   15     1    15    1.2581E+05 -1.9577E+03   1.2777E+05  0.000E+00  0.000E+00  0.000E+00  4.17463E+01  1.668E-01  2.000E+01  2.000E+04 -9.788E-02
   1   12   16     1    16    1.2777E+05 -7.7034E+02   1.2854E+05  0.000E+00  0.000E+00  0.000E+00  4.12701E+01  1.679E-01  2.000E+01  2.000E+04 -3.852E-02
   1   12   17     1    17    1.2854E+05 -6.1861E+02   1.2916E+05  0.000E+00  0.000E+00  0.000E+00  4.07934E+01  1.684E-01  2.000E+01  2.000E+04 -3.093E-02
   1   12   18     1    18    1.2916E+05 -8.3176E+02   1.2999E+05  0.000E+00  0.000E+00  0.000E+00  4.03167E+01  1.690E-01  2.000E+01  2.000E+04 -4.159E-02
   1   12   19     1    19    1.2999E+05 -6.0059E+02   1.3059E+05  0.000E+00  0.000E+00  0.000E+00  3.98400E+01  1.695E-01  2.000E+01  2.000E+04 -3.003E-02
   1   13   20     1    20    1.3059E+05 -3.6348E+02   1.3096E+05  0.000E+00  0.000E+00  0.000E+00  3.93631E+01  1.699E-01  2.000E+01  2.000E+04 -1.817E-02
   1   14   21     1    21    1.3096E+05 -1.3347E+03   1.3229E+05  0.000E+00  0.000E+00  0.000E+00  3.88865E+01  1.706E-01  2.000E+01  2.000E+04 -6.673E-02
   1   14   22     1    22    1.3229E+05  5.3796E+03   1.2691E+05  0.000E+00  0.000E+00  0.000E+00  3.84076E+01  1.690E-01  2.000E+01  2.000E+04  2.690E-01
   1    9   30     2     1    5.0000E+04 -2.6269E+02   5.0263E+04  0.000E+00  0.000E+00  0.000E+00  4.02410E+01  1.160E-01  2.000E+01  2.000E+04 -1.313E-02
   1    9   29     2     2    5.0263E+04 -4.8268E+02   5.0745E+04  0.000E+00  0.000E+00  0.000E+00  3.99916E+01  1.166E-01  2.000E+01  2.000E+04 -2.413E-02
   1    9   28     2     3    5.0745E+04 -5.4136E+02   5.1287E+04  0.000E+00  0.000E+00  0.000E+00  3.97423E+01  1.173E-01  2.000E+01  2.000E+04 -2.707E-02
   1    9   27     2     4    5.1287E+04 -7.8453E+02   5.2071E+04  0.000E+00  0.000E+00  0.000E+00  3.94932E+01  1.182E-01  2.000E+01  2.000E+04 -3.923E-02
   1   10   26     2     5    5.2071E+04 -1.9022E+02   5.2261E+04  0.000E+00  0.000E+00  0.000E+00  3.92439E+01  1.189E-01  2.000E+01  2.000E+04 -9.511E-03
   1   11   25     2     6    5.2261E+04  4.6982E+01   5.2214E+04  0.000E+00  0.000E+00  0.000E+00  3.89939E+01  1.189E-01  2.000E+01  2.000E+04  2.349E-03
   1   12   24     2     7    5.2214E+04  1.1071E+03   5.1107E+04  0.000E+00  0.000E+00  0.000E+00  3.87432E+01  1.182E-01  2.000E+01  2.000E+04  5.536E-02
   1   13   23     2     8    5.1107E+04  4.2588E+02   5.0681E+04  0.000E+00  0.000E+00  0.000E+00  3.84921E+01  1.171E-01  2.000E+01  2.000E+04  2.129E-02
   1   14   22     2     9    5.0681E+04  2.0348E+03   4.8647E+04  0.000E+00  0.000E+00  0.000E+00  3.82404E+01  1.154E-01  2.000E+01  2.000E+04  1.017E-01
   1   14   22     3     1    1.7556E+05 -8.2499E+03   1.8381E+05  0.000E+00  0.000E+00  0.000E+00  3.77262E+01  1.706E-01  2.000E+01  2.000E+04 -4.125E-01
   1   15   23     3     2    1.8381E+05 -6.6653E+02   1.8447E+05  0.000E+00  0.000E+00  0.000E+00  3.68398E+01  1.731E-01  2.000E+01  2.000E+04 -3.333E-02
   1   15   24     3     3    1.8447E+05 -3.4411E+02   1.8482E+05  0.000E+00  0.000E+00  0.000E+00  3.59512E+01  1.734E-01  2.000E+01  2.000E+04 -1.721E-02
   1   15   25     3     4    1.8482E+05 -3.3310E+02   1.8515E+05  0.000E+00  0.000E+00  0.000E+00  3.50625E+01  1.736E-01  2.000E+01  2.000E+04 -1.666E-02
   1   15   26     3     5    1.8515E+05 -3.6891E+02   1.8552E+05  0.000E+00  0.000E+00  0.000E+00  3.41738E+01  1.738E-01  2.000E+01  2.000E+04 -1.845E-02
   1   16   27     3     6    1.8552E+05 -4.3445E+02   1.8595E+05  0.000E+00  0.000E+00  0.000E+00  3.32851E+01  1.740E-01  2.000E+01  2.000E+04 -2.172E-02
   1   17   28     3     7    1.8595E+05 -1.8506E+03   1.8780E+05  0.000E+00  0.000E+00  0.000E+00  3.23969E+01  1.747E-01  2.000E+01  2.000E+04 -9.253E-02
   1   18   29     3     8    1.8780E+05 -3.5551E+03   1.9136E+05  0.000E+00  0.000E+00  0.000E+00  3.15095E+01  1.762E-01  2.000E+01  2.000E+04 -1.778E-01
   1   18   30     3     9    1.9136E+05 -3.5571E+03   1.9492E+05  0.000E+00  0.000E+00  0.000E+00  3.06226E+01  1.782E-01  2.000E+01  2.000E+04 -1.779E-01



1
              HEAD IN LAYER   1 AT END OF TIME STEP   1 IN STRESS PERIOD    3
  ---------------------------------------------------------------------------

          1      2      3      4      5      6      7      8      9     10
         11     12     13     14     15     16     17     18     19     20
         21     22     23     24     25     26     27     28     29     30
 .........................................................................
   1  ****** ****** ****** ****** ****** ****** ****** ****** ****** ******
      ****** ****** ****** ****** ****** ****** ****** ****** ****** ******
      ****** ****** ****** ****** ****** ****** ****** ****** ****** ******
   2  ****** ****** ****** ****** ****** ****** ****** ****** ****** ******
      ****** ****** ****** ****** ****** ****** ****** ****** ****** ******
      ****** ****** ****** ****** ****** ****** ****** ****** ****** ******
   3  ****** ****** ****** ****** ****** ****** ****** ****** ****** ******
      ****** ****** ****** ****** ****** ****** ****** ****** ****** ******
      ****** ****** ****** ****** ****** ****** ****** ****** ****** ******
   4  ****** ****** ****** ****** ****** ****** ****** ****** ****** ******
      ****** ****** ****** ****** ****** ****** ****** ****** ****** ******
      ****** ****** ****** ****** ****** ****** ****** ****** ****** ******
   5  ****** ****** ****** ****** ****** ****** ****** ****** ****** ******
      ****** ****** ****** ****** ****** ****** ****** ****** ****** ******
      ****** ****** ****** ****** ****** ****** ****** ****** ****** ******
   6  ****** ****** ****** ****** ****** ****** ****** ****** ****** ******
      ****** ****** ****** ****** ****** ****** ****** ****** ****** ******
      ****** ****** ****** ****** ****** ****** ****** ****** ****** ******
   7  ****** ****** ****** ****** ****** ****** ****** ****** ****** ******
      ****** ****** ****** ****** ****** ****** ****** ****** ****** ******
      ****** ****** ****** ****** ****** ****** ****** ****** ****** ******
   8  ****** ****** ****** ****** ****** ****** ****** ****** ****** ******
      ****** ****** ****** ****** ****** ****** ****** ****** ****** ******
      ****** ****** ****** ****** ****** ****** ****** ****** ****** ******
   9  ****** ****** ****** ****** ****** ****** ****** ****** ****** ******
      ****** ****** ****** ****** ****** ****** ****** ****** ****** ******
      ****** ****** ****** ****** ****** ****** ****** ****** ****** ******
  10  ****** ****** ****** ****** ****** ****** ****** ****** ****** ******
      ****** ****** ****** ****** ****** ****** ****** ****** ****** ******
      ****** ****** ****** ****** ****** ****** ****** ****** ****** ******
  11  ****** ****** ****** ****** ****** ****** ****** ****** ****** ******
      ****** ****** ****** ****** ****** ****** ****** ****** ****** ******
      ****** ****** ****** ****** ****** ****** ****** ****** ****** ******
  12  ****** ****** ****** ****** ****** ****** ****** ****** ****** ******
      ****** ****** ****** ****** ****** ****** ****** ****** ****** ******
      ****** ****** ****** ****** ****** ****** ****** ****** ****** ******
  13  ****** ****** ****** ****** ****** ****** ****** ****** ****** ******
      ****** ****** ****** ****** ****** ****** ****** ****** ****** ******
      ****** ****** ****** ****** ****** ****** ****** ****** ****** ******
  14  ****** ****** ****** ****** ****** ****** ****** ****** ****** ******
      ****** ****** ****** ****** ****** ****** ****** ****** ****** ******
      ****** ****** ****** ****** ****** ****** ****** ****** ****** ******
  15  ****** ****** ****** ****** ****** ****** ****** ****** ****** ******
      ****** ****** ****** ****** ****** ****** ****** ****** ****** ******
      ****** ****** ****** ****** ****** ****** ****** ****** ****** ******
  16  ****** ****** ****** ****** ****** ****** ****** ****** ****** ******
      ****** ****** ****** ****** ****** ****** ****** ****** ****** ******
      ****** ****** ****** ****** ****** ****** ****** ****** ****** ******
  17  ****** ****** ****** ****** ****** ****** ****** ****** ****** ******
      ****** ****** ****** ****** ****** ****** ****** ****** ****** ******
      ****** ****** ****** ****** ****** ****** ****** ****** ****** ******
  18  ****** ****** ****** ****** ****** ****** ****** ****** ****** ******
      ****** ****** ****** ****** ****** ****** ****** ****** ****** ******
      ****** ****** ****** ****** ****** ****** ****** ****** ****** ******
  19  ****** ****** ****** ****** ****** ****** ****** ****** ****** ******
      ****** ****** ****** ****** ****** ****** ****** ****** ****** ******
      ****** ****** ****** ****** ****** ****** ****** ****** ****** ******
  20  ****** ****** ****** ****** ****** ****** ****** ****** ****** ******
      ****** ****** ****** ****** ****** ****** ****** ****** ****** ******
      ****** ****** ****** ****** ****** ****** ****** ****** ****** ******
  21  ****** ****** ****** ****** ****** ****** ****** ****** ****** ******
      ****** ****** ****** ****** ****** ****** ****** ****** ****** ******
      ****** ****** ****** ****** ****** ****** ****** ****** ****** ******
  22  ****** ****** ****** ****** ****** ****** ****** ****** ****** ******
      ****** ****** ****** ****** ****** ****** ****** ****** ****** ******
      ****** ****** ****** ****** ****** ****** ****** ****** ****** ******
  23  ****** ****** ****** ****** ****** ****** ****** ****** ****** ******
      ****** ****** ****** ****** ****** ****** ****** ****** ****** ******
      ****** ****** ****** ****** ****** ****** ****** ****** ****** ******
  24  ****** ****** ****** ****** ****** ****** ****** ****** ****** ******
      ****** ****** ****** ****** ****** ****** ****** ****** ****** ******
      ****** ****** ****** ****** ****** ****** ****** ****** ****** ******
  25  ****** ****** ****** ****** ****** ****** ****** ****** ****** ******
      ****** ****** ****** ****** ****** ****** ****** ****** ****** ******
      ****** ****** ****** ****** ****** ****** ****** ****** ****** ******

 HEAD WILL BE SAVED ON UNIT   51 AT END OF TIME STEP    1, STRESS PERIOD    3
1
  VOLUMETRIC BUDGET FOR ENTIRE MODEL AT END OF TIME STEP    1, STRESS PERIOD   3
  ------------------------------------------------------------------------------

     CUMULATIVE VOLUMES      L**3       RATES FOR THIS TIME STEP      L**3/T
     ------------------                 ------------------------

           IN:                                      IN:
           ---                                      ---
             STORAGE =    28544022.4638               STORAGE =       57036.6701
       CONSTANT HEAD =     5285682.5598         CONSTANT HEAD =       26886.5983
               WELLS =           0.0000                 WELLS =           0.0000
            RECHARGE =     6292800.0000              RECHARGE =           0.0000
      STREAM LEAKAGE =     1862972.1081        STREAM LEAKAGE =        8994.3682

            TOTAL IN =    41985477.1318              TOTAL IN =       92917.6366

          OUT:                                     OUT:
          ----                                     ----
             STORAGE =           0.0000               STORAGE =           0.0000
       CONSTANT HEAD =           0.0000         CONSTANT HEAD =           0.0000
               WELLS =    10687769.4967                 WELLS =       39006.4580
            RECHARGE =           0.0000              RECHARGE =           0.0000
      STREAM LEAKAGE =    31297709.5935        STREAM LEAKAGE =       53911.1863

           TOTAL OUT =    41985479.0902             TOTAL OUT =       92917.6444

            IN - OUT =          -1.9585              IN - OUT =      -7.7080E-03

 PERCENT DISCREPANCY =          -0.00     PERCENT DISCREPANCY =          -0.00






         TIME SUMMARY AT END OF TIME STEP    1 IN STRESS PERIOD    3
                    SECONDS     MINUTES      HOURS       DAYS        YEARS
                    -----------------------------------------------------------
   TIME STEP LENGTH 7.86240E+06 1.31040E+05  2184.0      91.000     0.24914    
 STRESS PERIOD TIME 7.86240E+06 1.31040E+05  2184.0      91.000     0.24914    
         TOTAL TIME 2.36736E+07 3.94560E+05  6576.0      274.00     0.75017    
1
1
                            STRESS PERIOD NO.    4, LENGTH =   91.00000    
                            -----------------------------------------------

                              NUMBER OF TIME STEPS =     1

                               MULTIPLIER FOR DELT =     1.500

                            INITIAL TIME STEP SIZE =   91.00000    

 WELL NO.  LAYER   ROW   COL   STRESS RATE         
 --------------------------------------------------
      1      1     12     22      -9012.    
      2      1     10     16      -9566.    
      3      1      6     24     -0.1330E+05
      4      1      6     17      -7129.    

      4 WELLS

                 RECHARGE =  1.000000E-03

 REUSING STREAM SEGMENT DATA FROM LAST STRESS PERIOD
 
 SOLVING FOR HEAD 


     6 CALLS TO PCG ROUTINE FOR TIME STEP   1 IN STRESS PERIOD    4
    23 TOTAL ITERATIONS

 OUTPUT CONTROL FOR STRESS PERIOD    4   TIME STEP    1
    SAVE BUDGET
    SAVE HEAD FOR ALL LAYERS
    PRINT HEAD FOR ALL LAYERS
 UBDSV2 SAVING "STREAMFLOW OUT  " ON UNIT  50 AT TIME STEP  1, STRESS PERIOD   4



 STREAM LISTING     PERIOD      4   STEP        1

 LAYER ROW COL. STREAM  RCH.  FLOW INTO     FLOW TO   FLOW OUT OF   OVRLND.     DIRECT     STREAM       STREAM     STREAM     STREAM   STREAMBED  STREAMBED
                SEG.NO.  NO.  STRM. RCH.    AQUIFER    STRM. RCH.    RUNOFF     PRECIP       ET          HEAD       DEPTH      WIDTH   CONDCTNC.   GRADIENT

   1   13    1     1     1    1.0000E+05 -2.4347E+03   1.0243E+05  0.000E+00  0.000E+00  0.000E+00  4.84071E+01  1.457E-01  2.000E+01  2.000E+04 -1.217E-01
   1   13    2     1     2    1.0243E+05 -3.4974E+03   1.0593E+05  0.000E+00  0.000E+00  0.000E+00  4.79323E+01  1.483E-01  2.000E+01  2.000E+04 -1.749E-01
   1   14    3     1     3    1.0593E+05 -6.2054E+02   1.0655E+05  0.000E+00  0.000E+00  0.000E+00  4.74568E+01  1.500E-01  2.000E+01  2.000E+04 -3.103E-02
   1   15    4     1     4    1.0655E+05 -5.9758E+02   1.0715E+05  0.000E+00  0.000E+00  0.000E+00  4.69801E+01  1.505E-01  2.000E+01  2.000E+04 -2.988E-02
   1   16    5     1     5    1.0715E+05 -2.1733E+03   1.0932E+05  0.000E+00  0.000E+00  0.000E+00  4.65040E+01  1.517E-01  2.000E+01  2.000E+04 -1.087E-01
   1   16    6     1     6    1.0932E+05 -1.3641E+03   1.1069E+05  0.000E+00  0.000E+00  0.000E+00  4.60282E+01  1.532E-01  2.000E+01  2.000E+04 -6.820E-02
   1   16    7     1     7    1.1069E+05 -1.3389E+03   1.1203E+05  0.000E+00  0.000E+00  0.000E+00  4.55520E+01  1.543E-01  2.000E+01  2.000E+04 -6.694E-02
   1   16    8     1     8    1.1203E+05 -1.3322E+03   1.1336E+05  0.000E+00  0.000E+00  0.000E+00  4.50759E+01  1.554E-01  2.000E+01  2.000E+04 -6.661E-02
   1   16    9     1     9    1.1336E+05 -1.3193E+03   1.1468E+05  0.000E+00  0.000E+00  0.000E+00  4.45997E+01  1.565E-01  2.000E+01  2.000E+04 -6.596E-02
   1   16   10     1    10    1.1468E+05 -1.3000E+03   1.1598E+05  0.000E+00  0.000E+00  0.000E+00  4.41235E+01  1.576E-01  2.000E+01  2.000E+04 -6.500E-02
   1   16   11     1    11    1.1598E+05 -1.3023E+03   1.1728E+05  0.000E+00  0.000E+00  0.000E+00  4.36473E+01  1.586E-01  2.000E+01  2.000E+04 -6.511E-02
   1   16   12     1    12    1.1728E+05 -2.2029E+03   1.1948E+05  0.000E+00  0.000E+00  0.000E+00  4.31714E+01  1.601E-01  2.000E+01  2.000E+04 -1.101E-01
   1   15   13     1    13    1.1948E+05 -1.9029E+03   1.2139E+05  0.000E+00  0.000E+00  0.000E+00  4.26958E+01  1.617E-01  2.000E+01  2.000E+04 -9.514E-02
   1   14   14     1    14    1.2139E+05 -1.8933E+03   1.2328E+05  0.000E+00  0.000E+00  0.000E+00  4.22201E+01  1.632E-01  2.000E+01  2.000E+04 -9.466E-02
   1   13   15     1    15    1.2328E+05 -1.6055E+03   1.2488E+05  0.000E+00  0.000E+00  0.000E+00  4.17442E+01  1.646E-01  2.000E+01  2.000E+04 -8.028E-02
   1   12   16     1    16    1.2488E+05 -2.7383E+02   1.2516E+05  0.000E+00  0.000E+00  0.000E+00  4.12677E+01  1.654E-01  2.000E+01  2.000E+04 -1.369E-02
   1   12   17     1    17    1.2516E+05 -3.2270E+02   1.2548E+05  0.000E+00  0.000E+00  0.000E+00  4.07906E+01  1.656E-01  2.000E+01  2.000E+04 -1.613E-02
   1   12   18     1    18    1.2548E+05 -5.5470E+02   1.2604E+05  0.000E+00  0.000E+00  0.000E+00  4.03137E+01  1.660E-01  2.000E+01  2.000E+04 -2.773E-02
   1   12   19     1    19    1.2604E+05 -2.4070E+02   1.2628E+05  0.000E+00  0.000E+00  0.000E+00  3.98367E+01  1.663E-01  2.000E+01  2.000E+04 -1.204E-02
   1   13   20     1    20    1.2628E+05 -1.5828E+02   1.2643E+05  0.000E+00  0.000E+00  0.000E+00  3.93596E+01  1.664E-01  2.000E+01  2.000E+04 -7.914E-03
   1   14   21     1    21    1.2643E+05 -1.1107E+03   1.2755E+05  0.000E+00  0.000E+00  0.000E+00  3.88829E+01  1.670E-01  2.000E+01  2.000E+04 -5.553E-02
   1   14   22     1    22    1.2755E+05  5.4198E+03   1.2213E+05  0.000E+00  0.000E+00  0.000E+00  3.84039E+01  1.652E-01  2.000E+01  2.000E+04  2.710E-01
   1    9   30     2     1    5.0000E+04 -1.2290E+02   5.0123E+04  0.000E+00  0.000E+00  0.000E+00  4.02410E+01  1.160E-01  2.000E+01  2.000E+04 -6.145E-03
   1    9   29     2     2    5.0123E+04 -3.3307E+02   5.0456E+04  0.000E+00  0.000E+00  0.000E+00  3.99913E+01  1.163E-01  2.000E+01  2.000E+04 -1.665E-02
   1    9   28     2     3    5.0456E+04 -3.6390E+02   5.0820E+04  0.000E+00  0.000E+00  0.000E+00  3.97418E+01  1.168E-01  2.000E+01  2.000E+04 -1.820E-02
   1    9   27     2     4    5.0820E+04 -4.0080E+02   5.1221E+04  0.000E+00  0.000E+00  0.000E+00  3.94923E+01  1.173E-01  2.000E+01  2.000E+04 -2.004E-02
   1   10   26     2     5    5.1221E+04  5.2724E+01   5.1168E+04  0.000E+00  0.000E+00  0.000E+00  3.92425E+01  1.175E-01  2.000E+01  2.000E+04  2.636E-03
   1   11   25     2     6    5.1168E+04  2.3747E+02   5.0930E+04  0.000E+00  0.000E+00  0.000E+00  3.89923E+01  1.173E-01  2.000E+01  2.000E+04  1.187E-02
   1   12   24     2     7    5.0930E+04  1.2746E+03   4.9656E+04  0.000E+00  0.000E+00  0.000E+00  3.87413E+01  1.163E-01  2.000E+01  2.000E+04  6.373E-02
   1   13   23     2     8    4.9656E+04  4.1056E+02   4.9245E+04  0.000E+00  0.000E+00  0.000E+00  3.84901E+01  1.151E-01  2.000E+01  2.000E+04  2.053E-02
   1   14   22     2     9    4.9245E+04  2.1088E+03   4.7137E+04  0.000E+00  0.000E+00  0.000E+00  3.82383E+01  1.133E-01  2.000E+01  2.000E+04  1.054E-01
   1   14   22     3     1    1.6926E+05 -8.2070E+03   1.7747E+05  0.000E+00  0.000E+00  0.000E+00  3.77225E+01  1.670E-01  2.000E+01  2.000E+04 -4.103E-01
   1   15   23     3     2    1.7747E+05 -6.4800E+02   1.7812E+05  0.000E+00  0.000E+00  0.000E+00  3.68362E+01  1.695E-01  2.000E+01  2.000E+04 -3.240E-02
   1   15   24     3     3    1.7812E+05 -3.4571E+02   1.7846E+05  0.000E+00  0.000E+00  0.000E+00  3.59476E+01  1.698E-01  2.000E+01  2.000E+04 -1.729E-02
   1   15   25     3     4    1.7846E+05 -3.3410E+02   1.7880E+05  0.000E+00  0.000E+00  0.000E+00  3.50589E+01  1.700E-01  2.000E+01  2.000E+04 -1.670E-02
   1   15   26     3     5    1.7880E+05 -3.7901E+02   1.7918E+05  0.000E+00  0.000E+00  0.000E+00  3.41702E+01  1.702E-01  2.000E+01  2.000E+04 -1.895E-02
   1   16   27     3     6    1.7918E+05 -4.3674E+02   1.7961E+05  0.000E+00  0.000E+00  0.000E+00  3.32816E+01  1.704E-01  2.000E+01  2.000E+04 -2.184E-02
   1   17   28     3     7    1.7961E+05 -1.7942E+03   1.8141E+05  0.000E+00  0.000E+00  0.000E+00  3.23933E+01  1.711E-01  2.000E+01  2.000E+04 -8.971E-02
   1   18   29     3     8    1.8141E+05 -3.3539E+03   1.8476E+05  0.000E+00  0.000E+00  0.000E+00  3.15059E+01  1.725E-01  2.000E+01  2.000E+04 -1.677E-01
   1   18   30     3     9    1.8476E+05 -3.4588E+03   1.8822E+05  0.000E+00  0.000E+00  0.000E+00  3.06189E+01  1.745E-01  2.000E+01  2.000E+04 -1.729E-01



1
              HEAD IN LAYER   1 AT END OF TIME STEP   1 IN STRESS PERIOD    4
  ---------------------------------------------------------------------------

          1      2      3      4      5      6      7      8      9     10
         11     12     13     14     15     16     17     18     19     20
         21     22     23     24     25     26     27     28     29     30
 .........................................................................
   1  ****** ****** ****** ****** ****** ****** ****** ****** ****** ******
      ****** ****** ****** ****** ****** ****** ****** ****** ****** ******
      ****** ****** ****** ****** ****** ****** ****** ****** ****** ******
   2  ****** ****** ****** ****** ****** ****** ****** ****** ****** ******
      ****** ****** ****** ****** ****** ****** ****** ****** ****** ******
      ****** ****** ****** ****** ****** ****** ****** ****** ****** ******
   3  ****** ****** ****** ****** ****** ****** ****** ****** ****** ******
      ****** ****** ****** ****** ****** ****** ****** ****** ****** ******
      ****** ****** ****** ****** ****** ****** ****** ****** ****** ******
   4  ****** ****** ****** ****** ****** ****** ****** ****** ****** ******
      ****** ****** ****** ****** ****** ****** ****** ****** ****** ******
      ****** ****** ****** ****** ****** ****** ****** ****** ****** ******
   5  ****** ****** ****** ****** ****** ****** ****** ****** ****** ******
      ****** ****** ****** ****** ****** ****** ****** ****** ****** ******
      ****** ****** ****** ****** ****** ****** ****** ****** ****** ******
   6  ****** ****** ****** ****** ****** ****** ****** ****** ****** ******
      ****** ****** ****** ****** ****** ****** ****** ****** ****** ******
      ****** ****** ****** ****** ****** ****** ****** ****** ****** ******
   7  ****** ****** ****** ****** ****** ****** ****** ****** ****** ******
      ****** ****** ****** ****** ****** ****** ****** ****** ****** ******
      ****** ****** ****** ****** ****** ****** ****** ****** ****** ******
   8  ****** ****** ****** ****** ****** ****** ****** ****** ****** ******
      ****** ****** ****** ****** ****** ****** ****** ****** ****** ******
      ****** ****** ****** ****** ****** ****** ****** ****** ****** ******
   9  ****** ****** ****** ****** ****** ****** ****** ****** ****** ******
      ****** ****** ****** ****** ****** ****** ****** ****** ****** ******
      ****** ****** ****** ****** ****** ****** ****** ****** ****** ******
  10  ****** ****** ****** ****** ****** ****** ****** ****** ****** ******
      ****** ****** ****** ****** ****** ****** ****** ****** ****** ******
      ****** ****** ****** ****** ****** ****** ****** ****** ****** ******
  11  ****** ****** ****** ****** ****** ****** ****** ****** ****** ******
      ****** ****** ****** ****** ****** ****** ****** ****** ****** ******
      ****** ****** ****** ****** ****** ****** ****** ****** ****** ******
  12  ****** ****** ****** ****** ****** ****** ****** ****** ****** ******
      ****** ****** ****** ****** ****** ****** ****** ****** ****** ******
      ****** ****** ****** ****** ****** ****** ****** ****** ****** ******
  13  ****** ****** ****** ****** ****** ****** ****** ****** ****** ******
      ****** ****** ****** ****** ****** ****** ****** ****** ****** ******
      ****** ****** ****** ****** ****** ****** ****** ****** ****** ******
  14  ****** ****** ****** ****** ****** ****** ****** ****** ****** ******
      ****** ****** ****** ****** ****** ****** ****** ****** ****** ******
      ****** ****** ****** ****** ****** ****** ****** ****** ****** ******
  15  ****** ****** ****** ****** ****** ****** ****** ****** ****** ******
      ****** ****** ****** ****** ****** ****** ****** ****** ****** ******
      ****** ****** ****** ****** ****** ****** ****** ****** ****** ******
  16  ****** ****** ****** ****** ****** ****** ****** ****** ****** ******
      ****** ****** ****** ****** ****** ****** ****** ****** ****** ******
      ****** ****** ****** ****** ****** ****** ****** ****** ****** ******
  17  ****** ****** ****** ****** ****** ****** ****** ****** ****** ******
      ****** ****** ****** ****** ****** ****** ****** ****** ****** ******
      ****** ****** ****** ****** ****** ****** ****** ****** ****** ******
  18  ****** ****** ****** ****** ****** ****** ****** ****** ****** ******
      ****** ****** ****** ****** ****** ****** ****** ****** ****** ******
      ****** ****** ****** ****** ****** ****** ****** ****** ****** ******
  19  ****** ****** ****** ****** ****** ****** ****** ****** ****** ******
      ****** ****** ****** ****** ****** ****** ****** ****** ****** ******
      ****** ****** ****** ****** ****** ****** ****** ****** ****** ******
  20  ****** ****** ****** ****** ****** ****** ****** ****** ****** ******
      ****** ****** ****** ****** ****** ****** ****** ****** ****** ******
      ****** ****** ****** ****** ****** ****** ****** ****** ****** ******
  21  ****** ****** ****** ****** ****** ****** ****** ****** ****** ******
      ****** ****** ****** ****** ****** ****** ****** ****** ****** ******
      ****** ****** ****** ****** ****** ****** ****** ****** ****** ******
  22  ****** ****** ****** ****** ****** ****** ****** ****** ****** ******
      ****** ****** ****** ****** ****** ****** ****** ****** ****** ******
      ****** ****** ****** ****** ****** ****** ****** ****** ****** ******
  23  ****** ****** ****** ****** ****** ****** ****** ****** ****** ******
      ****** ****** ****** ****** ****** ****** ****** ****** ****** ******
      ****** ****** ****** ****** ****** ****** ****** ****** ****** ******
  24  ****** ****** ****** ****** ****** ****** ****** ****** ****** ******
      ****** ****** ****** ****** ****** ****** ****** ****** ****** ******
      ****** ****** ****** ****** ****** ****** ****** ****** ****** ******
  25  ****** ****** ****** ****** ****** ****** ****** ****** ****** ******
      ****** ****** ****** ****** ****** ****** ****** ****** ****** ******
      ****** ****** ****** ****** ****** ****** ****** ****** ****** ******

 HEAD WILL BE SAVED ON UNIT   51 AT END OF TIME STEP    1, STRESS PERIOD    4
1
  VOLUMETRIC BUDGET FOR ENTIRE MODEL AT END OF TIME STEP    1, STRESS PERIOD   4
  ------------------------------------------------------------------------------

     CUMULATIVE VOLUMES      L**3       RATES FOR THIS TIME STEP      L**3/T
     ------------------                 ------------------------

           IN:                                      IN:
           ---                                      ---
             STORAGE =    30358275.1109               STORAGE =       19936.8423
       CONSTANT HEAD =     7988500.9064         CONSTANT HEAD =       29701.3005
               WELLS =           0.0000                 WELLS =           0.0000
            RECHARGE =     8804400.0000              RECHARGE =       27600.0000
      STREAM LEAKAGE =     2727832.4547        STREAM LEAKAGE =        9503.9599

            TOTAL IN =    49879008.4720              TOTAL IN =       86742.1026

          OUT:                                     OUT:
          ----                                     ----
             STORAGE =        1081.8470               STORAGE =          11.8884
       CONSTANT HEAD =           0.0000         CONSTANT HEAD =           0.0000
               WELLS =    14237357.1762                 WELLS =       39006.4580
            RECHARGE =           0.0000              RECHARGE =           0.0000
      STREAM LEAKAGE =    35640571.4846        STREAM LEAKAGE =       47723.7570

           TOTAL OUT =    49879010.5078             TOTAL OUT =       86742.1035

            IN - OUT =          -2.0358              IN - OUT =      -8.4976E-04

 PERCENT DISCREPANCY =          -0.00     PERCENT DISCREPANCY =          -0.00






         TIME SUMMARY AT END OF TIME STEP    1 IN STRESS PERIOD    4
                    SECONDS     MINUTES      HOURS       DAYS        YEARS
                    -----------------------------------------------------------
   TIME STEP LENGTH 7.86240E+06 1.31040E+05  2184.0      91.000     0.24914    
 STRESS PERIOD TIME 7.86240E+06 1.31040E+05  2184.0      91.000     0.24914    
         TOTAL TIME 3.15360E+07 5.25600E+05  8760.0      365.00     0.99932    
1
1
                            STRESS PERIOD NO.    5, LENGTH =   92.00000    
                            -----------------------------------------------

                              NUMBER OF TIME STEPS =     1

                               MULTIPLIER FOR DELT =     1.500

                            INITIAL TIME STEP SIZE =   92.00000    

 WELL NO.  LAYER   ROW   COL   STRESS RATE         
 --------------------------------------------------
      1      1     12     22      -9012.    
      2      1     10     16      -9566.    
      3      1      6     24     -0.1330E+05
      4      1      6     17      -7129.    

      4 WELLS

                 RECHARGE =  5.000000E-04

 REUSING STREAM SEGMENT DATA FROM LAST STRESS PERIOD
 
 SOLVING FOR HEAD 


     7 CALLS TO PCG ROUTINE FOR TIME STEP   1 IN STRESS PERIOD    5
    26 TOTAL ITERATIONS

 OUTPUT CONTROL FOR STRESS PERIOD    5   TIME STEP    1
    SAVE BUDGET
    SAVE HEAD FOR ALL LAYERS
    PRINT HEAD FOR ALL LAYERS
 UBDSV2 SAVING "STREAMFLOW OUT  " ON UNIT  50 AT TIME STEP  1, STRESS PERIOD   5



 STREAM LISTING     PERIOD      5   STEP        1

 LAYER ROW COL. STREAM  RCH.  FLOW INTO     FLOW TO   FLOW OUT OF   OVRLND.     DIRECT     STREAM       STREAM     STREAM     STREAM   STREAMBED  STREAMBED
                SEG.NO.  NO.  STRM. RCH.    AQUIFER    STRM. RCH.    RUNOFF     PRECIP       ET          HEAD       DEPTH      WIDTH   CONDCTNC.   GRADIENT

   1   13    1     1     1    1.0000E+05 -1.9978E+03   1.0200E+05  0.000E+00  0.000E+00  0.000E+00  4.84069E+01  1.455E-01  2.000E+01  2.000E+04 -9.989E-02
   1   13    2     1     2    1.0200E+05 -3.0037E+03   1.0500E+05  0.000E+00  0.000E+00  0.000E+00  4.79318E+01  1.477E-01  2.000E+01  2.000E+04 -1.502E-01
   1   14    3     1     3    1.0500E+05 -4.9599E+02   1.0550E+05  0.000E+00  0.000E+00  0.000E+00  4.74560E+01  1.492E-01  2.000E+01  2.000E+04 -2.480E-02
   1   15    4     1     4    1.0550E+05 -4.6744E+02   1.0596E+05  0.000E+00  0.000E+00  0.000E+00  4.69791E+01  1.496E-01  2.000E+01  2.000E+04 -2.337E-02
   1   16    5     1     5    1.0596E+05 -1.7464E+03   1.0771E+05  0.000E+00  0.000E+00  0.000E+00  4.65028E+01  1.505E-01  2.000E+01  2.000E+04 -8.732E-02
   1   16    6     1     6    1.0771E+05 -1.1131E+03   1.0882E+05  0.000E+00  0.000E+00  0.000E+00  4.60267E+01  1.517E-01  2.000E+01  2.000E+04 -5.566E-02
   1   16    7     1     7    1.0882E+05 -1.0980E+03   1.0992E+05  0.000E+00  0.000E+00  0.000E+00  4.55504E+01  1.526E-01  2.000E+01  2.000E+04 -5.490E-02
   1   16    8     1     8    1.0992E+05 -1.0951E+03   1.1102E+05  0.000E+00  0.000E+00  0.000E+00  4.50740E+01  1.536E-01  2.000E+01  2.000E+04 -5.475E-02
   1   16    9     1     9    1.1102E+05 -1.0856E+03   1.1210E+05  0.000E+00  0.000E+00  0.000E+00  4.45976E+01  1.545E-01  2.000E+01  2.000E+04 -5.428E-02
   1   16   10     1    10    1.1210E+05 -1.0706E+03   1.1317E+05  0.000E+00  0.000E+00  0.000E+00  4.41213E+01  1.554E-01  2.000E+01  2.000E+04 -5.353E-02
   1   16   11     1    11    1.1317E+05 -1.0740E+03   1.1425E+05  0.000E+00  0.000E+00  0.000E+00  4.36449E+01  1.562E-01  2.000E+01  2.000E+04 -5.370E-02
   1   16   12     1    12    1.1425E+05 -1.7925E+03   1.1604E+05  0.000E+00  0.000E+00  0.000E+00  4.31688E+01  1.574E-01  2.000E+01  2.000E+04 -8.963E-02
   1   15   13     1    13    1.1604E+05 -1.4560E+03   1.1750E+05  0.000E+00  0.000E+00  0.000E+00  4.26928E+01  1.588E-01  2.000E+01  2.000E+04 -7.280E-02
   1   14   14     1    14    1.1750E+05 -1.4069E+03   1.1890E+05  0.000E+00  0.000E+00  0.000E+00  4.22167E+01  1.599E-01  2.000E+01  2.000E+04 -7.035E-02
   1   13   15     1    15    1.1890E+05 -1.0891E+03   1.1999E+05  0.000E+00  0.000E+00  0.000E+00  4.17405E+01  1.609E-01  2.000E+01  2.000E+04 -5.445E-02
   1   12   16     1    16    1.1999E+05  3.1449E+02   1.1968E+05  0.000E+00  0.000E+00  0.000E+00  4.12635E+01  1.612E-01  2.000E+01  2.000E+04  1.572E-02
   1   12   17     1    17    1.1968E+05  6.5597E+01   1.1961E+05  0.000E+00  0.000E+00  0.000E+00  4.07861E+01  1.611E-01  2.000E+01  2.000E+04  3.280E-03
   1   12   18     1    18    1.1961E+05 -1.8572E+02   1.1980E+05  0.000E+00  0.000E+00  0.000E+00  4.03089E+01  1.611E-01  2.000E+01  2.000E+04 -9.286E-03
   1   12   19     1    19    1.1980E+05  2.1422E+02   1.1958E+05  0.000E+00  0.000E+00  0.000E+00  3.98316E+01  1.611E-01  2.000E+01  2.000E+04  1.071E-02
   1   13   20     1    20    1.1958E+05  2.1333E+02   1.1937E+05  0.000E+00  0.000E+00  0.000E+00  3.93541E+01  1.610E-01  2.000E+01  2.000E+04  1.067E-02
   1   14   21     1    21    1.1937E+05 -7.3661E+02   1.2011E+05  0.000E+00  0.000E+00  0.000E+00  3.88771E+01  1.612E-01  2.000E+01  2.000E+04 -3.683E-02
   1   14   22     1    22    1.2011E+05  5.5018E+03   1.1461E+05  0.000E+00  0.000E+00  0.000E+00  3.83979E+01  1.592E-01  2.000E+01  2.000E+04  2.751E-01
   1    9   30     2     1    5.0000E+04  1.3331E+02   4.9867E+04  0.000E+00  0.000E+00  0.000E+00  4.02408E+01  1.158E-01  2.000E+01  2.000E+04  6.665E-03
   1    9   29     2     2    4.9867E+04 -7.2057E+01   4.9939E+04  0.000E+00  0.000E+00  0.000E+00  3.99907E+01  1.157E-01  2.000E+01  2.000E+04 -3.603E-03
   1    9   28     2     3    4.9939E+04 -8.7538E+01   5.0026E+04  0.000E+00  0.000E+00  0.000E+00  3.97408E+01  1.158E-01  2.000E+01  2.000E+04 -4.377E-03
   1    9   27     2     4    5.0026E+04  4.3971E+01   4.9982E+04  0.000E+00  0.000E+00  0.000E+00  3.94909E+01  1.159E-01  2.000E+01  2.000E+04  2.199E-03
   1   10   26     2     5    4.9982E+04  4.3384E+02   4.9548E+04  0.000E+00  0.000E+00  0.000E+00  3.92405E+01  1.155E-01  2.000E+01  2.000E+04  2.169E-02
   1   11   25     2     6    4.9548E+04  5.8492E+02   4.8964E+04  0.000E+00  0.000E+00  0.000E+00  3.89898E+01  1.148E-01  2.000E+01  2.000E+04  2.925E-02
   1   12   24     2     7    4.8964E+04  1.5923E+03   4.7371E+04  0.000E+00  0.000E+00  0.000E+00  3.87383E+01  1.133E-01  2.000E+01  2.000E+04  7.962E-02
   1   13   23     2     8    4.7371E+04  4.8397E+02   4.6887E+04  0.000E+00  0.000E+00  0.000E+00  3.84868E+01  1.118E-01  2.000E+01  2.000E+04  2.420E-02
   1   14   22     2     9    4.6887E+04  2.2419E+03   4.4645E+04  0.000E+00  0.000E+00  0.000E+00  3.82349E+01  1.099E-01  2.000E+01  2.000E+04  1.121E-01
   1   14   22     3     1    1.5925E+05 -8.1224E+03   1.6737E+05  0.000E+00  0.000E+00  0.000E+00  3.77167E+01  1.611E-01  2.000E+01  2.000E+04 -4.061E-01
   1   15   23     3     2    1.6737E+05 -5.5207E+02   1.6793E+05  0.000E+00  0.000E+00  0.000E+00  3.68303E+01  1.637E-01  2.000E+01  2.000E+04 -2.760E-02
   1   15   24     3     3    1.6793E+05 -2.7480E+02   1.6820E+05  0.000E+00  0.000E+00  0.000E+00  3.59417E+01  1.639E-01  2.000E+01  2.000E+04 -1.374E-02
   1   15   25     3     4    1.6820E+05 -2.6359E+02   1.6846E+05  0.000E+00  0.000E+00  0.000E+00  3.50529E+01  1.641E-01  2.000E+01  2.000E+04 -1.318E-02
   1   15   26     3     5    1.6846E+05 -3.0735E+02   1.6877E+05  0.000E+00  0.000E+00  0.000E+00  3.41642E+01  1.642E-01  2.000E+01  2.000E+04 -1.537E-02
   1   16   27     3     6    1.6877E+05 -3.4710E+02   1.6912E+05  0.000E+00  0.000E+00  0.000E+00  3.32755E+01  1.644E-01  2.000E+01  2.000E+04 -1.735E-02
   1   17   28     3     7    1.6912E+05 -1.5295E+03   1.7065E+05  0.000E+00  0.000E+00  0.000E+00  3.23872E+01  1.650E-01  2.000E+01  2.000E+04 -7.647E-02
   1   18   29     3     8    1.7065E+05 -2.9871E+03   1.7363E+05  0.000E+00  0.000E+00  0.000E+00  3.14996E+01  1.663E-01  2.000E+01  2.000E+04 -1.494E-01
   1   18   30     3     9    1.7363E+05 -3.2056E+03   1.7684E+05  0.000E+00  0.000E+00  0.000E+00  3.06125E+01  1.681E-01  2.000E+01  2.000E+04 -1.603E-01



1
              HEAD IN LAYER   1 AT END OF TIME STEP   1 IN STRESS PERIOD    5
  ---------------------------------------------------------------------------

          1      2      3      4      5      6      7      8      9     10
         11     12     13     14     15     16     17     18     19     20
         21     22     23     24     25     26     27     28     29     30
 .........................................................................
   1  ****** ****** ****** ****** ****** ****** ****** ****** ****** ******
      ****** ****** ****** ****** ****** ****** ****** ****** ****** ******
      ****** ****** ****** ****** ****** ****** ****** ****** ****** ******
   2  ****** ****** ****** ****** ****** ****** ****** ****** ****** ******
      ****** ****** ****** ****** ****** ****** ****** ****** ****** ******
      ****** ****** ****** ****** ****** ****** ****** ****** ****** ******
   3  ****** ****** ****** ****** ****** ****** ****** ****** ****** ******
      ****** ****** ****** ****** ****** ****** ****** ****** ****** ******
      ****** ****** ****** ****** ****** ****** ****** ****** ****** ******
   4  ****** ****** ****** ****** ****** ****** ****** ****** ****** ******
      ****** ****** ****** ****** ****** ****** ****** ****** ****** ******
      ****** ****** ****** ****** ****** ****** ****** ****** ****** ******
   5  ****** ****** ****** ****** ****** ****** ****** ****** ****** ******
      ****** ****** ****** ****** ****** ****** ****** ****** ****** ******
      ****** ****** ****** ****** ****** ****** ****** ****** ****** ******
   6  ****** ****** ****** ****** ****** ****** ****** ****** ****** ******
      ****** ****** ****** ****** ****** ****** ****** ****** ****** ******
      ****** ****** ****** ****** ****** ****** ****** ****** ****** ******
   7  ****** ****** ****** ****** ****** ****** ****** ****** ****** ******
      ****** ****** ****** ****** ****** ****** ****** ****** ****** ******
      ****** ****** ****** ****** ****** ****** ****** ****** ****** ******
   8  ****** ****** ****** ****** ****** ****** ****** ****** ****** ******
      ****** ****** ****** ****** ****** ****** ****** ****** ****** ******
      ****** ****** ****** ****** ****** ****** ****** ****** ****** ******
   9  ****** ****** ****** ****** ****** ****** ****** ****** ****** ******
      ****** ****** ****** ****** ****** ****** ****** ****** ****** ******
      ****** ****** ****** ****** ****** ****** ****** ****** ****** ******
  10  ****** ****** ****** ****** ****** ****** ****** ****** ****** ******
      ****** ****** ****** ****** ****** ****** ****** ****** ****** ******
      ****** ****** ****** ****** ****** ****** ****** ****** ****** ******
  11  ****** ****** ****** ****** ****** ****** ****** ****** ****** ******
      ****** ****** ****** ****** ****** ****** ****** ****** ****** ******
      ****** ****** ****** ****** ****** ****** ****** ****** ****** ******
  12  ****** ****** ****** ****** ****** ****** ****** ****** ****** ******
      ****** ****** ****** ****** ****** ****** ****** ****** ****** ******
      ****** ****** ****** ****** ****** ****** ****** ****** ****** ******
  13  ****** ****** ****** ****** ****** ****** ****** ****** ****** ******
      ****** ****** ****** ****** ****** ****** ****** ****** ****** ******
      ****** ****** ****** ****** ****** ****** ****** ****** ****** ******
  14  ****** ****** ****** ****** ****** ****** ****** ****** ****** ******
      ****** ****** ****** ****** ****** ****** ****** ****** ****** ******
      ****** ****** ****** ****** ****** ****** ****** ****** ****** ******
  15  ****** ****** ****** ****** ****** ****** ****** ****** ****** ******
      ****** ****** ****** ****** ****** ****** ****** ****** ****** ******
      ****** ****** ****** ****** ****** ****** ****** ****** ****** ******
  16  ****** ****** ****** ****** ****** ****** ****** ****** ****** ******
      ****** ****** ****** ****** ****** ****** ****** ****** ****** ******
      ****** ****** ****** ****** ****** ****** ****** ****** ****** ******
  17  ****** ****** ****** ****** ****** ****** ****** ****** ****** ******
      ****** ****** ****** ****** ****** ****** ****** ****** ****** ******
      ****** ****** ****** ****** ****** ****** ****** ****** ****** ******
  18  ****** ****** ****** ****** ****** ****** ****** ****** ****** ******
      ****** ****** ****** ****** ****** ****** ****** ****** ****** ******
      ****** ****** ****** ****** ****** ****** ****** ****** ****** ******
  19  ****** ****** ****** ****** ****** ****** ****** ****** ****** ******
      ****** ****** ****** ****** ****** ****** ****** ****** ****** ******
      ****** ****** ****** ****** ****** ****** ****** ****** ****** ******
  20  ****** ****** ****** ****** ****** ****** ****** ****** ****** ******
      ****** ****** ****** ****** ****** ****** ****** ****** ****** ******
      ****** ****** ****** ****** ****** ****** ****** ****** ****** ******
  21  ****** ****** ****** ****** ****** ****** ****** ****** ****** ******
      ****** ****** ****** ****** ****** ****** ****** ****** ****** ******
      ****** ****** ****** ****** ****** ****** ****** ****** ****** ******
  22  ****** ****** ****** ****** ****** ****** ****** ****** ****** ******
      ****** ****** ****** ****** ****** ****** ****** ****** ****** ******
      ****** ****** ****** ****** ****** ****** ****** ****** ****** ******
  23  ****** ****** ****** ****** ****** ****** ****** ****** ****** ******
      ****** ****** ****** ****** ****** ****** ****** ****** ****** ******
      ****** ****** ****** ****** ****** ****** ****** ****** ****** ******
  24  ****** ****** ****** ****** ****** ****** ****** ****** ****** ******
      ****** ****** ****** ****** ****** ****** ****** ****** ****** ******
      ****** ****** ****** ****** ****** ****** ****** ****** ****** ******
  25  ****** ****** ****** ****** ****** ****** ****** ****** ****** ******
      ****** ****** ****** ****** ****** ****** ****** ****** ****** ******
      ****** ****** ****** ****** ****** ****** ****** ****** ****** ******

 HEAD WILL BE SAVED ON UNIT   51 AT END OF TIME STEP    1, STRESS PERIOD    5
1
  VOLUMETRIC BUDGET FOR ENTIRE MODEL AT END OF TIME STEP    1, STRESS PERIOD   5
  ------------------------------------------------------------------------------

     CUMULATIVE VOLUMES      L**3       RATES FOR THIS TIME STEP      L**3/T
     ------------------                 ------------------------

           IN:                                      IN:
           ---                                      ---
             STORAGE =    32132350.7400               STORAGE =       19283.4308
       CONSTANT HEAD =    11002705.0314         CONSTANT HEAD =       32763.0883
               WELLS =           0.0000                 WELLS =           0.0000
            RECHARGE =    10074000.0000              RECHARGE =       13800.0000
      STREAM LEAKAGE =     3815607.5248        STREAM LEAKAGE =       11823.6421

            TOTAL IN =    57024663.2963              TOTAL IN =       77670.1611

          OUT:                                     OUT:
          ----                                     ----
             STORAGE =        1081.8470               STORAGE =           0.0000
       CONSTANT HEAD =           0.0000         CONSTANT HEAD =           0.0000
               WELLS =    17825951.3138                 WELLS =       39006.4580
            RECHARGE =           0.0000              RECHARGE =           0.0000
      STREAM LEAKAGE =    39197632.4716        STREAM LEAKAGE =       38663.7064

           TOTAL OUT =    57024665.6324             TOTAL OUT =       77670.1644

            IN - OUT =          -2.3361              IN - OUT =      -3.2641E-03

 PERCENT DISCREPANCY =          -0.00     PERCENT DISCREPANCY =          -0.00






         TIME SUMMARY AT END OF TIME STEP    1 IN STRESS PERIOD    5
                    SECONDS     MINUTES      HOURS       DAYS        YEARS
                    -----------------------------------------------------------
   TIME STEP LENGTH 7.94880E+06 1.32480E+05  2208.0      92.000     0.25188    
 STRESS PERIOD TIME 7.94880E+06 1.32480E+05  2208.0      92.000     0.25188    
         TOTAL TIME 3.94848E+07 6.58080E+05  10968.      457.00      1.2512    
1
1
                            STRESS PERIOD NO.    6, LENGTH =   91.00000    
                            -----------------------------------------------

                              NUMBER OF TIME STEPS =     1

                               MULTIPLIER FOR DELT =     1.500

                            INITIAL TIME STEP SIZE =   91.00000    

 WELL NO.  LAYER   ROW   COL   STRESS RATE         
 --------------------------------------------------
      1      1     12     22      -9012.    
      2      1     10     16      -9566.    
      3      1      6     24     -0.1330E+05
      4      1      6     17      -7129.    

      4 WELLS

                 RECHARGE =  2.000000E-03

 REUSING STREAM SEGMENT DATA FROM LAST STRESS PERIOD
 
 SOLVING FOR HEAD 


     7 CALLS TO PCG ROUTINE FOR TIME STEP   1 IN STRESS PERIOD    6
    26 TOTAL ITERATIONS

 OUTPUT CONTROL FOR STRESS PERIOD    6   TIME STEP    1
    SAVE BUDGET
    SAVE HEAD FOR ALL LAYERS
    PRINT HEAD FOR ALL LAYERS
 UBDSV2 SAVING "STREAMFLOW OUT  " ON UNIT  50 AT TIME STEP  1, STRESS PERIOD   6



 STREAM LISTING     PERIOD      6   STEP        1

 LAYER ROW COL. STREAM  RCH.  FLOW INTO     FLOW TO   FLOW OUT OF   OVRLND.     DIRECT     STREAM       STREAM     STREAM     STREAM   STREAMBED  STREAMBED
                SEG.NO.  NO.  STRM. RCH.    AQUIFER    STRM. RCH.    RUNOFF     PRECIP       ET          HEAD       DEPTH      WIDTH   CONDCTNC.   GRADIENT

   1   13    1     1     1    1.0000E+05 -2.2951E+03   1.0230E+05  0.000E+00  0.000E+00  0.000E+00  4.84070E+01  1.456E-01  2.000E+01  2.000E+04 -1.148E-01
   1   13    2     1     2    1.0230E+05 -3.3284E+03   1.0562E+05  0.000E+00  0.000E+00  0.000E+00  4.79322E+01  1.481E-01  2.000E+01  2.000E+04 -1.664E-01
   1   14    3     1     3    1.0562E+05 -6.4874E+02   1.0627E+05  0.000E+00  0.000E+00  0.000E+00  4.74566E+01  1.498E-01  2.000E+01  2.000E+04 -3.244E-02
   1   15    4     1     4    1.0627E+05 -6.3239E+02   1.0690E+05  0.000E+00  0.000E+00  0.000E+00  4.69798E+01  1.503E-01  2.000E+01  2.000E+04 -3.162E-02
   1   16    5     1     5    1.0690E+05 -2.2451E+03   1.0915E+05  0.000E+00  0.000E+00  0.000E+00  4.65038E+01  1.515E-01  2.000E+01  2.000E+04 -1.123E-01
   1   16    6     1     6    1.0915E+05 -1.4047E+03   1.1055E+05  0.000E+00  0.000E+00  0.000E+00  4.60280E+01  1.530E-01  2.000E+01  2.000E+04 -7.023E-02
   1   16    7     1     7    1.1055E+05 -1.3740E+03   1.1193E+05  0.000E+00  0.000E+00  0.000E+00  4.55519E+01  1.542E-01  2.000E+01  2.000E+04 -6.870E-02
   1   16    8     1     8    1.1193E+05 -1.3665E+03   1.1329E+05  0.000E+00  0.000E+00  0.000E+00  4.50758E+01  1.553E-01  2.000E+01  2.000E+04 -6.833E-02
   1   16    9     1     9    1.1329E+05 -1.3569E+03   1.1465E+05  0.000E+00  0.000E+00  0.000E+00  4.45996E+01  1.565E-01  2.000E+01  2.000E+04 -6.784E-02
   1   16   10     1    10    1.1465E+05 -1.3442E+03   1.1600E+05  0.000E+00  0.000E+00  0.000E+00  4.41235E+01  1.576E-01  2.000E+01  2.000E+04 -6.721E-02
   1   16   11     1    11    1.1600E+05 -1.3519E+03   1.1735E+05  0.000E+00  0.000E+00  0.000E+00  4.36473E+01  1.587E-01  2.000E+01  2.000E+04 -6.760E-02
   1   16   12     1    12    1.1735E+05 -2.2406E+03   1.1959E+05  0.000E+00  0.000E+00  0.000E+00  4.31715E+01  1.601E-01  2.000E+01  2.000E+04 -1.120E-01
   1   15   13     1    13    1.1959E+05 -1.9050E+03   1.2149E+05  0.000E+00  0.000E+00  0.000E+00  4.26959E+01  1.618E-01  2.000E+01  2.000E+04 -9.525E-02
   1   14   14     1    14    1.2149E+05 -1.8440E+03   1.2334E+05  0.000E+00  0.000E+00  0.000E+00  4.22201E+01  1.633E-01  2.000E+01  2.000E+04 -9.220E-02
   1   13   15     1    15    1.2334E+05 -1.4995E+03   1.2484E+05  0.000E+00  0.000E+00  0.000E+00  4.17442E+01  1.646E-01  2.000E+01  2.000E+04 -7.497E-02
   1   12   16     1    16    1.2484E+05 -3.5538E+01   1.2487E+05  0.000E+00  0.000E+00  0.000E+00  4.12675E+01  1.653E-01  2.000E+01  2.000E+04 -1.777E-03
   1   12   17     1    17    1.2487E+05 -2.2938E+02   1.2510E+05  0.000E+00  0.000E+00  0.000E+00  4.07904E+01  1.654E-01  2.000E+01  2.000E+04 -1.147E-02
   1   12   18     1    18    1.2510E+05 -4.8621E+02   1.2559E+05  0.000E+00  0.000E+00  0.000E+00  4.03134E+01  1.656E-01  2.000E+01  2.000E+04 -2.431E-02
   1   12   19     1    19    1.2559E+05 -1.5622E+02   1.2574E+05  0.000E+00  0.000E+00  0.000E+00  3.98364E+01  1.659E-01  2.000E+01  2.000E+04 -7.811E-03
   1   13   20     1    20    1.2574E+05 -2.0101E+02   1.2595E+05  0.000E+00  0.000E+00  0.000E+00  3.93592E+01  1.660E-01  2.000E+01  2.000E+04 -1.005E-02
   1   14   21     1    21    1.2595E+05 -1.1521E+03   1.2710E+05  0.000E+00  0.000E+00  0.000E+00  3.88825E+01  1.666E-01  2.000E+01  2.000E+04 -5.761E-02
   1   14   22     1    22    1.2710E+05  5.3930E+03   1.2170E+05  0.000E+00  0.000E+00  0.000E+00  3.84035E+01  1.649E-01  2.000E+01  2.000E+04  2.697E-01
   1    9   30     2     1    5.0000E+04 -2.1852E+02   5.0219E+04  0.000E+00  0.000E+00  0.000E+00  4.02410E+01  1.160E-01  2.000E+01  2.000E+04 -1.093E-02
   1    9   29     2     2    5.0219E+04 -4.1891E+02   5.0637E+04  0.000E+00  0.000E+00  0.000E+00  3.99915E+01  1.165E-01  2.000E+01  2.000E+04 -2.095E-02
   1    9   28     2     3    5.0637E+04 -4.2595E+02   5.1063E+04  0.000E+00  0.000E+00  0.000E+00  3.97420E+01  1.170E-01  2.000E+01  2.000E+04 -2.130E-02
   1    9   27     2     4    5.1063E+04 -3.7493E+02   5.1438E+04  0.000E+00  0.000E+00  0.000E+00  3.94926E+01  1.176E-01  2.000E+01  2.000E+04 -1.875E-02
   1   10   26     2     5    5.1438E+04 -1.5891E+01   5.1454E+04  0.000E+00  0.000E+00  0.000E+00  3.92429E+01  1.179E-01  2.000E+01  2.000E+04 -7.946E-04
   1   11   25     2     6    5.1454E+04  1.4717E+02   5.1307E+04  0.000E+00  0.000E+00  0.000E+00  3.89928E+01  1.178E-01  2.000E+01  2.000E+04  7.358E-03
   1   12   24     2     7    5.1307E+04  1.1982E+03   5.0109E+04  0.000E+00  0.000E+00  0.000E+00  3.87418E+01  1.168E-01  2.000E+01  2.000E+04  5.991E-02
   1   13   23     2     8    5.0109E+04  3.4850E+02   4.9760E+04  0.000E+00  0.000E+00  0.000E+00  3.84908E+01  1.158E-01  2.000E+01  2.000E+04  1.742E-02
   1   14   22     2     9    4.9760E+04  2.1035E+03   4.7657E+04  0.000E+00  0.000E+00  0.000E+00  3.82391E+01  1.141E-01  2.000E+01  2.000E+04  1.052E-01
   1   14   22     3     1    1.6936E+05 -8.2256E+03   1.7759E+05  0.000E+00  0.000E+00  0.000E+00  3.77226E+01  1.670E-01  2.000E+01  2.000E+04 -4.113E-01
   1   15   23     3     2    1.7759E+05 -6.9126E+02   1.7828E+05  0.000E+00  0.000E+00  0.000E+00  3.68363E+01  1.696E-01  2.000E+01  2.000E+04 -3.456E-02
   1   15   24     3     3    1.7828E+05 -3.9777E+02   1.7868E+05  0.000E+00  0.000E+00  0.000E+00  3.59477E+01  1.699E-01  2.000E+01  2.000E+04 -1.989E-02
   1   15   25     3     4    1.7868E+05 -3.9089E+02   1.7907E+05  0.000E+00  0.000E+00  0.000E+00  3.50590E+01  1.701E-01  2.000E+01  2.000E+04 -1.954E-02
   1   15   26     3     5    1.7907E+05 -4.5929E+02   1.7953E+05  0.000E+00  0.000E+00  0.000E+00  3.41704E+01  1.704E-01  2.000E+01  2.000E+04 -2.296E-02
   1   16   27     3     6    1.7953E+05 -5.1687E+02   1.8004E+05  0.000E+00  0.000E+00  0.000E+00  3.32818E+01  1.707E-01  2.000E+01  2.000E+04 -2.584E-02
   1   17   28     3     7    1.8004E+05 -1.9962E+03   1.8204E+05  0.000E+00  0.000E+00  0.000E+00  3.23936E+01  1.714E-01  2.000E+01  2.000E+04 -9.981E-02
   1   18   29     3     8    1.8204E+05 -3.4354E+03   1.8547E+05  0.000E+00  0.000E+00  0.000E+00  3.15063E+01  1.729E-01  2.000E+01  2.000E+04 -1.718E-01
   1   18   30     3     9    1.8547E+05 -3.5672E+03   1.8904E+05  0.000E+00  0.000E+00  0.000E+00  3.06193E+01  1.749E-01  2.000E+01  2.000E+04 -1.784E-01



1
              HEAD IN LAYER   1 AT END OF TIME STEP   1 IN STRESS PERIOD    6
  ---------------------------------------------------------------------------

          1      2      3      4      5      6      7      8      9     10
         11     12     13     14     15     16     17     18     19     20
         21     22     23     24     25     26     27     28     29     30
 .........................................................................
   1  ****** ****** ****** ****** ****** ****** ****** ****** ****** ******
      ****** ****** ****** ****** ****** ****** ****** ****** ****** ******
      ****** ****** ****** ****** ****** ****** ****** ****** ****** ******
   2  ****** ****** ****** ****** ****** ****** ****** ****** ****** ******
      ****** ****** ****** ****** ****** ****** ****** ****** ****** ******
      ****** ****** ****** ****** ****** ****** ****** ****** ****** ******
   3  ****** ****** ****** ****** ****** ****** ****** ****** ****** ******
      ****** ****** ****** ****** ****** ****** ****** ****** ****** ******
      ****** ****** ****** ****** ****** ****** ****** ****** ****** ******
   4  ****** ****** ****** ****** ****** ****** ****** ****** ****** ******
      ****** ****** ****** ****** ****** ****** ****** ****** ****** ******
      ****** ****** ****** ****** ****** ****** ****** ****** ****** ******
   5  ****** ****** ****** ****** ****** ****** ****** ****** ****** ******
      ****** ****** ****** ****** ****** ****** ****** ****** ****** ******
      ****** ****** ****** ****** ****** ****** ****** ****** ****** ******
   6  ****** ****** ****** ****** ****** ****** ****** ****** ****** ******
      ****** ****** ****** ****** ****** ****** ****** ****** ****** ******
      ****** ****** ****** ****** ****** ****** ****** ****** ****** ******
   7  ****** ****** ****** ****** ****** ****** ****** ****** ****** ******
      ****** ****** ****** ****** ****** ****** ****** ****** ****** ******
      ****** ****** ****** ****** ****** ****** ****** ****** ****** ******
   8  ****** ****** ****** ****** ****** ****** ****** ****** ****** ******
      ****** ****** ****** ****** ****** ****** ****** ****** ****** ******
      ****** ****** ****** ****** ****** ****** ****** ****** ****** ******
   9  ****** ****** ****** ****** ****** ****** ****** ****** ****** ******
      ****** ****** ****** ****** ****** ****** ****** ****** ****** ******
      ****** ****** ****** ****** ****** ****** ****** ****** ****** ******
  10  ****** ****** ****** ****** ****** ****** ****** ****** ****** ******
      ****** ****** ****** ****** ****** ****** ****** ****** ****** ******
      ****** ****** ****** ****** ****** ****** ****** ****** ****** ******
  11  ****** ****** ****** ****** ****** ****** ****** ****** ****** ******
      ****** ****** ****** ****** ****** ****** ****** ****** ****** ******
      ****** ****** ****** ****** ****** ****** ****** ****** ****** ******
  12  ****** ****** ****** ****** ****** ****** ****** ****** ****** ******
      ****** ****** ****** ****** ****** ****** ****** ****** ****** ******
      ****** ****** ****** ****** ****** ****** ****** ****** ****** ******
  13  ****** ****** ****** ****** ****** ****** ****** ****** ****** ******
      ****** ****** ****** ****** ****** ****** ****** ****** ****** ******
      ****** ****** ****** ****** ****** ****** ****** ****** ****** ******
  14  ****** ****** ****** ****** ****** ****** ****** ****** ****** ******
      ****** ****** ****** ****** ****** ****** ****** ****** ****** ******
      ****** ****** ****** ****** ****** ****** ****** ****** ****** ******
  15  ****** ****** ****** ****** ****** ****** ****** ****** ****** ******
      ****** ****** ****** ****** ****** ****** ****** ****** ****** ******
      ****** ****** ****** ****** ****** ****** ****** ****** ****** ******
  16  ****** ****** ****** ****** ****** ****** ****** ****** ****** ******
      ****** ****** ****** ****** ****** ****** ****** ****** ****** ******
      ****** ****** ****** ****** ****** ****** ****** ****** ****** ******
  17  ****** ****** ****** ****** ****** ****** ****** ****** ****** ******
      ****** ****** ****** ****** ****** ****** ****** ****** ****** ******
      ****** ****** ****** ****** ****** ****** ****** ****** ****** ******
  18  ****** ****** ****** ****** ****** ****** ****** ****** ****** ******
      ****** ****** ****** ****** ****** ****** ****** ****** ****** ******
      ****** ****** ****** ****** ****** ****** ****** ****** ****** ******
  19  ****** ****** ****** ****** ****** ****** ****** ****** ****** ******
      ****** ****** ****** ****** ****** ****** ****** ****** ****** ******
      ****** ****** ****** ****** ****** ****** ****** ****** ****** ******
  20  ****** ****** ****** ****** ****** ****** ****** ****** ****** ******
      ****** ****** ****** ****** ****** ****** ****** ****** ****** ******
      ****** ****** ****** ****** ****** ****** ****** ****** ****** ******
  21  ****** ****** ****** ****** ****** ****** ****** ****** ****** ******
      ****** ****** ****** ****** ****** ****** ****** ****** ****** ******
      ****** ****** ****** ****** ****** ****** ****** ****** ****** ******
  22  ****** ****** ****** ****** ****** ****** ****** ****** ****** ******
      ****** ****** ****** ****** ****** ****** ****** ****** ****** ******
      ****** ****** ****** ****** ****** ****** ****** ****** ****** ******
  23  ****** ****** ****** ****** ****** ****** ****** ****** ****** ******
      ****** ****** ****** ****** ****** ****** ****** ****** ****** ******
      ****** ****** ****** ****** ****** ****** ****** ****** ****** ******
  24  ****** ****** ****** ****** ****** ****** ****** ****** ****** ******
      ****** ****** ****** ****** ****** ****** ****** ****** ****** ******
      ****** ****** ****** ****** ****** ****** ****** ****** ****** ******
  25  ****** ****** ****** ****** ****** ****** ****** ****** ****** ******
      ****** ****** ****** ****** ****** ****** ****** ****** ****** ******
      ****** ****** ****** ****** ****** ****** ****** ****** ****** ******

 HEAD WILL BE SAVED ON UNIT   51 AT END OF TIME STEP    1, STRESS PERIOD    6
1
  VOLUMETRIC BUDGET FOR ENTIRE MODEL AT END OF TIME STEP    1, STRESS PERIOD   6
  ------------------------------------------------------------------------------

     CUMULATIVE VOLUMES      L**3       RATES FOR THIS TIME STEP      L**3/T
     ------------------                 ------------------------

           IN:                                      IN:
           ---                                      ---
             STORAGE =    32133469.1905               STORAGE =          12.2907
       CONSTANT HEAD =    13818806.4516         CONSTANT HEAD =       30946.1695
               WELLS =           0.0000                 WELLS =           0.0000
            RECHARGE =    15097200.0000              RECHARGE =       55200.0000
      STREAM LEAKAGE =     4651939.7446        STREAM LEAKAGE =        9190.4640

            TOTAL IN =    65701415.3867              TOTAL IN =       95348.9241

          OUT:                                     OUT:
          ----                                     ----
             STORAGE =      739119.4581               STORAGE =        8110.3034
       CONSTANT HEAD =           0.0000         CONSTANT HEAD =           0.0000
               WELLS =    21375538.9934                 WELLS =       39006.4580
            RECHARGE =           0.0000              RECHARGE =           0.0000
      STREAM LEAKAGE =    43586759.0095        STREAM LEAKAGE =       48232.1598

           TOTAL OUT =    65701417.4610             TOTAL OUT =       95348.9212

            IN - OUT =          -2.0743              IN - OUT =       2.8774E-03

 PERCENT DISCREPANCY =          -0.00     PERCENT DISCREPANCY =           0.00






         TIME SUMMARY AT END OF TIME STEP    1 IN STRESS PERIOD    6
                    SECONDS     MINUTES      HOURS       DAYS        YEARS
                    -----------------------------------------------------------
   TIME STEP LENGTH 7.86240E+06 1.31040E+05  2184.0      91.000     0.24914    
 STRESS PERIOD TIME 7.86240E+06 1.31040E+05  2184.0      91.000     0.24914    
         TOTAL TIME 4.73472E+07 7.89120E+05  13152.      548.00      1.5003    
1
1
                            STRESS PERIOD NO.    7, LENGTH =   91.00000    
                            -----------------------------------------------

                              NUMBER OF TIME STEPS =     1

                               MULTIPLIER FOR DELT =     1.500

                            INITIAL TIME STEP SIZE =   91.00000    

 WELL NO.  LAYER   ROW   COL   STRESS RATE         
 --------------------------------------------------
      1      1     12     22      -9012.    
      2      1     10     16      -9566.    
      3      1      6     24     -0.1330E+05
      4      1      6     17      -7129.    

      4 WELLS

                 RECHARGE =   0.00000    

 REUSING STREAM SEGMENT DATA FROM LAST STRESS PERIOD
 
 SOLVING FOR HEAD 


     7 CALLS TO PCG ROUTINE FOR TIME STEP   1 IN STRESS PERIOD    7
    26 TOTAL ITERATIONS

 OUTPUT CONTROL FOR STRESS PERIOD    7   TIME STEP    1
    SAVE BUDGET
    SAVE HEAD FOR ALL LAYERS
    PRINT HEAD FOR ALL LAYERS
 UBDSV2 SAVING "STREAMFLOW OUT  " ON UNIT  50 AT TIME STEP  1, STRESS PERIOD   7



 STREAM LISTING     PERIOD      7   STEP        1

 LAYER ROW COL. STREAM  RCH.  FLOW INTO     FLOW TO   FLOW OUT OF   OVRLND.     DIRECT     STREAM       STREAM     STREAM     STREAM   STREAMBED  STREAMBED
                SEG.NO.  NO.  STRM. RCH.    AQUIFER    STRM. RCH.    RUNOFF     PRECIP       ET          HEAD       DEPTH      WIDTH   CONDCTNC.   GRADIENT

   1   13    1     1     1    1.0000E+05 -1.6155E+03   1.0162E+05  0.000E+00  0.000E+00  0.000E+00  4.84067E+01  1.454E-01  2.000E+01  2.000E+04 -8.078E-02
   1   13    2     1     2    1.0162E+05 -2.5676E+03   1.0418E+05  0.000E+00  0.000E+00  0.000E+00  4.79312E+01  1.472E-01  2.000E+01  2.000E+04 -1.284E-01
   1   14    3     1     3    1.0418E+05 -3.9496E+02   1.0458E+05  0.000E+00  0.000E+00  0.000E+00  4.74552E+01  1.484E-01  2.000E+01  2.000E+04 -1.975E-02
   1   15    4     1     4    1.0458E+05 -3.6840E+02   1.0495E+05  0.000E+00  0.000E+00  0.000E+00  4.69783E+01  1.487E-01  2.000E+01  2.000E+04 -1.842E-02
   1   16    5     1     5    1.0495E+05 -1.4928E+03   1.0644E+05  0.000E+00  0.000E+00  0.000E+00  4.65018E+01  1.495E-01  2.000E+01  2.000E+04 -7.464E-02
   1   16    6     1     6    1.0644E+05 -9.5002E+02   1.0739E+05  0.000E+00  0.000E+00  0.000E+00  4.60256E+01  1.506E-01  2.000E+01  2.000E+04 -4.750E-02
   1   16    7     1     7    1.0739E+05 -9.3756E+02   1.0833E+05  0.000E+00  0.000E+00  0.000E+00  4.55491E+01  1.514E-01  2.000E+01  2.000E+04 -4.688E-02
   1   16    8     1     8    1.0833E+05 -9.3601E+02   1.0926E+05  0.000E+00  0.000E+00  0.000E+00  4.50726E+01  1.522E-01  2.000E+01  2.000E+04 -4.680E-02
   1   16    9     1     9    1.0926E+05 -9.2969E+02   1.1019E+05  0.000E+00  0.000E+00  0.000E+00  4.45961E+01  1.529E-01  2.000E+01  2.000E+04 -4.648E-02
   1   16   10     1    10    1.1019E+05 -9.1994E+02   1.1111E+05  0.000E+00  0.000E+00  0.000E+00  4.41196E+01  1.537E-01  2.000E+01  2.000E+04 -4.600E-02
   1   16   11     1    11    1.1111E+05 -9.2716E+02   1.1204E+05  0.000E+00  0.000E+00  0.000E+00  4.36431E+01  1.545E-01  2.000E+01  2.000E+04 -4.636E-02
   1   16   12     1    12    1.1204E+05 -1.5260E+03   1.1357E+05  0.000E+00  0.000E+00  0.000E+00  4.31669E+01  1.555E-01  2.000E+01  2.000E+04 -7.630E-02
   1   15   13     1    13    1.1357E+05 -1.1328E+03   1.1470E+05  0.000E+00  0.000E+00  0.000E+00  4.26907E+01  1.566E-01  2.000E+01  2.000E+04 -5.664E-02
   1   14   14     1    14    1.1470E+05 -1.0398E+03   1.1574E+05  0.000E+00  0.000E+00  0.000E+00  4.22143E+01  1.575E-01  2.000E+01  2.000E+04 -5.199E-02
   1   13   15     1    15    1.1574E+05 -6.8907E+02   1.1643E+05  0.000E+00  0.000E+00  0.000E+00  4.17377E+01  1.582E-01  2.000E+01  2.000E+04 -3.445E-02
   1   12   16     1    16    1.1643E+05  7.7649E+02   1.1565E+05  0.000E+00  0.000E+00  0.000E+00  4.12604E+01  1.582E-01  2.000E+01  2.000E+04  3.882E-02
   1   12   17     1    17    1.1565E+05  3.5710E+02   1.1529E+05  0.000E+00  0.000E+00  0.000E+00  4.07827E+01  1.577E-01  2.000E+01  2.000E+04  1.785E-02
   1   12   18     1    18    1.1529E+05  8.5069E+01   1.1521E+05  0.000E+00  0.000E+00  0.000E+00  4.03052E+01  1.575E-01  2.000E+01  2.000E+04  4.253E-03
   1   12   19     1    19    1.1521E+05  5.4322E+02   1.1467E+05  0.000E+00  0.000E+00  0.000E+00  3.98277E+01  1.573E-01  2.000E+01  2.000E+04  2.716E-02
   1   13   20     1    20    1.1467E+05  4.7182E+02   1.1419E+05  0.000E+00  0.000E+00  0.000E+00  3.93500E+01  1.568E-01  2.000E+01  2.000E+04  2.359E-02
   1   14   21     1    21    1.1419E+05 -4.9415E+02   1.1469E+05  0.000E+00  0.000E+00  0.000E+00  3.88728E+01  1.568E-01  2.000E+01  2.000E+04 -2.471E-02
   1   14   22     1    22    1.1469E+05  5.5533E+03   1.0913E+05  0.000E+00  0.000E+00  0.000E+00  3.83934E+01  1.548E-01  2.000E+01  2.000E+04  2.777E-01
   1    9   30     2     1    5.0000E+04  3.0103E+02   4.9699E+04  0.000E+00  0.000E+00  0.000E+00  4.02407E+01  1.157E-01  2.000E+01  2.000E+04  1.505E-02
   1    9   29     2     2    4.9699E+04  9.9185E+01   4.9600E+04  0.000E+00  0.000E+00  0.000E+00  3.99904E+01  1.154E-01  2.000E+01  2.000E+04  4.959E-03
   1    9   28     2     3    4.9600E+04  9.4372E+01   4.9505E+04  0.000E+00  0.000E+00  0.000E+00  3.97402E+01  1.152E-01  2.000E+01  2.000E+04  4.719E-03
   1    9   27     2     4    4.9505E+04  3.3594E+02   4.9169E+04  0.000E+00  0.000E+00  0.000E+00  3.94899E+01  1.149E-01  2.000E+01  2.000E+04  1.680E-02
   1   10   26     2     5    4.9169E+04  6.9355E+02   4.8476E+04  0.000E+00  0.000E+00  0.000E+00  3.92392E+01  1.142E-01  2.000E+01  2.000E+04  3.468E-02
   1   11   25     2     6    4.8476E+04  8.2662E+02   4.7649E+04  0.000E+00  0.000E+00  0.000E+00  3.89882E+01  1.132E-01  2.000E+01  2.000E+04  4.133E-02
   1   12   24     2     7    4.7649E+04  1.8178E+03   4.5831E+04  0.000E+00  0.000E+00  0.000E+00  3.87363E+01  1.113E-01  2.000E+01  2.000E+04  9.089E-02
   1   13   23     2     8    4.5831E+04  5.4155E+02   4.5290E+04  0.000E+00  0.000E+00  0.000E+00  3.84846E+01  1.096E-01  2.000E+01  2.000E+04  2.708E-02
   1   14   22     2     9    4.5290E+04  2.3353E+03   4.2955E+04  0.000E+00  0.000E+00  0.000E+00  3.82325E+01  1.075E-01  2.000E+01  2.000E+04  1.168E-01
   1   14   22     3     1    1.5209E+05 -8.0671E+03   1.6016E+05  0.000E+00  0.000E+00  0.000E+00  3.77124E+01  1.568E-01  2.000E+01  2.000E+04 -4.034E-01
   1   15   23     3     2    1.6016E+05 -4.8636E+02   1.6064E+05  0.000E+00  0.000E+00  0.000E+00  3.68260E+01  1.594E-01  2.000E+01  2.000E+04 -2.432E-02
   1   15   24     3     3    1.6064E+05 -2.2503E+02   1.6087E+05  0.000E+00  0.000E+00  0.000E+00  3.59374E+01  1.596E-01  2.000E+01  2.000E+04 -1.125E-02
   1   15   25     3     4    1.6087E+05 -2.1498E+02   1.6108E+05  0.000E+00  0.000E+00  0.000E+00  3.50486E+01  1.597E-01  2.000E+01  2.000E+04 -1.075E-02
   1   15   26     3     5    1.6108E+05 -2.5862E+02   1.6134E+05  0.000E+00  0.000E+00  0.000E+00  3.41599E+01  1.599E-01  2.000E+01  2.000E+04 -1.293E-02
   1   16   27     3     6    1.6134E+05 -2.8549E+02   1.6163E+05  0.000E+00  0.000E+00  0.000E+00  3.32711E+01  1.600E-01  2.000E+01  2.000E+04 -1.427E-02
   1   17   28     3     7    1.6163E+05 -1.3581E+03   1.6298E+05  0.000E+00  0.000E+00  0.000E+00  3.23827E+01  1.605E-01  2.000E+01  2.000E+04 -6.790E-02
   1   18   29     3     8    1.6298E+05 -2.7563E+03   1.6574E+05  0.000E+00  0.000E+00  0.000E+00  3.14951E+01  1.617E-01  2.000E+01  2.000E+04 -1.378E-01
   1   18   30     3     9    1.6574E+05 -3.0429E+03   1.6878E+05  0.000E+00  0.000E+00  0.000E+00  3.06079E+01  1.634E-01  2.000E+01  2.000E+04 -1.521E-01



1
              HEAD IN LAYER   1 AT END OF TIME STEP   1 IN STRESS PERIOD    7
  ---------------------------------------------------------------------------

          1      2      3      4      5      6      7      8      9     10
         11     12     13     14     15     16     17     18     19     20
         21     22     23     24     25     26     27     28     29     30
 .........................................................................
   1  ****** ****** ****** ****** ****** ****** ****** ****** ****** ******
      ****** ****** ****** ****** ****** ****** ****** ****** ****** ******
      ****** ****** ****** ****** ****** ****** ****** ****** ****** ******
   2  ****** ****** ****** ****** ****** ****** ****** ****** ****** ******
      ****** ****** ****** ****** ****** ****** ****** ****** ****** ******
      ****** ****** ****** ****** ****** ****** ****** ****** ****** ******
   3  ****** ****** ****** ****** ****** ****** ****** ****** ****** ******
      ****** ****** ****** ****** ****** ****** ****** ****** ****** ******
      ****** ****** ****** ****** ****** ****** ****** ****** ****** ******
   4  ****** ****** ****** ****** ****** ****** ****** ****** ****** ******
      ****** ****** ****** ****** ****** ****** ****** ****** ****** ******
      ****** ****** ****** ****** ****** ****** ****** ****** ****** ******
   5  ****** ****** ****** ****** ****** ****** ****** ****** ****** ******
      ****** ****** ****** ****** ****** ****** ****** ****** ****** ******
      ****** ****** ****** ****** ****** ****** ****** ****** ****** ******
   6  ****** ****** ****** ****** ****** ****** ****** ****** ****** ******
      ****** ****** ****** ****** ****** ****** ****** ****** ****** ******
      ****** ****** ****** ****** ****** ****** ****** ****** ****** ******
   7  ****** ****** ****** ****** ****** ****** ****** ****** ****** ******
      ****** ****** ****** ****** ****** ****** ****** ****** ****** ******
      ****** ****** ****** ****** ****** ****** ****** ****** ****** ******
   8  ****** ****** ****** ****** ****** ****** ****** ****** ****** ******
      ****** ****** ****** ****** ****** ****** ****** ****** ****** ******
      ****** ****** ****** ****** ****** ****** ****** ****** ****** ******
   9  ****** ****** ****** ****** ****** ****** ****** ****** ****** ******
      ****** ****** ****** ****** ****** ****** ****** ****** ****** ******
      ****** ****** ****** ****** ****** ****** ****** ****** ****** ******
  10  ****** ****** ****** ****** ****** ****** ****** ****** ****** ******
      ****** ****** ****** ****** ****** ****** ****** ****** ****** ******
      ****** ****** ****** ****** ****** ****** ****** ****** ****** ******
  11  ****** ****** ****** ****** ****** ****** ****** ****** ****** ******
      ****** ****** ****** ****** ****** ****** ****** ****** ****** ******
      ****** ****** ****** ****** ****** ****** ****** ****** ****** ******
  12  ****** ****** ****** ****** ****** ****** ****** ****** ****** ******
      ****** ****** ****** ****** ****** ****** ****** ****** ****** ******
      ****** ****** ****** ****** ****** ****** ****** ****** ****** ******
  13  ****** ****** ****** ****** ****** ****** ****** ****** ****** ******
      ****** ****** ****** ****** ****** ****** ****** ****** ****** ******
      ****** ****** ****** ****** ****** ****** ****** ****** ****** ******
  14  ****** ****** ****** ****** ****** ****** ****** ****** ****** ******
      ****** ****** ****** ****** ****** ****** ****** ****** ****** ******
      ****** ****** ****** ****** ****** ****** ****** ****** ****** ******
  15  ****** ****** ****** ****** ****** ****** ****** ****** ****** ******
      ****** ****** ****** ****** ****** ****** ****** ****** ****** ******
      ****** ****** ****** ****** ****** ****** ****** ****** ****** ******
  16  ****** ****** ****** ****** ****** ****** ****** ****** ****** ******
      ****** ****** ****** ****** ****** ****** ****** ****** ****** ******
      ****** ****** ****** ****** ****** ****** ****** ****** ****** ******
  17  ****** ****** ****** ****** ****** ****** ****** ****** ****** ******
      ****** ****** ****** ****** ****** ****** ****** ****** ****** ******
      ****** ****** ****** ****** ****** ****** ****** ****** ****** ******
  18  ****** ****** ****** ****** ****** ****** ****** ****** ****** ******
      ****** ****** ****** ****** ****** ****** ****** ****** ****** ******
      ****** ****** ****** ****** ****** ****** ****** ****** ****** ******
  19  ****** ****** ****** ****** ****** ****** ****** ****** ****** ******
      ****** ****** ****** ****** ****** ****** ****** ****** ****** ******
      ****** ****** ****** ****** ****** ****** ****** ****** ****** ******
  20  ****** ****** ****** ****** ****** ****** ****** ****** ****** ******
      ****** ****** ****** ****** ****** ****** ****** ****** ****** ******
      ****** ****** ****** ****** ****** ****** ****** ****** ****** ******
  21  ****** ****** ****** ****** ****** ****** ****** ****** ****** ******
      ****** ****** ****** ****** ****** ****** ****** ****** ****** ******
      ****** ****** ****** ****** ****** ****** ****** ****** ****** ******
  22  ****** ****** ****** ****** ****** ****** ****** ****** ****** ******
      ****** ****** ****** ****** ****** ****** ****** ****** ****** ******
      ****** ****** ****** ****** ****** ****** ****** ****** ****** ******
  23  ****** ****** ****** ****** ****** ****** ****** ****** ****** ******
      ****** ****** ****** ****** ****** ****** ****** ****** ****** ******
      ****** ****** ****** ****** ****** ****** ****** ****** ****** ******
  24  ****** ****** ****** ****** ****** ****** ****** ****** ****** ******
      ****** ****** ****** ****** ****** ****** ****** ****** ****** ******
      ****** ****** ****** ****** ****** ****** ****** ****** ****** ******
  25  ****** ****** ****** ****** ****** ****** ****** ****** ****** ******
      ****** ****** ****** ****** ****** ****** ****** ****** ****** ******
      ****** ****** ****** ****** ****** ****** ****** ****** ****** ******

 HEAD WILL BE SAVED ON UNIT   51 AT END OF TIME STEP    1, STRESS PERIOD    7
1
  VOLUMETRIC BUDGET FOR ENTIRE MODEL AT END OF TIME STEP    1, STRESS PERIOD   7
  ------------------------------------------------------------------------------

     CUMULATIVE VOLUMES      L**3       RATES FOR THIS TIME STEP      L**3/T
     ------------------                 ------------------------

           IN:                                      IN:
           ---                                      ---
             STORAGE =    34213522.7401               STORAGE =       22857.7313
       CONSTANT HEAD =    16997686.7941         CONSTANT HEAD =       34932.7510
               WELLS =           0.0000                 WELLS =           0.0000
            RECHARGE =    15097200.0000              RECHARGE =           0.0000
      STREAM LEAKAGE =     6001690.3685        STREAM LEAKAGE =       14832.4244

            TOTAL IN =    72310099.9027              TOTAL IN =       72622.9068

          OUT:                                     OUT:
          ----                                     ----
             STORAGE =      739119.4581               STORAGE =           0.0000
       CONSTANT HEAD =           0.0000         CONSTANT HEAD =           0.0000
               WELLS =    24925126.6729                 WELLS =       39006.4580
            RECHARGE =           0.0000              RECHARGE =           0.0000
      STREAM LEAKAGE =    46645856.3557        STREAM LEAKAGE =       33616.4544

           TOTAL OUT =    72310102.4868             TOTAL OUT =       72622.9124

            IN - OUT =          -2.5841              IN - OUT =      -5.6021E-03

 PERCENT DISCREPANCY =          -0.00     PERCENT DISCREPANCY =          -0.00






         TIME SUMMARY AT END OF TIME STEP    1 IN STRESS PERIOD    7
                    SECONDS     MINUTES      HOURS       DAYS        YEARS
                    -----------------------------------------------------------
   TIME STEP LENGTH 7.86240E+06 1.31040E+05  2184.0      91.000     0.24914    
 STRESS PERIOD TIME 7.86240E+06 1.31040E+05  2184.0      91.000     0.24914    
         TOTAL TIME 5.52096E+07 9.20160E+05  15336.      639.00      1.7495    
1
1
                            STRESS PERIOD NO.    8, LENGTH =   91.00000    
                            -----------------------------------------------

                              NUMBER OF TIME STEPS =     1

                               MULTIPLIER FOR DELT =     1.500

                            INITIAL TIME STEP SIZE =   91.00000    

 WELL NO.  LAYER   ROW   COL   STRESS RATE         
 --------------------------------------------------
      1      1     12     22      -9012.    
      2      1     10     16      -9566.    
      3      1      6     24     -0.1330E+05
      4      1      6     17      -7129.    

      4 WELLS

                 RECHARGE =  1.000000E-03

 REUSING STREAM SEGMENT DATA FROM LAST STRESS PERIOD
 
 SOLVING FOR HEAD 


     6 CALLS TO PCG ROUTINE FOR TIME STEP   1 IN STRESS PERIOD    8
    22 TOTAL ITERATIONS

 OUTPUT CONTROL FOR STRESS PERIOD    8   TIME STEP    1
    SAVE BUDGET
    SAVE HEAD FOR ALL LAYERS
    PRINT HEAD FOR ALL LAYERS
 UBDSV2 SAVING "STREAMFLOW OUT  " ON UNIT  50 AT TIME STEP  1, STRESS PERIOD   8



 STREAM LISTING     PERIOD      8   STEP        1

 LAYER ROW COL. STREAM  RCH.  FLOW INTO     FLOW TO   FLOW OUT OF   OVRLND.     DIRECT     STREAM       STREAM     STREAM     STREAM   STREAMBED  STREAMBED
                SEG.NO.  NO.  STRM. RCH.    AQUIFER    STRM. RCH.    RUNOFF     PRECIP       ET          HEAD       DEPTH      WIDTH   CONDCTNC.   GRADIENT

   1   13    1     1     1    1.0000E+05 -1.6787E+03   1.0168E+05  0.000E+00  0.000E+00  0.000E+00  4.84067E+01  1.454E-01  2.000E+01  2.000E+04 -8.393E-02
   1   13    2     1     2    1.0168E+05 -2.6286E+03   1.0431E+05  0.000E+00  0.000E+00  0.000E+00  4.79313E+01  1.472E-01  2.000E+01  2.000E+04 -1.314E-01
   1   14    3     1     3    1.0431E+05 -4.5744E+02   1.0476E+05  0.000E+00  0.000E+00  0.000E+00  4.74554E+01  1.486E-01  2.000E+01  2.000E+04 -2.287E-02
   1   15    4     1     4    1.0476E+05 -4.3594E+02   1.0520E+05  0.000E+00  0.000E+00  0.000E+00  4.69785E+01  1.489E-01  2.000E+01  2.000E+04 -2.180E-02
   1   16    5     1     5    1.0520E+05 -1.6671E+03   1.0687E+05  0.000E+00  0.000E+00  0.000E+00  4.65021E+01  1.498E-01  2.000E+01  2.000E+04 -8.336E-02
   1   16    6     1     6    1.0687E+05 -1.0565E+03   1.0792E+05  0.000E+00  0.000E+00  0.000E+00  4.60260E+01  1.510E-01  2.000E+01  2.000E+04 -5.282E-02
   1   16    7     1     7    1.0792E+05 -1.0388E+03   1.0896E+05  0.000E+00  0.000E+00  0.000E+00  4.55496E+01  1.519E-01  2.000E+01  2.000E+04 -5.194E-02
   1   16    8     1     8    1.0896E+05 -1.0365E+03   1.1000E+05  0.000E+00  0.000E+00  0.000E+00  4.50732E+01  1.527E-01  2.000E+01  2.000E+04 -5.182E-02
   1   16    9     1     9    1.1000E+05 -1.0315E+03   1.1103E+05  0.000E+00  0.000E+00  0.000E+00  4.45968E+01  1.536E-01  2.000E+01  2.000E+04 -5.158E-02
   1   16   10     1    10    1.1103E+05 -1.0246E+03   1.1206E+05  0.000E+00  0.000E+00  0.000E+00  4.41204E+01  1.545E-01  2.000E+01  2.000E+04 -5.123E-02
   1   16   11     1    11    1.1206E+05 -1.0355E+03   1.1309E+05  0.000E+00  0.000E+00  0.000E+00  4.36439E+01  1.553E-01  2.000E+01  2.000E+04 -5.177E-02
   1   16   12     1    12    1.1309E+05 -1.6876E+03   1.1478E+05  0.000E+00  0.000E+00  0.000E+00  4.31678E+01  1.564E-01  2.000E+01  2.000E+04 -8.438E-02
   1   15   13     1    13    1.1478E+05 -1.2973E+03   1.1608E+05  0.000E+00  0.000E+00  0.000E+00  4.26917E+01  1.577E-01  2.000E+01  2.000E+04 -6.487E-02
   1   14   14     1    14    1.1608E+05 -1.1944E+03   1.1727E+05  0.000E+00  0.000E+00  0.000E+00  4.22155E+01  1.587E-01  2.000E+01  2.000E+04 -5.972E-02
   1   13   15     1    15    1.1727E+05 -8.2802E+02   1.1810E+05  0.000E+00  0.000E+00  0.000E+00  4.17390E+01  1.595E-01  2.000E+01  2.000E+04 -4.140E-02
   1   12   16     1    16    1.1810E+05  6.8086E+02   1.1742E+05  0.000E+00  0.000E+00  0.000E+00  4.12618E+01  1.596E-01  2.000E+01  2.000E+04  3.404E-02
   1   12   17     1    17    1.1742E+05  2.5380E+02   1.1716E+05  0.000E+00  0.000E+00  0.000E+00  4.07842E+01  1.592E-01  2.000E+01  2.000E+04  1.269E-02
   1   12   18     1    18    1.1716E+05 -2.6032E+01   1.1719E+05  0.000E+00  0.000E+00  0.000E+00  4.03068E+01  1.591E-01  2.000E+01  2.000E+04 -1.302E-03
   1   12   19     1    19    1.1719E+05  4.0348E+02   1.1679E+05  0.000E+00  0.000E+00  0.000E+00  3.98294E+01  1.589E-01  2.000E+01  2.000E+04  2.017E-02
   1   13   20     1    20    1.1679E+05  2.9663E+02   1.1649E+05  0.000E+00  0.000E+00  0.000E+00  3.93518E+01  1.586E-01  2.000E+01  2.000E+04  1.483E-02
   1   14   21     1    21    1.1649E+05 -6.5390E+02   1.1714E+05  0.000E+00  0.000E+00  0.000E+00  3.88747E+01  1.588E-01  2.000E+01  2.000E+04 -3.270E-02
   1   14   22     1    22    1.1714E+05  5.5045E+03   1.1164E+05  0.000E+00  0.000E+00  0.000E+00  3.83954E+01  1.568E-01  2.000E+01  2.000E+04  2.752E-01
   1    9   30     2     1    5.0000E+04  1.4137E+02   4.9859E+04  0.000E+00  0.000E+00  0.000E+00  4.02408E+01  1.158E-01  2.000E+01  2.000E+04  7.069E-03
   1    9   29     2     2    4.9859E+04 -5.7475E+01   4.9916E+04  0.000E+00  0.000E+00  0.000E+00  3.99907E+01  1.157E-01  2.000E+01  2.000E+04 -2.874E-03
   1    9   28     2     3    4.9916E+04 -5.6150E+01   4.9972E+04  0.000E+00  0.000E+00  0.000E+00  3.97408E+01  1.158E-01  2.000E+01  2.000E+04 -2.808E-03
   1    9   27     2     4    4.9972E+04  1.6638E+02   4.9806E+04  0.000E+00  0.000E+00  0.000E+00  3.94907E+01  1.157E-01  2.000E+01  2.000E+04  8.319E-03
   1   10   26     2     5    4.9806E+04  4.9504E+02   4.9311E+04  0.000E+00  0.000E+00  0.000E+00  3.92403E+01  1.153E-01  2.000E+01  2.000E+04  2.475E-02
   1   11   25     2     6    4.9311E+04  6.2895E+02   4.8682E+04  0.000E+00  0.000E+00  0.000E+00  3.89895E+01  1.145E-01  2.000E+01  2.000E+04  3.145E-02
   1   12   24     2     7    4.8682E+04  1.6387E+03   4.7043E+04  0.000E+00  0.000E+00  0.000E+00  3.87379E+01  1.129E-01  2.000E+01  2.000E+04  8.194E-02
   1   13   23     2     8    4.7043E+04  4.6818E+02   4.6575E+04  0.000E+00  0.000E+00  0.000E+00  3.84864E+01  1.114E-01  2.000E+01  2.000E+04  2.341E-02
   1   14   22     2     9    4.6575E+04  2.2835E+03   4.4291E+04  0.000E+00  0.000E+00  0.000E+00  3.82344E+01  1.094E-01  2.000E+01  2.000E+04  1.142E-01
   1   14   22     3     1    1.5593E+05 -8.1107E+03   1.6404E+05  0.000E+00  0.000E+00  0.000E+00  3.77147E+01  1.591E-01  2.000E+01  2.000E+04 -4.055E-01
   1   15   23     3     2    1.6404E+05 -5.5123E+02   1.6459E+05  0.000E+00  0.000E+00  0.000E+00  3.68284E+01  1.617E-01  2.000E+01  2.000E+04 -2.756E-02
   1   15   24     3     3    1.6459E+05 -2.8592E+02   1.6488E+05  0.000E+00  0.000E+00  0.000E+00  3.59397E+01  1.619E-01  2.000E+01  2.000E+04 -1.430E-02
   1   15   25     3     4    1.6488E+05 -2.7754E+02   1.6516E+05  0.000E+00  0.000E+00  0.000E+00  3.50510E+01  1.621E-01  2.000E+01  2.000E+04 -1.388E-02
   1   15   26     3     5    1.6516E+05 -3.3348E+02   1.6549E+05  0.000E+00  0.000E+00  0.000E+00  3.41623E+01  1.623E-01  2.000E+01  2.000E+04 -1.667E-02
   1   16   27     3     6    1.6549E+05 -3.6772E+02   1.6586E+05  0.000E+00  0.000E+00  0.000E+00  3.32736E+01  1.625E-01  2.000E+01  2.000E+04 -1.839E-02
   1   17   28     3     7    1.6586E+05 -1.5632E+03   1.6742E+05  0.000E+00  0.000E+00  0.000E+00  3.23853E+01  1.631E-01  2.000E+01  2.000E+04 -7.816E-02
   1   18   29     3     8    1.6742E+05 -2.9249E+03   1.7035E+05  0.000E+00  0.000E+00  0.000E+00  3.14977E+01  1.644E-01  2.000E+01  2.000E+04 -1.462E-01
   1   18   30     3     9    1.7035E+05 -3.1915E+03   1.7354E+05  0.000E+00  0.000E+00  0.000E+00  3.06106E+01  1.662E-01  2.000E+01  2.000E+04 -1.596E-01



1
              HEAD IN LAYER   1 AT END OF TIME STEP   1 IN STRESS PERIOD    8
  ---------------------------------------------------------------------------

          1      2      3      4      5      6      7      8      9     10
         11     12     13     14     15     16     17     18     19     20
         21     22     23     24     25     26     27     28     29     30
 .........................................................................
   1  ****** ****** ****** ****** ****** ****** ****** ****** ****** ******
      ****** ****** ****** ****** ****** ****** ****** ****** ****** ******
      ****** ****** ****** ****** ****** ****** ****** ****** ****** ******
   2  ****** ****** ****** ****** ****** ****** ****** ****** ****** ******
      ****** ****** ****** ****** ****** ****** ****** ****** ****** ******
      ****** ****** ****** ****** ****** ****** ****** ****** ****** ******
   3  ****** ****** ****** ****** ****** ****** ****** ****** ****** ******
      ****** ****** ****** ****** ****** ****** ****** ****** ****** ******
      ****** ****** ****** ****** ****** ****** ****** ****** ****** ******
   4  ****** ****** ****** ****** ****** ****** ****** ****** ****** ******
      ****** ****** ****** ****** ****** ****** ****** ****** ****** ******
      ****** ****** ****** ****** ****** ****** ****** ****** ****** ******
   5  ****** ****** ****** ****** ****** ****** ****** ****** ****** ******
      ****** ****** ****** ****** ****** ****** ****** ****** ****** ******
      ****** ****** ****** ****** ****** ****** ****** ****** ****** ******
   6  ****** ****** ****** ****** ****** ****** ****** ****** ****** ******
      ****** ****** ****** ****** ****** ****** ****** ****** ****** ******
      ****** ****** ****** ****** ****** ****** ****** ****** ****** ******
   7  ****** ****** ****** ****** ****** ****** ****** ****** ****** ******
      ****** ****** ****** ****** ****** ****** ****** ****** ****** ******
      ****** ****** ****** ****** ****** ****** ****** ****** ****** ******
   8  ****** ****** ****** ****** ****** ****** ****** ****** ****** ******
      ****** ****** ****** ****** ****** ****** ****** ****** ****** ******
      ****** ****** ****** ****** ****** ****** ****** ****** ****** ******
   9  ****** ****** ****** ****** ****** ****** ****** ****** ****** ******
      ****** ****** ****** ****** ****** ****** ****** ****** ****** ******
      ****** ****** ****** ****** ****** ****** ****** ****** ****** ******
  10  ****** ****** ****** ****** ****** ****** ****** ****** ****** ******
      ****** ****** ****** ****** ****** ****** ****** ****** ****** ******
      ****** ****** ****** ****** ****** ****** ****** ****** ****** ******
  11  ****** ****** ****** ****** ****** ****** ****** ****** ****** ******
      ****** ****** ****** ****** ****** ****** ****** ****** ****** ******
      ****** ****** ****** ****** ****** ****** ****** ****** ****** ******
  12  ****** ****** ****** ****** ****** ****** ****** ****** ****** ******
      ****** ****** ****** ****** ****** ****** ****** ****** ****** ******
      ****** ****** ****** ****** ****** ****** ****** ****** ****** ******
  13  ****** ****** ****** ****** ****** ****** ****** ****** ****** ******
      ****** ****** ****** ****** ****** ****** ****** ****** ****** ******
      ****** ****** ****** ****** ****** ****** ****** ****** ****** ******
  14  ****** ****** ****** ****** ****** ****** ****** ****** ****** ******
      ****** ****** ****** ****** ****** ****** ****** ****** ****** ******
      ****** ****** ****** ****** ****** ****** ****** ****** ****** ******
  15  ****** ****** ****** ****** ****** ****** ****** ****** ****** ******
      ****** ****** ****** ****** ****** ****** ****** ****** ****** ******
      ****** ****** ****** ****** ****** ****** ****** ****** ****** ******
  16  ****** ****** ****** ****** ****** ****** ****** ****** ****** ******
      ****** ****** ****** ****** ****** ****** ****** ****** ****** ******
      ****** ****** ****** ****** ****** ****** ****** ****** ****** ******
  17  ****** ****** ****** ****** ****** ****** ****** ****** ****** ******
      ****** ****** ****** ****** ****** ****** ****** ****** ****** ******
      ****** ****** ****** ****** ****** ****** ****** ****** ****** ******
  18  ****** ****** ****** ****** ****** ****** ****** ****** ****** ******
      ****** ****** ****** ****** ****** ****** ****** ****** ****** ******
      ****** ****** ****** ****** ****** ****** ****** ****** ****** ******
  19  ****** ****** ****** ****** ****** ****** ****** ****** ****** ******
      ****** ****** ****** ****** ****** ****** ****** ****** ****** ******
      ****** ****** ****** ****** ****** ****** ****** ****** ****** ******
  20  ****** ****** ****** ****** ****** ****** ****** ****** ****** ******
      ****** ****** ****** ****** ****** ****** ****** ****** ****** ******
      ****** ****** ****** ****** ****** ****** ****** ****** ****** ******
  21  ****** ****** ****** ****** ****** ****** ****** ****** ****** ******
      ****** ****** ****** ****** ****** ****** ****** ****** ****** ******
      ****** ****** ****** ****** ****** ****** ****** ****** ****** ******
  22  ****** ****** ****** ****** ****** ****** ****** ****** ****** ******
      ****** ****** ****** ****** ****** ****** ****** ****** ****** ******
      ****** ****** ****** ****** ****** ****** ****** ****** ****** ******
  23  ****** ****** ****** ****** ****** ****** ****** ****** ****** ******
      ****** ****** ****** ****** ****** ****** ****** ****** ****** ******
      ****** ****** ****** ****** ****** ****** ****** ****** ****** ******
  24  ****** ****** ****** ****** ****** ****** ****** ****** ****** ******
      ****** ****** ****** ****** ****** ****** ****** ****** ****** ******
      ****** ****** ****** ****** ****** ****** ****** ****** ****** ******
  25  ****** ****** ****** ****** ****** ****** ****** ****** ****** ******
      ****** ****** ****** ****** ****** ****** ****** ****** ****** ******
      ****** ****** ****** ****** ****** ****** ****** ****** ****** ******

 HEAD WILL BE SAVED ON UNIT   51 AT END OF TIME STEP    1, STRESS PERIOD    8
1
  VOLUMETRIC BUDGET FOR ENTIRE MODEL AT END OF TIME STEP    1, STRESS PERIOD   8
  ------------------------------------------------------------------------------

     CUMULATIVE VOLUMES      L**3       RATES FOR THIS TIME STEP      L**3/T
     ------------------                 ------------------------

           IN:                                      IN:
           ---                                      ---
             STORAGE =    34378466.6802               STORAGE =        1812.5708
       CONSTANT HEAD =    20153490.2101         CONSTANT HEAD =       34679.1584
               WELLS =           0.0000                 WELLS =           0.0000
            RECHARGE =    17608800.0000              RECHARGE =       27600.0000
      STREAM LEAKAGE =     7181177.8902        STREAM LEAKAGE =       12961.4013

            TOTAL IN =    79321934.7804              TOTAL IN =       77053.1305

          OUT:                                     OUT:
          ----                                     ----
             STORAGE =      880024.7088               STORAGE =        1548.4093
       CONSTANT HEAD =           0.0000         CONSTANT HEAD =           0.0000
               WELLS =    28474714.3525                 WELLS =       39006.4580
            RECHARGE =           0.0000              RECHARGE =           0.0000
      STREAM LEAKAGE =    49967197.5774        STREAM LEAKAGE =       36498.2552

           TOTAL OUT =    79321936.6387             TOTAL OUT =       77053.1225

            IN - OUT =          -1.8583              IN - OUT =       7.9755E-03

 PERCENT DISCREPANCY =          -0.00     PERCENT DISCREPANCY =           0.00






         TIME SUMMARY AT END OF TIME STEP    1 IN STRESS PERIOD    8
                    SECONDS     MINUTES      HOURS       DAYS        YEARS
                    -----------------------------------------------------------
   TIME STEP LENGTH 7.86240E+06 1.31040E+05  2184.0      91.000     0.24914    
 STRESS PERIOD TIME 7.86240E+06 1.31040E+05  2184.0      91.000     0.24914    
         TOTAL TIME 6.30720E+07 1.05120E+06  17520.      730.00      1.9986    
1
1
                            STRESS PERIOD NO.    9, LENGTH =   92.00000    
                            -----------------------------------------------

                              NUMBER OF TIME STEPS =     1

                               MULTIPLIER FOR DELT =     1.500

                            INITIAL TIME STEP SIZE =   92.00000    

 WELL NO.  LAYER   ROW   COL   STRESS RATE         
 --------------------------------------------------
      1      1     12     22      -9012.    
      2      1     10     16      -9566.    
      3      1      6     24     -0.1330E+05
      4      1      6     17      -7129.    

      4 WELLS

                 RECHARGE =  5.000000E-04

 REUSING STREAM SEGMENT DATA FROM LAST STRESS PERIOD
 
 SOLVING FOR HEAD 


     6 CALLS TO PCG ROUTINE FOR TIME STEP   1 IN STRESS PERIOD    9
    23 TOTAL ITERATIONS

 OUTPUT CONTROL FOR STRESS PERIOD    9   TIME STEP    1
    SAVE BUDGET
    SAVE HEAD FOR ALL LAYERS
    PRINT HEAD FOR ALL LAYERS
 UBDSV2 SAVING "STREAMFLOW OUT  " ON UNIT  50 AT TIME STEP  1, STRESS PERIOD   9



 STREAM LISTING     PERIOD      9   STEP        1

 LAYER ROW COL. STREAM  RCH.  FLOW INTO     FLOW TO   FLOW OUT OF   OVRLND.     DIRECT     STREAM       STREAM     STREAM     STREAM   STREAMBED  STREAMBED
                SEG.NO.  NO.  STRM. RCH.    AQUIFER    STRM. RCH.    RUNOFF     PRECIP       ET          HEAD       DEPTH      WIDTH   CONDCTNC.   GRADIENT

   1   13    1     1     1    1.0000E+05 -1.4563E+03   1.0146E+05  0.000E+00  0.000E+00  0.000E+00  4.84066E+01  1.453E-01  2.000E+01  2.000E+04 -7.282E-02
   1   13    2     1     2    1.0146E+05 -2.3765E+03   1.0383E+05  0.000E+00  0.000E+00  0.000E+00  4.79310E+01  1.469E-01  2.000E+01  2.000E+04 -1.188E-01
   1   14    3     1     3    1.0383E+05 -3.8536E+02   1.0422E+05  0.000E+00  0.000E+00  0.000E+00  4.74549E+01  1.481E-01  2.000E+01  2.000E+04 -1.927E-02
   1   15    4     1     4    1.0422E+05 -3.6316E+02   1.0458E+05  0.000E+00  0.000E+00  0.000E+00  4.69780E+01  1.484E-01  2.000E+01  2.000E+04 -1.816E-02
   1   16    5     1     5    1.0458E+05 -1.4748E+03   1.0606E+05  0.000E+00  0.000E+00  0.000E+00  4.65015E+01  1.492E-01  2.000E+01  2.000E+04 -7.374E-02
   1   16    6     1     6    1.0606E+05 -9.3600E+02   1.0699E+05  0.000E+00  0.000E+00  0.000E+00  4.60252E+01  1.502E-01  2.000E+01  2.000E+04 -4.680E-02
   1   16    7     1     7    1.0699E+05 -9.2196E+02   1.0791E+05  0.000E+00  0.000E+00  0.000E+00  4.55488E+01  1.510E-01  2.000E+01  2.000E+04 -4.610E-02
   1   16    8     1     8    1.0791E+05 -9.2115E+02   1.0884E+05  0.000E+00  0.000E+00  0.000E+00  4.50723E+01  1.518E-01  2.000E+01  2.000E+04 -4.606E-02
   1   16    9     1     9    1.0884E+05 -9.1794E+02   1.0975E+05  0.000E+00  0.000E+00  0.000E+00  4.45958E+01  1.526E-01  2.000E+01  2.000E+04 -4.590E-02
   1   16   10     1    10    1.0975E+05 -9.1336E+02   1.1067E+05  0.000E+00  0.000E+00  0.000E+00  4.41192E+01  1.533E-01  2.000E+01  2.000E+04 -4.567E-02
   1   16   11     1    11    1.1067E+05 -9.2558E+02   1.1159E+05  0.000E+00  0.000E+00  0.000E+00  4.36427E+01  1.541E-01  2.000E+01  2.000E+04 -4.628E-02
   1   16   12     1    12    1.1159E+05 -1.4992E+03   1.1309E+05  0.000E+00  0.000E+00  0.000E+00  4.31665E+01  1.551E-01  2.000E+01  2.000E+04 -7.496E-02
   1   15   13     1    13    1.1309E+05 -1.0852E+03   1.1418E+05  0.000E+00  0.000E+00  0.000E+00  4.26903E+01  1.562E-01  2.000E+01  2.000E+04 -5.426E-02
   1   14   14     1    14    1.1418E+05 -9.6705E+02   1.1514E+05  0.000E+00  0.000E+00  0.000E+00  4.22138E+01  1.570E-01  2.000E+01  2.000E+04 -4.835E-02
   1   13   15     1    15    1.1514E+05 -5.9313E+02   1.1574E+05  0.000E+00  0.000E+00  0.000E+00  4.17372E+01  1.577E-01  2.000E+01  2.000E+04 -2.966E-02
   1   12   16     1    16    1.1574E+05  9.2698E+02   1.1481E+05  0.000E+00  0.000E+00  0.000E+00  4.12598E+01  1.575E-01  2.000E+01  2.000E+04  4.635E-02
   1   12   17     1    17    1.1481E+05  4.2110E+02   1.1439E+05  0.000E+00  0.000E+00  0.000E+00  4.07820E+01  1.570E-01  2.000E+01  2.000E+04  2.105E-02
   1   12   18     1    18    1.1439E+05  1.3309E+02   1.1426E+05  0.000E+00  0.000E+00  0.000E+00  4.03045E+01  1.567E-01  2.000E+01  2.000E+04  6.655E-03
   1   12   19     1    19    1.1426E+05  5.9538E+02   1.1366E+05  0.000E+00  0.000E+00  0.000E+00  3.98269E+01  1.564E-01  2.000E+01  2.000E+04  2.977E-02
   1   13   20     1    20    1.1366E+05  4.7160E+02   1.1319E+05  0.000E+00  0.000E+00  0.000E+00  3.93492E+01  1.560E-01  2.000E+01  2.000E+04  2.358E-02
   1   14   21     1    21    1.1319E+05 -4.8321E+02   1.1367E+05  0.000E+00  0.000E+00  0.000E+00  3.88719E+01  1.560E-01  2.000E+01  2.000E+04 -2.416E-02
   1   14   22     1    22    1.1367E+05  5.5432E+03   1.0813E+05  0.000E+00  0.000E+00  0.000E+00  3.83926E+01  1.539E-01  2.000E+01  2.000E+04  2.772E-01
   1    9   30     2     1    5.0000E+04  2.6649E+02   4.9734E+04  0.000E+00  0.000E+00  0.000E+00  4.02407E+01  1.157E-01  2.000E+01  2.000E+04  1.332E-02
   1    9   29     2     2    4.9734E+04  6.7978E+01   4.9666E+04  0.000E+00  0.000E+00  0.000E+00  3.99904E+01  1.154E-01  2.000E+01  2.000E+04  3.399E-03
   1    9   28     2     3    4.9666E+04  7.1507E+01   4.9594E+04  0.000E+00  0.000E+00  0.000E+00  3.97404E+01  1.154E-01  2.000E+01  2.000E+04  3.575E-03
   1    9   27     2     4    4.9594E+04  3.4727E+02   4.9247E+04  0.000E+00  0.000E+00  0.000E+00  3.94901E+01  1.151E-01  2.000E+01  2.000E+04  1.736E-02
   1   10   26     2     5    4.9247E+04  6.7215E+02   4.8575E+04  0.000E+00  0.000E+00  0.000E+00  3.92393E+01  1.143E-01  2.000E+01  2.000E+04  3.361E-02
   1   11   25     2     6    4.8575E+04  7.9824E+02   4.7776E+04  0.000E+00  0.000E+00  0.000E+00  3.89883E+01  1.133E-01  2.000E+01  2.000E+04  3.991E-02
   1   12   24     2     7    4.7776E+04  1.7945E+03   4.5982E+04  0.000E+00  0.000E+00  0.000E+00  3.87365E+01  1.115E-01  2.000E+01  2.000E+04  8.972E-02
   1   13   23     2     8    4.5982E+04  5.1572E+02   4.5466E+04  0.000E+00  0.000E+00  0.000E+00  3.84848E+01  1.098E-01  2.000E+01  2.000E+04  2.579E-02
   1   14   22     2     9    4.5466E+04  2.3469E+03   4.3119E+04  0.000E+00  0.000E+00  0.000E+00  3.82327E+01  1.077E-01  2.000E+01  2.000E+04  1.173E-01
   1   14   22     3     1    1.5125E+05 -8.0706E+03   1.5932E+05  0.000E+00  0.000E+00  0.000E+00  3.77119E+01  1.563E-01  2.000E+01  2.000E+04 -4.035E-01
   1   15   23     3     2    1.5932E+05 -4.9913E+02   1.5982E+05  0.000E+00  0.000E+00  0.000E+00  3.68255E+01  1.589E-01  2.000E+01  2.000E+04 -2.496E-02
   1   15   24     3     3    1.5982E+05 -2.4318E+02   1.6006E+05  0.000E+00  0.000E+00  0.000E+00  3.59369E+01  1.591E-01  2.000E+01  2.000E+04 -1.216E-02
   1   15   25     3     4    1.6006E+05 -2.3453E+02   1.6030E+05  0.000E+00  0.000E+00  0.000E+00  3.50481E+01  1.592E-01  2.000E+01  2.000E+04 -1.173E-02
   1   15   26     3     5    1.6030E+05 -2.8605E+02   1.6058E+05  0.000E+00  0.000E+00  0.000E+00  3.41594E+01  1.594E-01  2.000E+01  2.000E+04 -1.430E-02
   1   16   27     3     6    1.6058E+05 -3.1202E+02   1.6089E+05  0.000E+00  0.000E+00  0.000E+00  3.32707E+01  1.596E-01  2.000E+01  2.000E+04 -1.560E-02
   1   17   28     3     7    1.6089E+05 -1.4107E+03   1.6230E+05  0.000E+00  0.000E+00  0.000E+00  3.23823E+01  1.601E-01  2.000E+01  2.000E+04 -7.054E-02
   1   18   29     3     8    1.6230E+05 -2.7512E+03   1.6506E+05  0.000E+00  0.000E+00  0.000E+00  3.14947E+01  1.613E-01  2.000E+01  2.000E+04 -1.376E-01
   1   18   30     3     9    1.6506E+05 -3.0606E+03   1.6812E+05  0.000E+00  0.000E+00  0.000E+00  3.06075E+01  1.630E-01  2.000E+01  2.000E+04 -1.530E-01



1
              HEAD IN LAYER   1 AT END OF TIME STEP   1 IN STRESS PERIOD    9
  ---------------------------------------------------------------------------

          1      2      3      4      5      6      7      8      9     10
         11     12     13     14     15     16     17     18     19     20
         21     22     23     24     25     26     27     28     29     30
 .........................................................................
   1  ****** ****** ****** ****** ****** ****** ****** ****** ****** ******
      ****** ****** ****** ****** ****** ****** ****** ****** ****** ******
      ****** ****** ****** ****** ****** ****** ****** ****** ****** ******
   2  ****** ****** ****** ****** ****** ****** ****** ****** ****** ******
      ****** ****** ****** ****** ****** ****** ****** ****** ****** ******
      ****** ****** ****** ****** ****** ****** ****** ****** ****** ******
   3  ****** ****** ****** ****** ****** ****** ****** ****** ****** ******
      ****** ****** ****** ****** ****** ****** ****** ****** ****** ******
      ****** ****** ****** ****** ****** ****** ****** ****** ****** ******
   4  ****** ****** ****** ****** ****** ****** ****** ****** ****** ******
      ****** ****** ****** ****** ****** ****** ****** ****** ****** ******
      ****** ****** ****** ****** ****** ****** ****** ****** ****** ******
   5  ****** ****** ****** ****** ****** ****** ****** ****** ****** ******
      ****** ****** ****** ****** ****** ****** ****** ****** ****** ******
      ****** ****** ****** ****** ****** ****** ****** ****** ****** ******
   6  ****** ****** ****** ****** ****** ****** ****** ****** ****** ******
      ****** ****** ****** ****** ****** ****** ****** ****** ****** ******
      ****** ****** ****** ****** ****** ****** ****** ****** ****** ******
   7  ****** ****** ****** ****** ****** ****** ****** ****** ****** ******
      ****** ****** ****** ****** ****** ****** ****** ****** ****** ******
      ****** ****** ****** ****** ****** ****** ****** ****** ****** ******
   8  ****** ****** ****** ****** ****** ****** ****** ****** ****** ******
      ****** ****** ****** ****** ****** ****** ****** ****** ****** ******
      ****** ****** ****** ****** ****** ****** ****** ****** ****** ******
   9  ****** ****** ****** ****** ****** ****** ****** ****** ****** ******
      ****** ****** ****** ****** ****** ****** ****** ****** ****** ******
      ****** ****** ****** ****** ****** ****** ****** ****** ****** ******
  10  ****** ****** ****** ****** ****** ****** ****** ****** ****** ******
      ****** ****** ****** ****** ****** ****** ****** ****** ****** ******
      ****** ****** ****** ****** ****** ****** ****** ****** ****** ******
  11  ****** ****** ****** ****** ****** ****** ****** ****** ****** ******
      ****** ****** ****** ****** ****** ****** ****** ****** ****** ******
      ****** ****** ****** ****** ****** ****** ****** ****** ****** ******
  12  ****** ****** ****** ****** ****** ****** ****** ****** ****** ******
      ****** ****** ****** ****** ****** ****** ****** ****** ****** ******
      ****** ****** ****** ****** ****** ****** ****** ****** ****** ******
  13  ****** ****** ****** ****** ****** ****** ****** ****** ****** ******
      ****** ****** ****** ****** ****** ****** ****** ****** ****** ******
      ****** ****** ****** ****** ****** ****** ****** ****** ****** ******
  14  ****** ****** ****** ****** ****** ****** ****** ****** ****** ******
      ****** ****** ****** ****** ****** ****** ****** ****** ****** ******
      ****** ****** ****** ****** ****** ****** ****** ****** ****** ******
  15  ****** ****** ****** ****** ****** ****** ****** ****** ****** ******
      ****** ****** ****** ****** ****** ****** ****** ****** ****** ******
      ****** ****** ****** ****** ****** ****** ****** ****** ****** ******
  16  ****** ****** ****** ****** ****** ****** ****** ****** ****** ******
      ****** ****** ****** ****** ****** ****** ****** ****** ****** ******
      ****** ****** ****** ****** ****** ****** ****** ****** ****** ******
  17  ****** ****** ****** ****** ****** ****** ****** ****** ****** ******
      ****** ****** ****** ****** ****** ****** ****** ****** ****** ******
      ****** ****** ****** ****** ****** ****** ****** ****** ****** ******
  18  ****** ****** ****** ****** ****** ****** ****** ****** ****** ******
      ****** ****** ****** ****** ****** ****** ****** ****** ****** ******
      ****** ****** ****** ****** ****** ****** ****** ****** ****** ******
  19  ****** ****** ****** ****** ****** ****** ****** ****** ****** ******
      ****** ****** ****** ****** ****** ****** ****** ****** ****** ******
      ****** ****** ****** ****** ****** ****** ****** ****** ****** ******
  20  ****** ****** ****** ****** ****** ****** ****** ****** ****** ******
      ****** ****** ****** ****** ****** ****** ****** ****** ****** ******
      ****** ****** ****** ****** ****** ****** ****** ****** ****** ******
  21  ****** ****** ****** ****** ****** ****** ****** ****** ****** ******
      ****** ****** ****** ****** ****** ****** ****** ****** ****** ******
      ****** ****** ****** ****** ****** ****** ****** ****** ****** ******
  22  ****** ****** ****** ****** ****** ****** ****** ****** ****** ******
      ****** ****** ****** ****** ****** ****** ****** ****** ****** ******
      ****** ****** ****** ****** ****** ****** ****** ****** ****** ******
  23  ****** ****** ****** ****** ****** ****** ****** ****** ****** ******
      ****** ****** ****** ****** ****** ****** ****** ****** ****** ******
      ****** ****** ****** ****** ****** ****** ****** ****** ****** ******
  24  ****** ****** ****** ****** ****** ****** ****** ****** ****** ******
      ****** ****** ****** ****** ****** ****** ****** ****** ****** ******
      ****** ****** ****** ****** ****** ****** ****** ****** ****** ******
  25  ****** ****** ****** ****** ****** ****** ****** ****** ****** ******
      ****** ****** ****** ****** ****** ****** ****** ****** ****** ******
      ****** ****** ****** ****** ****** ****** ****** ****** ****** ******

 HEAD WILL BE SAVED ON UNIT   51 AT END OF TIME STEP    1, STRESS PERIOD    9
1
  VOLUMETRIC BUDGET FOR ENTIRE MODEL AT END OF TIME STEP    1, STRESS PERIOD   9
  ------------------------------------------------------------------------------

     CUMULATIVE VOLUMES      L**3       RATES FOR THIS TIME STEP      L**3/T
     ------------------                 ------------------------

           IN:                                      IN:
           ---                                      ---
             STORAGE =    35063729.0192               STORAGE =        7448.5037
       CONSTANT HEAD =    23453893.8006         CONSTANT HEAD =       35873.9521
               WELLS =           0.0000                 WELLS =           0.0000
            RECHARGE =    18878400.0000              RECHARGE =       13800.0000
      STREAM LEAKAGE =     8558608.4593        STREAM LEAKAGE =       14972.0714

            TOTAL IN =    85954631.2791              TOTAL IN =       72094.5272

          OUT:                                     OUT:
          ----                                     ----
             STORAGE =      880024.7088               STORAGE =           0.0000
       CONSTANT HEAD =           0.0000         CONSTANT HEAD =           0.0000
               WELLS =    32063308.4901                 WELLS =       39006.4580
            RECHARGE =           0.0000              RECHARGE =           0.0000
      STREAM LEAKAGE =    53011300.0120        STREAM LEAKAGE =       33088.0699

           TOTAL OUT =    85954633.2109             TOTAL OUT =       72094.5280

            IN - OUT =          -1.9317              IN - OUT =      -7.9853E-04

 PERCENT DISCREPANCY =          -0.00     PERCENT DISCREPANCY =          -0.00






         TIME SUMMARY AT END OF TIME STEP    1 IN STRESS PERIOD    9
                    SECONDS     MINUTES      HOURS       DAYS        YEARS
                    -----------------------------------------------------------
   TIME STEP LENGTH 7.94880E+06 1.32480E+05  2208.0      92.000     0.25188    
 STRESS PERIOD TIME 7.94880E+06 1.32480E+05  2208.0      92.000     0.25188    
         TOTAL TIME 7.10208E+07 1.18368E+06  19728.      822.00      2.2505    
1
1
                            STRESS PERIOD NO.   10, LENGTH =   91.00000    
                            -----------------------------------------------

                              NUMBER OF TIME STEPS =     1

                               MULTIPLIER FOR DELT =     1.500

                            INITIAL TIME STEP SIZE =   91.00000    

 WELL NO.  LAYER   ROW   COL   STRESS RATE         
 --------------------------------------------------
      1      1     12     22      -9012.    
      2      1     10     16      -9566.    
      3      1      6     24     -0.1330E+05
      4      1      6     17      -7129.    

      4 WELLS

                 RECHARGE =  2.000000E-03

 REUSING STREAM SEGMENT DATA FROM LAST STRESS PERIOD
 
 SOLVING FOR HEAD 


     7 CALLS TO PCG ROUTINE FOR TIME STEP   1 IN STRESS PERIOD   10
    26 TOTAL ITERATIONS

 OUTPUT CONTROL FOR STRESS PERIOD   10   TIME STEP    1
    SAVE BUDGET
    SAVE HEAD FOR ALL LAYERS
    PRINT HEAD FOR ALL LAYERS
 UBDSV2 SAVING "STREAMFLOW OUT  " ON UNIT  50 AT TIME STEP  1, STRESS PERIOD  10



 STREAM LISTING     PERIOD     10   STEP        1

 LAYER ROW COL. STREAM  RCH.  FLOW INTO     FLOW TO   FLOW OUT OF   OVRLND.     DIRECT     STREAM       STREAM     STREAM     STREAM   STREAMBED  STREAMBED
                SEG.NO.  NO.  STRM. RCH.    AQUIFER    STRM. RCH.    RUNOFF     PRECIP       ET          HEAD       DEPTH      WIDTH   CONDCTNC.   GRADIENT

   1   13    1     1     1    1.0000E+05 -1.9029E+03   1.0190E+05  0.000E+00  0.000E+00  0.000E+00  4.84068E+01  1.455E-01  2.000E+01  2.000E+04 -9.515E-02
   1   13    2     1     2    1.0190E+05 -2.8711E+03   1.0477E+05  0.000E+00  0.000E+00  0.000E+00  4.79316E+01  1.475E-01  2.000E+01  2.000E+04 -1.436E-01
   1   14    3     1     3    1.0477E+05 -5.7090E+02   1.0534E+05  0.000E+00  0.000E+00  0.000E+00  4.74558E+01  1.490E-01  2.000E+01  2.000E+04 -2.854E-02
   1   15    4     1     4    1.0534E+05 -5.6183E+02   1.0591E+05  0.000E+00  0.000E+00  0.000E+00  4.69790E+01  1.495E-01  2.000E+01  2.000E+04 -2.809E-02
   1   16    5     1     5    1.0591E+05 -2.0937E+03   1.0800E+05  0.000E+00  0.000E+00  0.000E+00  4.65029E+01  1.506E-01  2.000E+01  2.000E+04 -1.047E-01
   1   16    6     1     6    1.0800E+05 -1.2978E+03   1.0930E+05  0.000E+00  0.000E+00  0.000E+00  4.60270E+01  1.520E-01  2.000E+01  2.000E+04 -6.489E-02
   1   16    7     1     7    1.0930E+05 -1.2658E+03   1.1056E+05  0.000E+00  0.000E+00  0.000E+00  4.55508E+01  1.531E-01  2.000E+01  2.000E+04 -6.329E-02
   1   16    8     1     8    1.1056E+05 -1.2596E+03   1.1182E+05  0.000E+00  0.000E+00  0.000E+00  4.50746E+01  1.542E-01  2.000E+01  2.000E+04 -6.298E-02
   1   16    9     1     9    1.1182E+05 -1.2550E+03   1.1308E+05  0.000E+00  0.000E+00  0.000E+00  4.45984E+01  1.552E-01  2.000E+01  2.000E+04 -6.275E-02
   1   16   10     1    10    1.1308E+05 -1.2508E+03   1.1433E+05  0.000E+00  0.000E+00  0.000E+00  4.41221E+01  1.562E-01  2.000E+01  2.000E+04 -6.254E-02
   1   16   11     1    11    1.1433E+05 -1.2667E+03   1.1560E+05  0.000E+00  0.000E+00  0.000E+00  4.36459E+01  1.573E-01  2.000E+01  2.000E+04 -6.334E-02
   1   16   12     1    12    1.1560E+05 -2.0685E+03   1.1766E+05  0.000E+00  0.000E+00  0.000E+00  4.31700E+01  1.586E-01  2.000E+01  2.000E+04 -1.034E-01
   1   15   13     1    13    1.1766E+05 -1.6698E+03   1.1933E+05  0.000E+00  0.000E+00  0.000E+00  4.26943E+01  1.602E-01  2.000E+01  2.000E+04 -8.349E-02
   1   14   14     1    14    1.1933E+05 -1.5577E+03   1.2089E+05  0.000E+00  0.000E+00  0.000E+00  4.22183E+01  1.615E-01  2.000E+01  2.000E+04 -7.789E-02
   1   13   15     1    15    1.2089E+05 -1.1728E+03   1.2206E+05  0.000E+00  0.000E+00  0.000E+00  4.17421E+01  1.626E-01  2.000E+01  2.000E+04 -5.864E-02
   1   12   16     1    16    1.2206E+05  3.7066E+02   1.2169E+05  0.000E+00  0.000E+00  0.000E+00  4.12652E+01  1.629E-01  2.000E+01  2.000E+04  1.853E-02
   1   12   17     1    17    1.2169E+05 -1.6426E+00   1.2170E+05  0.000E+00  0.000E+00  0.000E+00  4.07877E+01  1.627E-01  2.000E+01  2.000E+04 -8.213E-05
   1   12   18     1    18    1.2170E+05 -2.8596E+02   1.2198E+05  0.000E+00  0.000E+00  0.000E+00  4.03106E+01  1.629E-01  2.000E+01  2.000E+04 -1.430E-02
   1   12   19     1    19    1.2198E+05  7.9768E+01   1.2190E+05  0.000E+00  0.000E+00  0.000E+00  3.98334E+01  1.629E-01  2.000E+01  2.000E+04  3.988E-03
   1   13   20     1    20    1.2190E+05 -4.8786E+01   1.2195E+05  0.000E+00  0.000E+00  0.000E+00  3.93561E+01  1.629E-01  2.000E+01  2.000E+04 -2.439E-03
   1   14   21     1    21    1.2195E+05 -1.0087E+03   1.2296E+05  0.000E+00  0.000E+00  0.000E+00  3.88793E+01  1.633E-01  2.000E+01  2.000E+04 -5.044E-02
   1   14   22     1    22    1.2296E+05  5.4139E+03   1.1755E+05  0.000E+00  0.000E+00  0.000E+00  3.84002E+01  1.616E-01  2.000E+01  2.000E+04  2.707E-01
   1    9   30     2     1    5.0000E+04 -1.4679E+02   5.0147E+04  0.000E+00  0.000E+00  0.000E+00  4.02410E+01  1.160E-01  2.000E+01  2.000E+04 -7.340E-03
   1    9   29     2     2    5.0147E+04 -3.4295E+02   5.0490E+04  0.000E+00  0.000E+00  0.000E+00  3.99913E+01  1.163E-01  2.000E+01  2.000E+04 -1.715E-02
   1    9   28     2     3    5.0490E+04 -3.3844E+02   5.0828E+04  0.000E+00  0.000E+00  0.000E+00  3.97418E+01  1.168E-01  2.000E+01  2.000E+04 -1.692E-02
   1    9   27     2     4    5.0828E+04 -2.0325E+02   5.1031E+04  0.000E+00  0.000E+00  0.000E+00  3.94922E+01  1.172E-01  2.000E+01  2.000E+04 -1.016E-02
   1   10   26     2     5    5.1031E+04  1.2116E+02   5.0910E+04  0.000E+00  0.000E+00  0.000E+00  3.92422E+01  1.172E-01  2.000E+01  2.000E+04  6.058E-03
   1   11   25     2     6    5.0910E+04  2.7162E+02   5.0639E+04  0.000E+00  0.000E+00  0.000E+00  3.89919E+01  1.169E-01  2.000E+01  2.000E+04  1.358E-02
   1   12   24     2     7    5.0639E+04  1.3181E+03   4.9321E+04  0.000E+00  0.000E+00  0.000E+00  3.87408E+01  1.158E-01  2.000E+01  2.000E+04  6.590E-02
   1   13   23     2     8    4.9321E+04  3.6733E+02   4.8953E+04  0.000E+00  0.000E+00  0.000E+00  3.84897E+01  1.147E-01  2.000E+01  2.000E+04  1.837E-02
   1   14   22     2     9    4.8953E+04  2.1672E+03   4.6786E+04  0.000E+00  0.000E+00  0.000E+00  3.82379E+01  1.129E-01  2.000E+01  2.000E+04  1.084E-01
   1   14   22     3     1    1.6433E+05 -8.1970E+03   1.7253E+05  0.000E+00  0.000E+00  0.000E+00  3.77197E+01  1.641E-01  2.000E+01  2.000E+04 -4.098E-01
   1   15   23     3     2    1.7253E+05 -6.6189E+02   1.7319E+05  0.000E+00  0.000E+00  0.000E+00  3.68334E+01  1.667E-01  2.000E+01  2.000E+04 -3.309E-02
   1   15   24     3     3    1.7319E+05 -3.8049E+02   1.7357E+05  0.000E+00  0.000E+00  0.000E+00  3.59448E+01  1.670E-01  2.000E+01  2.000E+04 -1.902E-02
   1   15   25     3     4    1.7357E+05 -3.7523E+02   1.7395E+05  0.000E+00  0.000E+00  0.000E+00  3.50561E+01  1.672E-01  2.000E+01  2.000E+04 -1.876E-02
   1   15   26     3     5    1.7395E+05 -4.4836E+02   1.7439E+05  0.000E+00  0.000E+00  0.000E+00  3.41674E+01  1.674E-01  2.000E+01  2.000E+04 -2.242E-02
   1   16   27     3     6    1.7439E+05 -4.9802E+02   1.7489E+05  0.000E+00  0.000E+00  0.000E+00  3.32788E+01  1.677E-01  2.000E+01  2.000E+04 -2.490E-02
   1   17   28     3     7    1.7489E+05 -1.9319E+03   1.7682E+05  0.000E+00  0.000E+00  0.000E+00  3.23906E+01  1.684E-01  2.000E+01  2.000E+04 -9.659E-02
   1   18   29     3     8    1.7682E+05 -3.3037E+03   1.8013E+05  0.000E+00  0.000E+00  0.000E+00  3.15033E+01  1.699E-01  2.000E+01  2.000E+04 -1.652E-01
   1   18   30     3     9    1.8013E+05 -3.4867E+03   1.8361E+05  0.000E+00  0.000E+00  0.000E+00  3.06163E+01  1.719E-01  2.000E+01  2.000E+04 -1.743E-01



1
              HEAD IN LAYER   1 AT END OF TIME STEP   1 IN STRESS PERIOD   10
  ---------------------------------------------------------------------------

          1      2      3      4      5      6      7      8      9     10
         11     12     13     14     15     16     17     18     19     20
         21     22     23     24     25     26     27     28     29     30
 .........................................................................
   1  ****** ****** ****** ****** ****** ****** ****** ****** ****** ******
      ****** ****** ****** ****** ****** ****** ****** ****** ****** ******
      ****** ****** ****** ****** ****** ****** ****** ****** ****** ******
   2  ****** ****** ****** ****** ****** ****** ****** ****** ****** ******
      ****** ****** ****** ****** ****** ****** ****** ****** ****** ******
      ****** ****** ****** ****** ****** ****** ****** ****** ****** ******
   3  ****** ****** ****** ****** ****** ****** ****** ****** ****** ******
      ****** ****** ****** ****** ****** ****** ****** ****** ****** ******
      ****** ****** ****** ****** ****** ****** ****** ****** ****** ******
   4  ****** ****** ****** ****** ****** ****** ****** ****** ****** ******
      ****** ****** ****** ****** ****** ****** ****** ****** ****** ******
      ****** ****** ****** ****** ****** ****** ****** ****** ****** ******
   5  ****** ****** ****** ****** ****** ****** ****** ****** ****** ******
      ****** ****** ****** ****** ****** ****** ****** ****** ****** ******
      ****** ****** ****** ****** ****** ****** ****** ****** ****** ******
   6  ****** ****** ****** ****** ****** ****** ****** ****** ****** ******
      ****** ****** ****** ****** ****** ****** ****** ****** ****** ******
      ****** ****** ****** ****** ****** ****** ****** ****** ****** ******
   7  ****** ****** ****** ****** ****** ****** ****** ****** ****** ******
      ****** ****** ****** ****** ****** ****** ****** ****** ****** ******
      ****** ****** ****** ****** ****** ****** ****** ****** ****** ******
   8  ****** ****** ****** ****** ****** ****** ****** ****** ****** ******
      ****** ****** ****** ****** ****** ****** ****** ****** ****** ******
      ****** ****** ****** ****** ****** ****** ****** ****** ****** ******
   9  ****** ****** ****** ****** ****** ****** ****** ****** ****** ******
      ****** ****** ****** ****** ****** ****** ****** ****** ****** ******
      ****** ****** ****** ****** ****** ****** ****** ****** ****** ******
  10  ****** ****** ****** ****** ****** ****** ****** ****** ****** ******
      ****** ****** ****** ****** ****** ****** ****** ****** ****** ******
      ****** ****** ****** ****** ****** ****** ****** ****** ****** ******
  11  ****** ****** ****** ****** ****** ****** ****** ****** ****** ******
      ****** ****** ****** ****** ****** ****** ****** ****** ****** ******
      ****** ****** ****** ****** ****** ****** ****** ****** ****** ******
  12  ****** ****** ****** ****** ****** ****** ****** ****** ****** ******
      ****** ****** ****** ****** ****** ****** ****** ****** ****** ******
      ****** ****** ****** ****** ****** ****** ****** ****** ****** ******
  13  ****** ****** ****** ****** ****** ****** ****** ****** ****** ******
      ****** ****** ****** ****** ****** ****** ****** ****** ****** ******
      ****** ****** ****** ****** ****** ****** ****** ****** ****** ******
  14  ****** ****** ****** ****** ****** ****** ****** ****** ****** ******
      ****** ****** ****** ****** ****** ****** ****** ****** ****** ******
      ****** ****** ****** ****** ****** ****** ****** ****** ****** ******
  15  ****** ****** ****** ****** ****** ****** ****** ****** ****** ******
      ****** ****** ****** ****** ****** ****** ****** ****** ****** ******
      ****** ****** ****** ****** ****** ****** ****** ****** ****** ******
  16  ****** ****** ****** ****** ****** ****** ****** ****** ****** ******
      ****** ****** ****** ****** ****** ****** ****** ****** ****** ******
      ****** ****** ****** ****** ****** ****** ****** ****** ****** ******
  17  ****** ****** ****** ****** ****** ****** ****** ****** ****** ******
      ****** ****** ****** ****** ****** ****** ****** ****** ****** ******
      ****** ****** ****** ****** ****** ****** ****** ****** ****** ******
  18  ****** ****** ****** ****** ****** ****** ****** ****** ****** ******
      ****** ****** ****** ****** ****** ****** ****** ****** ****** ******
      ****** ****** ****** ****** ****** ****** ****** ****** ****** ******
  19  ****** ****** ****** ****** ****** ****** ****** ****** ****** ******
      ****** ****** ****** ****** ****** ****** ****** ****** ****** ******
      ****** ****** ****** ****** ****** ****** ****** ****** ****** ******
  20  ****** ****** ****** ****** ****** ****** ****** ****** ****** ******
      ****** ****** ****** ****** ****** ****** ****** ****** ****** ******
      ****** ****** ****** ****** ****** ****** ****** ****** ****** ******
  21  ****** ****** ****** ****** ****** ****** ****** ****** ****** ******
      ****** ****** ****** ****** ****** ****** ****** ****** ****** ******
      ****** ****** ****** ****** ****** ****** ****** ****** ****** ******
  22  ****** ****** ****** ****** ****** ****** ****** ****** ****** ******
      ****** ****** ****** ****** ****** ****** ****** ****** ****** ******
      ****** ****** ****** ****** ****** ****** ****** ****** ****** ******
  23  ****** ****** ****** ****** ****** ****** ****** ****** ****** ******
      ****** ****** ****** ****** ****** ****** ****** ****** ****** ******
      ****** ****** ****** ****** ****** ****** ****** ****** ****** ******
  24  ****** ****** ****** ****** ****** ****** ****** ****** ****** ******
      ****** ****** ****** ****** ****** ****** ****** ****** ****** ******
      ****** ****** ****** ****** ****** ****** ****** ****** ****** ******
  25  ****** ****** ****** ****** ****** ****** ****** ****** ****** ******
      ****** ****** ****** ****** ****** ****** ****** ****** ****** ******
      ****** ****** ****** ****** ****** ****** ****** ****** ****** ******

 HEAD WILL BE SAVED ON UNIT   51 AT END OF TIME STEP    1, STRESS PERIOD   10
1
  VOLUMETRIC BUDGET FOR ENTIRE MODEL AT END OF TIME STEP    1, STRESS PERIOD  10
  ------------------------------------------------------------------------------

     CUMULATIVE VOLUMES      L**3       RATES FOR THIS TIME STEP      L**3/T
     ------------------                 ------------------------

           IN:                                      IN:
           ---                                      ---
             STORAGE =    35063729.0192               STORAGE =           0.0000
       CONSTANT HEAD =    26451444.0316         CONSTANT HEAD =       32940.1124
               WELLS =           0.0000                 WELLS =           0.0000
            RECHARGE =    23901600.0000              RECHARGE =       55200.0000
      STREAM LEAKAGE =     9478586.6956        STREAM LEAKAGE =       10109.6509

            TOTAL IN =    94895359.7464              TOTAL IN =       98249.7634

          OUT:                                     OUT:
          ----                                     ----
             STORAGE =     2292223.2529               STORAGE =       15518.6653
       CONSTANT HEAD =           0.0000         CONSTANT HEAD =           0.0000
               WELLS =    35612896.1696                 WELLS =       39006.4580
            RECHARGE =           0.0000              RECHARGE =           0.0000
      STREAM LEAKAGE =    56990241.9051        STREAM LEAKAGE =       43724.6362

           TOTAL OUT =    94895361.3276             TOTAL OUT =       98249.7595

            IN - OUT =          -1.5812              IN - OUT =       3.8518E-03

 PERCENT DISCREPANCY =          -0.00     PERCENT DISCREPANCY =           0.00






         TIME SUMMARY AT END OF TIME STEP    1 IN STRESS PERIOD   10
                    SECONDS     MINUTES      HOURS       DAYS        YEARS
                    -----------------------------------------------------------
   TIME STEP LENGTH 7.86240E+06 1.31040E+05  2184.0      91.000     0.24914    
 STRESS PERIOD TIME 7.86240E+06 1.31040E+05  2184.0      91.000     0.24914    
         TOTAL TIME 7.88832E+07 1.31472E+06  21912.      913.00      2.4997    
1
1
                            STRESS PERIOD NO.   11, LENGTH =   91.00000    
                            -----------------------------------------------

                              NUMBER OF TIME STEPS =     1

                               MULTIPLIER FOR DELT =     1.500

                            INITIAL TIME STEP SIZE =   91.00000    

 WELL NO.  LAYER   ROW   COL   STRESS RATE         
 --------------------------------------------------
      1      1     12     22      -9012.    
      2      1     10     16      -9566.    
      3      1      6     24     -0.1330E+05
      4      1      6     17      -7129.    

      4 WELLS

                 RECHARGE =   0.00000    

 REUSING STREAM SEGMENT DATA FROM LAST STRESS PERIOD
 
 SOLVING FOR HEAD 


     7 CALLS TO PCG ROUTINE FOR TIME STEP   1 IN STRESS PERIOD   11
    26 TOTAL ITERATIONS

 OUTPUT CONTROL FOR STRESS PERIOD   11   TIME STEP    1
    SAVE BUDGET
    SAVE HEAD FOR ALL LAYERS
    PRINT HEAD FOR ALL LAYERS
 UBDSV2 SAVING "STREAMFLOW OUT  " ON UNIT  50 AT TIME STEP  1, STRESS PERIOD  11



 STREAM LISTING     PERIOD     11   STEP        1

 LAYER ROW COL. STREAM  RCH.  FLOW INTO     FLOW TO   FLOW OUT OF   OVRLND.     DIRECT     STREAM       STREAM     STREAM     STREAM   STREAMBED  STREAMBED
                SEG.NO.  NO.  STRM. RCH.    AQUIFER    STRM. RCH.    RUNOFF     PRECIP       ET          HEAD       DEPTH      WIDTH   CONDCTNC.   GRADIENT

   1   13    1     1     1    1.0000E+05 -1.3309E+03   1.0133E+05  0.000E+00  0.000E+00  0.000E+00  4.84066E+01  1.452E-01  2.000E+01  2.000E+04 -6.654E-02
   1   13    2     1     2    1.0133E+05 -2.2338E+03   1.0356E+05  0.000E+00  0.000E+00  0.000E+00  4.79309E+01  1.468E-01  2.000E+01  2.000E+04 -1.117E-01
   1   14    3     1     3    1.0356E+05 -3.3925E+02   1.0390E+05  0.000E+00  0.000E+00  0.000E+00  4.74547E+01  1.479E-01  2.000E+01  2.000E+04 -1.696E-02
   1   15    4     1     4    1.0390E+05 -3.1935E+02   1.0422E+05  0.000E+00  0.000E+00  0.000E+00  4.69777E+01  1.482E-01  2.000E+01  2.000E+04 -1.597E-02
   1   16    5     1     5    1.0422E+05 -1.4058E+03   1.0563E+05  0.000E+00  0.000E+00  0.000E+00  4.65012E+01  1.489E-01  2.000E+01  2.000E+04 -7.029E-02
   1   16    6     1     6    1.0563E+05 -8.8307E+02   1.0651E+05  0.000E+00  0.000E+00  0.000E+00  4.60249E+01  1.499E-01  2.000E+01  2.000E+04 -4.415E-02
   1   16    7     1     7    1.0651E+05 -8.6869E+02   1.0738E+05  0.000E+00  0.000E+00  0.000E+00  4.55483E+01  1.506E-01  2.000E+01  2.000E+04 -4.343E-02
   1   16    8     1     8    1.0738E+05 -8.6797E+02   1.0825E+05  0.000E+00  0.000E+00  0.000E+00  4.50718E+01  1.513E-01  2.000E+01  2.000E+04 -4.340E-02
   1   16    9     1     9    1.0825E+05 -8.6565E+02   1.0911E+05  0.000E+00  0.000E+00  0.000E+00  4.45952E+01  1.521E-01  2.000E+01  2.000E+04 -4.328E-02
   1   16   10     1    10    1.0911E+05 -8.6266E+02   1.0998E+05  0.000E+00  0.000E+00  0.000E+00  4.41187E+01  1.528E-01  2.000E+01  2.000E+04 -4.313E-02
   1   16   11     1    11    1.0998E+05 -8.7701E+02   1.1085E+05  0.000E+00  0.000E+00  0.000E+00  4.36421E+01  1.535E-01  2.000E+01  2.000E+04 -4.385E-02
   1   16   12     1    12    1.1085E+05 -1.4226E+03   1.1228E+05  0.000E+00  0.000E+00  0.000E+00  4.31658E+01  1.545E-01  2.000E+01  2.000E+04 -7.113E-02
   1   15   13     1    13    1.1228E+05 -9.7987E+02   1.1326E+05  0.000E+00  0.000E+00  0.000E+00  4.26896E+01  1.555E-01  2.000E+01  2.000E+04 -4.899E-02
   1   14   14     1    14    1.1326E+05 -8.4927E+02   1.1411E+05  0.000E+00  0.000E+00  0.000E+00  4.22130E+01  1.562E-01  2.000E+01  2.000E+04 -4.246E-02
   1   13   15     1    15    1.1411E+05 -4.6922E+02   1.1458E+05  0.000E+00  0.000E+00  0.000E+00  4.17363E+01  1.568E-01  2.000E+01  2.000E+04 -2.346E-02
   1   12   16     1    16    1.1458E+05  1.0519E+03   1.1352E+05  0.000E+00  0.000E+00  0.000E+00  4.12588E+01  1.565E-01  2.000E+01  2.000E+04  5.260E-02
   1   12   17     1    17    1.1352E+05  5.0699E+02   1.1302E+05  0.000E+00  0.000E+00  0.000E+00  4.07809E+01  1.559E-01  2.000E+01  2.000E+04  2.535E-02
   1   12   18     1    18    1.1302E+05  2.1465E+02   1.1280E+05  0.000E+00  0.000E+00  0.000E+00  4.03033E+01  1.556E-01  2.000E+01  2.000E+04  1.073E-02
   1   12   19     1    19    1.1280E+05  6.9432E+02   1.1211E+05  0.000E+00  0.000E+00  0.000E+00  3.98257E+01  1.552E-01  2.000E+01  2.000E+04  3.472E-02
   1   13   20     1    20    1.1211E+05  5.6406E+02   1.1154E+05  0.000E+00  0.000E+00  0.000E+00  3.93479E+01  1.547E-01  2.000E+01  2.000E+04  2.820E-02
   1   14   21     1    21    1.1154E+05 -4.1210E+02   1.1196E+05  0.000E+00  0.000E+00  0.000E+00  3.88705E+01  1.546E-01  2.000E+01  2.000E+04 -2.061E-02
   1   14   22     1    22    1.1196E+05  5.5630E+03   1.0639E+05  0.000E+00  0.000E+00  0.000E+00  3.83911E+01  1.525E-01  2.000E+01  2.000E+04  2.781E-01
   1    9   30     2     1    5.0000E+04  3.4181E+02   4.9658E+04  0.000E+00  0.000E+00  0.000E+00  4.02406E+01  1.156E-01  2.000E+01  2.000E+04  1.709E-02
   1    9   29     2     2    4.9658E+04  1.4263E+02   4.9516E+04  0.000E+00  0.000E+00  0.000E+00  3.99903E+01  1.153E-01  2.000E+01  2.000E+04  7.132E-03
   1    9   28     2     3    4.9516E+04  1.4506E+02   4.9370E+04  0.000E+00  0.000E+00  0.000E+00  3.97401E+01  1.151E-01  2.000E+01  2.000E+04  7.253E-03
   1    9   27     2     4    4.9370E+04  4.3787E+02   4.8933E+04  0.000E+00  0.000E+00  0.000E+00  3.94897E+01  1.147E-01  2.000E+01  2.000E+04  2.189E-02
   1   10   26     2     5    4.8933E+04  7.7642E+02   4.8156E+04  0.000E+00  0.000E+00  0.000E+00  3.92388E+01  1.138E-01  2.000E+01  2.000E+04  3.882E-02
   1   11   25     2     6    4.8156E+04  9.0297E+02   4.7253E+04  0.000E+00  0.000E+00  0.000E+00  3.89876E+01  1.126E-01  2.000E+01  2.000E+04  4.515E-02
   1   12   24     2     7    4.7253E+04  1.8923E+03   4.5361E+04  0.000E+00  0.000E+00  0.000E+00  3.87357E+01  1.107E-01  2.000E+01  2.000E+04  9.461E-02
   1   13   23     2     8    4.5361E+04  5.5329E+02   4.4808E+04  0.000E+00  0.000E+00  0.000E+00  3.84839E+01  1.089E-01  2.000E+01  2.000E+04  2.766E-02
   1   14   22     2     9    4.4808E+04  2.3758E+03   4.2432E+04  0.000E+00  0.000E+00  0.000E+00  3.82318E+01  1.068E-01  2.000E+01  2.000E+04  1.188E-01
   1   14   22     3     1    1.4882E+05 -8.0515E+03   1.5688E+05  0.000E+00  0.000E+00  0.000E+00  3.77104E+01  1.548E-01  2.000E+01  2.000E+04 -4.026E-01
   1   15   23     3     2    1.5688E+05 -4.7003E+02   1.5735E+05  0.000E+00  0.000E+00  0.000E+00  3.68241E+01  1.574E-01  2.000E+01  2.000E+04 -2.350E-02
   1   15   24     3     3    1.5735E+05 -2.1548E+02   1.5756E+05  0.000E+00  0.000E+00  0.000E+00  3.59354E+01  1.576E-01  2.000E+01  2.000E+04 -1.077E-02
   1   15   25     3     4    1.5756E+05 -2.0638E+02   1.5777E+05  0.000E+00  0.000E+00  0.000E+00  3.50466E+01  1.577E-01  2.000E+01  2.000E+04 -1.032E-02
   1   15   26     3     5    1.5777E+05 -2.5276E+02   1.5802E+05  0.000E+00  0.000E+00  0.000E+00  3.41579E+01  1.579E-01  2.000E+01  2.000E+04 -1.264E-02
   1   16   27     3     6    1.5802E+05 -2.7515E+02   1.5830E+05  0.000E+00  0.000E+00  0.000E+00  3.32691E+01  1.580E-01  2.000E+01  2.000E+04 -1.376E-02
   1   17   28     3     7    1.5830E+05 -1.3226E+03   1.5962E+05  0.000E+00  0.000E+00  0.000E+00  3.23807E+01  1.585E-01  2.000E+01  2.000E+04 -6.613E-02
   1   18   29     3     8    1.5962E+05 -2.6827E+03   1.6230E+05  0.000E+00  0.000E+00  0.000E+00  3.14930E+01  1.597E-01  2.000E+01  2.000E+04 -1.341E-01
   1   18   30     3     9    1.6230E+05 -2.9980E+03   1.6530E+05  0.000E+00  0.000E+00  0.000E+00  3.06058E+01  1.614E-01  2.000E+01  2.000E+04 -1.499E-01



1
              HEAD IN LAYER   1 AT END OF TIME STEP   1 IN STRESS PERIOD   11
  ---------------------------------------------------------------------------

          1      2      3      4      5      6      7      8      9     10
         11     12     13     14     15     16     17     18     19     20
         21     22     23     24     25     26     27     28     29     30
 .........................................................................
   1  ****** ****** ****** ****** ****** ****** ****** ****** ****** ******
      ****** ****** ****** ****** ****** ****** ****** ****** ****** ******
      ****** ****** ****** ****** ****** ****** ****** ****** ****** ******
   2  ****** ****** ****** ****** ****** ****** ****** ****** ****** ******
      ****** ****** ****** ****** ****** ****** ****** ****** ****** ******
      ****** ****** ****** ****** ****** ****** ****** ****** ****** ******
   3  ****** ****** ****** ****** ****** ****** ****** ****** ****** ******
      ****** ****** ****** ****** ****** ****** ****** ****** ****** ******
      ****** ****** ****** ****** ****** ****** ****** ****** ****** ******
   4  ****** ****** ****** ****** ****** ****** ****** ****** ****** ******
      ****** ****** ****** ****** ****** ****** ****** ****** ****** ******
      ****** ****** ****** ****** ****** ****** ****** ****** ****** ******
   5  ****** ****** ****** ****** ****** ****** ****** ****** ****** ******
      ****** ****** ****** ****** ****** ****** ****** ****** ****** ******
      ****** ****** ****** ****** ****** ****** ****** ****** ****** ******
   6  ****** ****** ****** ****** ****** ****** ****** ****** ****** ******
      ****** ****** ****** ****** ****** ****** ****** ****** ****** ******
      ****** ****** ****** ****** ****** ****** ****** ****** ****** ******
   7  ****** ****** ****** ****** ****** ****** ****** ****** ****** ******
      ****** ****** ****** ****** ****** ****** ****** ****** ****** ******
      ****** ****** ****** ****** ****** ****** ****** ****** ****** ******
   8  ****** ****** ****** ****** ****** ****** ****** ****** ****** ******
      ****** ****** ****** ****** ****** ****** ****** ****** ****** ******
      ****** ****** ****** ****** ****** ****** ****** ****** ****** ******
   9  ****** ****** ****** ****** ****** ****** ****** ****** ****** ******
      ****** ****** ****** ****** ****** ****** ****** ****** ****** ******
      ****** ****** ****** ****** ****** ****** ****** ****** ****** ******
  10  ****** ****** ****** ****** ****** ****** ****** ****** ****** ******
      ****** ****** ****** ****** ****** ****** ****** ****** ****** ******
      ****** ****** ****** ****** ****** ****** ****** ****** ****** ******
  11  ****** ****** ****** ****** ****** ****** ****** ****** ****** ******
      ****** ****** ****** ****** ****** ****** ****** ****** ****** ******
      ****** ****** ****** ****** ****** ****** ****** ****** ****** ******
  12  ****** ****** ****** ****** ****** ****** ****** ****** ****** ******
      ****** ****** ****** ****** ****** ****** ****** ****** ****** ******
      ****** ****** ****** ****** ****** ****** ****** ****** ****** ******
  13  ****** ****** ****** ****** ****** ****** ****** ****** ****** ******
      ****** ****** ****** ****** ****** ****** ****** ****** ****** ******
      ****** ****** ****** ****** ****** ****** ****** ****** ****** ******
  14  ****** ****** ****** ****** ****** ****** ****** ****** ****** ******
      ****** ****** ****** ****** ****** ****** ****** ****** ****** ******
      ****** ****** ****** ****** ****** ****** ****** ****** ****** ******
  15  ****** ****** ****** ****** ****** ****** ****** ****** ****** ******
      ****** ****** ****** ****** ****** ****** ****** ****** ****** ******
      ****** ****** ****** ****** ****** ****** ****** ****** ****** ******
  16  ****** ****** ****** ****** ****** ****** ****** ****** ****** ******
      ****** ****** ****** ****** ****** ****** ****** ****** ****** ******
      ****** ****** ****** ****** ****** ****** ****** ****** ****** ******
  17  ****** ****** ****** ****** ****** ****** ****** ****** ****** ******
      ****** ****** ****** ****** ****** ****** ****** ****** ****** ******
      ****** ****** ****** ****** ****** ****** ****** ****** ****** ******
  18  ****** ****** ****** ****** ****** ****** ****** ****** ****** ******
      ****** ****** ****** ****** ****** ****** ****** ****** ****** ******
      ****** ****** ****** ****** ****** ****** ****** ****** ****** ******
  19  ****** ****** ****** ****** ****** ****** ****** ****** ****** ******
      ****** ****** ****** ****** ****** ****** ****** ****** ****** ******
      ****** ****** ****** ****** ****** ****** ****** ****** ****** ******
  20  ****** ****** ****** ****** ****** ****** ****** ****** ****** ******
      ****** ****** ****** ****** ****** ****** ****** ****** ****** ******
      ****** ****** ****** ****** ****** ****** ****** ****** ****** ******
  21  ****** ****** ****** ****** ****** ****** ****** ****** ****** ******
      ****** ****** ****** ****** ****** ****** ****** ****** ****** ******
      ****** ****** ****** ****** ****** ****** ****** ****** ****** ******
  22  ****** ****** ****** ****** ****** ****** ****** ****** ****** ******
      ****** ****** ****** ****** ****** ****** ****** ****** ****** ******
      ****** ****** ****** ****** ****** ****** ****** ****** ****** ******
  23  ****** ****** ****** ****** ****** ****** ****** ****** ****** ******
      ****** ****** ****** ****** ****** ****** ****** ****** ****** ******
      ****** ****** ****** ****** ****** ****** ****** ****** ****** ******
  24  ****** ****** ****** ****** ****** ****** ****** ****** ****** ******
      ****** ****** ****** ****** ****** ****** ****** ****** ****** ******
      ****** ****** ****** ****** ****** ****** ****** ****** ****** ******
  25  ****** ****** ****** ****** ****** ****** ****** ****** ****** ******
      ****** ****** ****** ****** ****** ****** ****** ****** ****** ******
      ****** ****** ****** ****** ****** ****** ****** ****** ****** ******

 HEAD WILL BE SAVED ON UNIT   51 AT END OF TIME STEP    1, STRESS PERIOD   11
1
  VOLUMETRIC BUDGET FOR ENTIRE MODEL AT END OF TIME STEP    1, STRESS PERIOD  11
  ------------------------------------------------------------------------------

     CUMULATIVE VOLUMES      L**3       RATES FOR THIS TIME STEP      L**3/T
     ------------------                 ------------------------

           IN:                                      IN:
           ---                                      ---
             STORAGE =    36707691.8167               STORAGE =       18065.5252
       CONSTANT HEAD =    29749247.5931         CONSTANT HEAD =       36239.5996
               WELLS =           0.0000                 WELLS =           0.0000
            RECHARGE =    23901600.0000              RECHARGE =           0.0000
      STREAM LEAKAGE =    10949425.4228        STREAM LEAKAGE =       16163.0629

            TOTAL IN =   101307964.8326              TOTAL IN =       70468.1878

          OUT:                                     OUT:
          ----                                     ----
             STORAGE =     2292223.2529               STORAGE =           0.0000
       CONSTANT HEAD =           0.0000         CONSTANT HEAD =           0.0000
               WELLS =    39162483.8492                 WELLS =       39006.4580
            RECHARGE =           0.0000              RECHARGE =           0.0000
      STREAM LEAKAGE =    59853259.7644        STREAM LEAKAGE =       31461.7347

           TOTAL OUT =   101307966.8664             TOTAL OUT =       70468.1927

            IN - OUT =          -2.0339              IN - OUT =      -4.9739E-03

 PERCENT DISCREPANCY =          -0.00     PERCENT DISCREPANCY =          -0.00






         TIME SUMMARY AT END OF TIME STEP    1 IN STRESS PERIOD   11
                    SECONDS     MINUTES      HOURS       DAYS        YEARS
                    -----------------------------------------------------------
   TIME STEP LENGTH 7.86240E+06 1.31040E+05  2184.0      91.000     0.24914    
 STRESS PERIOD TIME 7.86240E+06 1.31040E+05  2184.0      91.000     0.24914    
         TOTAL TIME 8.67456E+07 1.44576E+06  24096.      1004.0      2.7488    
1
1
                            STRESS PERIOD NO.   12, LENGTH =   91.00000    
                            -----------------------------------------------

                              NUMBER OF TIME STEPS =     1

                               MULTIPLIER FOR DELT =     1.500

                            INITIAL TIME STEP SIZE =   91.00000    

 WELL NO.  LAYER   ROW   COL   STRESS RATE         
 --------------------------------------------------
      1      1     12     22      -9012.    
      2      1     10     16      -9566.    
      3      1      6     24     -0.1330E+05
      4      1      6     17      -7129.    

      4 WELLS

                 RECHARGE =  1.000000E-03

 REUSING STREAM SEGMENT DATA FROM LAST STRESS PERIOD
 
 SOLVING FOR HEAD 


     7 CALLS TO PCG ROUTINE FOR TIME STEP   1 IN STRESS PERIOD   12
    24 TOTAL ITERATIONS

 OUTPUT CONTROL FOR STRESS PERIOD   12   TIME STEP    1
    SAVE BUDGET
    SAVE HEAD FOR ALL LAYERS
    PRINT HEAD FOR ALL LAYERS
 UBDSV2 SAVING "STREAMFLOW OUT  " ON UNIT  50 AT TIME STEP  1, STRESS PERIOD  12



 STREAM LISTING     PERIOD     12   STEP        1

 LAYER ROW COL. STREAM  RCH.  FLOW INTO     FLOW TO   FLOW OUT OF   OVRLND.     DIRECT     STREAM       STREAM     STREAM     STREAM   STREAMBED  STREAMBED
                SEG.NO.  NO.  STRM. RCH.    AQUIFER    STRM. RCH.    RUNOFF     PRECIP       ET          HEAD       DEPTH      WIDTH   CONDCTNC.   GRADIENT

   1   13    1     1     1    1.0000E+05 -1.4719E+03   1.0147E+05  0.000E+00  0.000E+00  0.000E+00  4.84067E+01  1.453E-01  2.000E+01  2.000E+04 -7.360E-02
   1   13    2     1     2    1.0147E+05 -2.3851E+03   1.0386E+05  0.000E+00  0.000E+00  0.000E+00  4.79310E+01  1.470E-01  2.000E+01  2.000E+04 -1.193E-01
   1   14    3     1     3    1.0386E+05 -4.1723E+02   1.0427E+05  0.000E+00  0.000E+00  0.000E+00  4.74550E+01  1.482E-01  2.000E+01  2.000E+04 -2.086E-02
   1   15    4     1     4    1.0427E+05 -4.0126E+02   1.0468E+05  0.000E+00  0.000E+00  0.000E+00  4.69780E+01  1.485E-01  2.000E+01  2.000E+04 -2.006E-02
   1   16    5     1     5    1.0468E+05 -1.6154E+03   1.0629E+05  0.000E+00  0.000E+00  0.000E+00  4.65016E+01  1.494E-01  2.000E+01  2.000E+04 -8.077E-02
   1   16    6     1     6    1.0629E+05 -1.0132E+03   1.0730E+05  0.000E+00  0.000E+00  0.000E+00  4.60255E+01  1.505E-01  2.000E+01  2.000E+04 -5.066E-02
   1   16    7     1     7    1.0730E+05 -9.9368E+02   1.0830E+05  0.000E+00  0.000E+00  0.000E+00  4.55490E+01  1.513E-01  2.000E+01  2.000E+04 -4.968E-02
   1   16    8     1     8    1.0830E+05 -9.9193E+02   1.0929E+05  0.000E+00  0.000E+00  0.000E+00  4.50726E+01  1.522E-01  2.000E+01  2.000E+04 -4.960E-02
   1   16    9     1     9    1.0929E+05 -9.9010E+02   1.1028E+05  0.000E+00  0.000E+00  0.000E+00  4.45962E+01  1.530E-01  2.000E+01  2.000E+04 -4.951E-02
   1   16   10     1    10    1.1028E+05 -9.8854E+02   1.1127E+05  0.000E+00  0.000E+00  0.000E+00  4.41197E+01  1.538E-01  2.000E+01  2.000E+04 -4.943E-02
   1   16   11     1    11    1.1127E+05 -1.0052E+03   1.1227E+05  0.000E+00  0.000E+00  0.000E+00  4.36433E+01  1.546E-01  2.000E+01  2.000E+04 -5.026E-02
   1   16   12     1    12    1.1227E+05 -1.6240E+03   1.1390E+05  0.000E+00  0.000E+00  0.000E+00  4.31671E+01  1.557E-01  2.000E+01  2.000E+04 -8.120E-02
   1   15   13     1    13    1.1390E+05 -1.1958E+03   1.1509E+05  0.000E+00  0.000E+00  0.000E+00  4.26910E+01  1.569E-01  2.000E+01  2.000E+04 -5.979E-02
   1   14   14     1    14    1.1509E+05 -1.0653E+03   1.1616E+05  0.000E+00  0.000E+00  0.000E+00  4.22146E+01  1.578E-01  2.000E+01  2.000E+04 -5.326E-02
   1   13   15     1    15    1.1616E+05 -6.7749E+02   1.1684E+05  0.000E+00  0.000E+00  0.000E+00  4.17381E+01  1.585E-01  2.000E+01  2.000E+04 -3.387E-02
   1   12   16     1    16    1.1684E+05  8.7089E+02   1.1597E+05  0.000E+00  0.000E+00  0.000E+00  4.12607E+01  1.585E-01  2.000E+01  2.000E+04  4.354E-02
   1   12   17     1    17    1.1597E+05  3.5471E+02   1.1561E+05  0.000E+00  0.000E+00  0.000E+00  4.07830E+01  1.580E-01  2.000E+01  2.000E+04  1.774E-02
   1   12   18     1    18    1.1561E+05  5.9981E+01   1.1555E+05  0.000E+00  0.000E+00  0.000E+00  4.03055E+01  1.578E-01  2.000E+01  2.000E+04  2.999E-03
   1   12   19     1    19    1.1555E+05  5.0306E+02   1.1505E+05  0.000E+00  0.000E+00  0.000E+00  3.98280E+01  1.576E-01  2.000E+01  2.000E+04  2.515E-02
   1   13   20     1    20    1.1505E+05  3.5407E+02   1.1469E+05  0.000E+00  0.000E+00  0.000E+00  3.93504E+01  1.572E-01  2.000E+01  2.000E+04  1.770E-02
   1   14   21     1    21    1.1469E+05 -6.0631E+02   1.1530E+05  0.000E+00  0.000E+00  0.000E+00  3.88732E+01  1.573E-01  2.000E+01  2.000E+04 -3.032E-02
   1   14   22     1    22    1.1530E+05  5.5089E+03   1.0979E+05  0.000E+00  0.000E+00  0.000E+00  3.83939E+01  1.553E-01  2.000E+01  2.000E+04  2.754E-01
   1    9   30     2     1    5.0000E+04  1.6570E+02   4.9834E+04  0.000E+00  0.000E+00  0.000E+00  4.02408E+01  1.158E-01  2.000E+01  2.000E+04  8.285E-03
   1    9   29     2     2    4.9834E+04 -3.1398E+01   4.9866E+04  0.000E+00  0.000E+00  0.000E+00  3.99907E+01  1.157E-01  2.000E+01  2.000E+04 -1.570E-03
   1    9   28     2     3    4.9866E+04 -2.5383E+01   4.9891E+04  0.000E+00  0.000E+00  0.000E+00  3.97407E+01  1.157E-01  2.000E+01  2.000E+04 -1.269E-03
   1    9   27     2     4    4.9891E+04  2.2957E+02   4.9662E+04  0.000E+00  0.000E+00  0.000E+00  3.94906E+01  1.156E-01  2.000E+01  2.000E+04  1.148E-02
   1   10   26     2     5    4.9662E+04  5.4732E+02   4.9114E+04  0.000E+00  0.000E+00  0.000E+00  3.92400E+01  1.150E-01  2.000E+01  2.000E+04  2.737E-02
   1   11   25     2     6    4.9114E+04  6.7774E+02   4.8436E+04  0.000E+00  0.000E+00  0.000E+00  3.89892E+01  1.142E-01  2.000E+01  2.000E+04  3.389E-02
   1   12   24     2     7    4.8436E+04  1.6868E+03   4.6750E+04  0.000E+00  0.000E+00  0.000E+00  3.87375E+01  1.125E-01  2.000E+01  2.000E+04  8.434E-02
   1   13   23     2     8    4.6750E+04  4.7579E+02   4.6274E+04  0.000E+00  0.000E+00  0.000E+00  3.84859E+01  1.109E-01  2.000E+01  2.000E+04  2.379E-02
   1   14   22     2     9    4.6274E+04  2.3093E+03   4.3965E+04  0.000E+00  0.000E+00  0.000E+00  3.82339E+01  1.089E-01  2.000E+01  2.000E+04  1.155E-01
   1   14   22     3     1    1.5376E+05 -8.1019E+03   1.6186E+05  0.000E+00  0.000E+00  0.000E+00  3.77134E+01  1.578E-01  2.000E+01  2.000E+04 -4.051E-01
   1   15   23     3     2    1.6186E+05 -5.4212E+02   1.6240E+05  0.000E+00  0.000E+00  0.000E+00  3.68271E+01  1.604E-01  2.000E+01  2.000E+04 -2.711E-02
   1   15   24     3     3    1.6240E+05 -2.8060E+02   1.6268E+05  0.000E+00  0.000E+00  0.000E+00  3.59384E+01  1.606E-01  2.000E+01  2.000E+04 -1.403E-02
   1   15   25     3     4    1.6268E+05 -2.7277E+02   1.6295E+05  0.000E+00  0.000E+00  0.000E+00  3.50497E+01  1.608E-01  2.000E+01  2.000E+04 -1.364E-02
   1   15   26     3     5    1.6295E+05 -3.3025E+02   1.6328E+05  0.000E+00  0.000E+00  0.000E+00  3.41610E+01  1.610E-01  2.000E+01  2.000E+04 -1.651E-02
   1   16   27     3     6    1.6328E+05 -3.6197E+02   1.6365E+05  0.000E+00  0.000E+00  0.000E+00  3.32723E+01  1.612E-01  2.000E+01  2.000E+04 -1.810E-02
   1   17   28     3     7    1.6365E+05 -1.5435E+03   1.6519E+05  0.000E+00  0.000E+00  0.000E+00  3.23840E+01  1.618E-01  2.000E+01  2.000E+04 -7.717E-02
   1   18   29     3     8    1.6519E+05 -2.8836E+03   1.6807E+05  0.000E+00  0.000E+00  0.000E+00  3.14964E+01  1.631E-01  2.000E+01  2.000E+04 -1.442E-01
   1   18   30     3     9    1.6807E+05 -3.1664E+03   1.7124E+05  0.000E+00  0.000E+00  0.000E+00  3.06093E+01  1.648E-01  2.000E+01  2.000E+04 -1.583E-01



1
              HEAD IN LAYER   1 AT END OF TIME STEP   1 IN STRESS PERIOD   12
  ---------------------------------------------------------------------------

          1      2      3      4      5      6      7      8      9     10
         11     12     13     14     15     16     17     18     19     20
         21     22     23     24     25     26     27     28     29     30
 .........................................................................
   1  ****** ****** ****** ****** ****** ****** ****** ****** ****** ******
      ****** ****** ****** ****** ****** ****** ****** ****** ****** ******
      ****** ****** ****** ****** ****** ****** ****** ****** ****** ******
   2  ****** ****** ****** ****** ****** ****** ****** ****** ****** ******
      ****** ****** ****** ****** ****** ****** ****** ****** ****** ******
      ****** ****** ****** ****** ****** ****** ****** ****** ****** ******
   3  ****** ****** ****** ****** ****** ****** ****** ****** ****** ******
      ****** ****** ****** ****** ****** ****** ****** ****** ****** ******
      ****** ****** ****** ****** ****** ****** ****** ****** ****** ******
   4  ****** ****** ****** ****** ****** ****** ****** ****** ****** ******
      ****** ****** ****** ****** ****** ****** ****** ****** ****** ******
      ****** ****** ****** ****** ****** ****** ****** ****** ****** ******
   5  ****** ****** ****** ****** ****** ****** ****** ****** ****** ******
      ****** ****** ****** ****** ****** ****** ****** ****** ****** ******
      ****** ****** ****** ****** ****** ****** ****** ****** ****** ******
   6  ****** ****** ****** ****** ****** ****** ****** ****** ****** ******
      ****** ****** ****** ****** ****** ****** ****** ****** ****** ******
      ****** ****** ****** ****** ****** ****** ****** ****** ****** ******
   7  ****** ****** ****** ****** ****** ****** ****** ****** ****** ******
      ****** ****** ****** ****** ****** ****** ****** ****** ****** ******
      ****** ****** ****** ****** ****** ****** ****** ****** ****** ******
   8  ****** ****** ****** ****** ****** ****** ****** ****** ****** ******
      ****** ****** ****** ****** ****** ****** ****** ****** ****** ******
      ****** ****** ****** ****** ****** ****** ****** ****** ****** ******
   9  ****** ****** ****** ****** ****** ****** ****** ****** ****** ******
      ****** ****** ****** ****** ****** ****** ****** ****** ****** ******
      ****** ****** ****** ****** ****** ****** ****** ****** ****** ******
  10  ****** ****** ****** ****** ****** ****** ****** ****** ****** ******
      ****** ****** ****** ****** ****** ****** ****** ****** ****** ******
      ****** ****** ****** ****** ****** ****** ****** ****** ****** ******
  11  ****** ****** ****** ****** ****** ****** ****** ****** ****** ******
      ****** ****** ****** ****** ****** ****** ****** ****** ****** ******
      ****** ****** ****** ****** ****** ****** ****** ****** ****** ******
  12  ****** ****** ****** ****** ****** ****** ****** ****** ****** ******
      ****** ****** ****** ****** ****** ****** ****** ****** ****** ******
      ****** ****** ****** ****** ****** ****** ****** ****** ****** ******
  13  ****** ****** ****** ****** ****** ****** ****** ****** ****** ******
      ****** ****** ****** ****** ****** ****** ****** ****** ****** ******
      ****** ****** ****** ****** ****** ****** ****** ****** ****** ******
  14  ****** ****** ****** ****** ****** ****** ****** ****** ****** ******
      ****** ****** ****** ****** ****** ****** ****** ****** ****** ******
      ****** ****** ****** ****** ****** ****** ****** ****** ****** ******
  15  ****** ****** ****** ****** ****** ****** ****** ****** ****** ******
      ****** ****** ****** ****** ****** ****** ****** ****** ****** ******
      ****** ****** ****** ****** ****** ****** ****** ****** ****** ******
  16  ****** ****** ****** ****** ****** ****** ****** ****** ****** ******
      ****** ****** ****** ****** ****** ****** ****** ****** ****** ******
      ****** ****** ****** ****** ****** ****** ****** ****** ****** ******
  17  ****** ****** ****** ****** ****** ****** ****** ****** ****** ******
      ****** ****** ****** ****** ****** ****** ****** ****** ****** ******
      ****** ****** ****** ****** ****** ****** ****** ****** ****** ******
  18  ****** ****** ****** ****** ****** ****** ****** ****** ****** ******
      ****** ****** ****** ****** ****** ****** ****** ****** ****** ******
      ****** ****** ****** ****** ****** ****** ****** ****** ****** ******
  19  ****** ****** ****** ****** ****** ****** ****** ****** ****** ******
      ****** ****** ****** ****** ****** ****** ****** ****** ****** ******
      ****** ****** ****** ****** ****** ****** ****** ****** ****** ******
  20  ****** ****** ****** ****** ****** ****** ****** ****** ****** ******
      ****** ****** ****** ****** ****** ****** ****** ****** ****** ******
      ****** ****** ****** ****** ****** ****** ****** ****** ****** ******
  21  ****** ****** ****** ****** ****** ****** ****** ****** ****** ******
      ****** ****** ****** ****** ****** ****** ****** ****** ****** ******
      ****** ****** ****** ****** ****** ****** ****** ****** ****** ******
  22  ****** ****** ****** ****** ****** ****** ****** ****** ****** ******
      ****** ****** ****** ****** ****** ****** ****** ****** ****** ******
      ****** ****** ****** ****** ****** ****** ****** ****** ****** ******
  23  ****** ****** ****** ****** ****** ****** ****** ****** ****** ******
      ****** ****** ****** ****** ****** ****** ****** ****** ****** ******
      ****** ****** ****** ****** ****** ****** ****** ****** ****** ******
  24  ****** ****** ****** ****** ****** ****** ****** ****** ****** ******
      ****** ****** ****** ****** ****** ****** ****** ****** ****** ******
      ****** ****** ****** ****** ****** ****** ****** ****** ****** ******
  25  ****** ****** ****** ****** ****** ****** ****** ****** ****** ******
      ****** ****** ****** ****** ****** ****** ****** ****** ****** ******
      ****** ****** ****** ****** ****** ****** ****** ****** ****** ******

 HEAD WILL BE SAVED ON UNIT   51 AT END OF TIME STEP    1, STRESS PERIOD   12
1
  VOLUMETRIC BUDGET FOR ENTIRE MODEL AT END OF TIME STEP    1, STRESS PERIOD  12
  ------------------------------------------------------------------------------

     CUMULATIVE VOLUMES      L**3       RATES FOR THIS TIME STEP      L**3/T
     ------------------                 ------------------------

           IN:                                      IN:
           ---                                      ---
             STORAGE =    36710556.0276               STORAGE =          31.4748
       CONSTANT HEAD =    32984609.5951         CONSTANT HEAD =       35553.4286
               WELLS =           0.0000                 WELLS =           0.0000
            RECHARGE =    26413200.0000              RECHARGE =       27600.0000
      STREAM LEAKAGE =    12200110.0894        STREAM LEAKAGE =       13743.7875

            TOTAL IN =   108308475.7122              TOTAL IN =       76928.6910

          OUT:                                     OUT:
          ----                                     ----
             STORAGE =     2559743.4236               STORAGE =        2939.7821
       CONSTANT HEAD =           0.0000         CONSTANT HEAD =           0.0000
               WELLS =    42712071.5287                 WELLS =       39006.4580
            RECHARGE =           0.0000              RECHARGE =           0.0000
      STREAM LEAKAGE =    63036662.7121        STREAM LEAKAGE =       34982.4500

           TOTAL OUT =   108308477.6644             TOTAL OUT =       76928.6901

            IN - OUT =          -1.9523              IN - OUT =       8.9655E-04

 PERCENT DISCREPANCY =          -0.00     PERCENT DISCREPANCY =           0.00






         TIME SUMMARY AT END OF TIME STEP    1 IN STRESS PERIOD   12
                    SECONDS     MINUTES      HOURS       DAYS        YEARS
                    -----------------------------------------------------------
   TIME STEP LENGTH 7.86240E+06 1.31040E+05  2184.0      91.000     0.24914    
 STRESS PERIOD TIME 7.86240E+06 1.31040E+05  2184.0      91.000     0.24914    
         TOTAL TIME 9.46080E+07 1.57680E+06  26280.      1095.0      2.9979    
1

 Run end date and time (yyyy/mm/dd hh:mm:ss): 2018/10/14 22:17:45
 Elapsed run time:  0.074 Seconds

