                                  MODFLOW-2005     
      U.S. GEOLOGICAL SURVEY MODULAR FINITE-DIFFERENCE GROUND-WATER FLOW MODEL
                            VERSION 1.11.00 8/8/2013

 LIST FILE: supply2.lst
                         UNIT   10

 OPENING ..\data\supply.dis
 FILE TYPE:DIS   UNIT   11   STATUS:OLD    
 FORMAT:FORMATTED              ACCESS:SEQUENTIAL          

 OPENING ..\data\supply.ba6
 FILE TYPE:BAS6   UNIT   12   STATUS:OLD    
 FORMAT:FORMATTED              ACCESS:SEQUENTIAL          

 OPENING ..\data\supply_het.bc6
 FILE TYPE:BCF6   UNIT   13   STATUS:OLD    
 FORMAT:FORMATTED              ACCESS:SEQUENTIAL          

 OPENING ..\data\supply.rch
 FILE TYPE:RCH   UNIT   15   STATUS:OLD    
 FORMAT:FORMATTED              ACCESS:SEQUENTIAL          

 OPENING ..\data\supply2.sfr
 FILE TYPE:SFR   UNIT   16   STATUS:OLD    
 FORMAT:FORMATTED              ACCESS:SEQUENTIAL          

 OPENING ..\data\supply.oc
 FILE TYPE:OC   UNIT   17   STATUS:OLD    
 FORMAT:FORMATTED              ACCESS:SEQUENTIAL          

 OPENING ..\data\supply.pcg
 FILE TYPE:PCG   UNIT   18   STATUS:OLD    
 FORMAT:FORMATTED              ACCESS:SEQUENTIAL          

 OPENING supply2.wel
 FILE TYPE:WEL   UNIT   19   STATUS:OLD    
 FORMAT:FORMATTED              ACCESS:SEQUENTIAL          

 OPENING supply2sf.cbc
 FILE TYPE:DATA(BINARY)   UNIT   50   STATUS:UNKNOWN
 FORMAT:BINARY                 ACCESS:SEQUENTIAL          

 OPENING supply2hd.bhd
 FILE TYPE:DATA(BINARY)   UNIT   51   STATUS:UNKNOWN
 FORMAT:BINARY                 ACCESS:SEQUENTIAL          

 BAS -- BASIC PACKAGE, VERSION 7, 5/2/2005 INPUT READ FROM UNIT   12
 
 MODFLOW was compiled using uniform precision
 Precision of REAL and DOUBLE PRECISION variables:          15

 DISCRETIZATION INPUT DATA READ FROM UNIT   11
    1 LAYERS        25 ROWS        30 COLUMNS
   12 STRESS PERIOD(S) IN SIMULATION
 MODEL TIME UNIT IS DAYS
 MODEL LENGTH UNIT IS UNDEFINED
  Confining bed flag for each layer:
   0

                     DELR =   200.000    

                     DELC =   200.000    

 TOP ELEVATION OF LAYER 1 =  100.0000    

   MODEL LAYER BOTTOM EL. =   0.00000     FOR LAYER   1


 STRESS PERIOD     LENGTH       TIME STEPS     MULTIPLIER FOR DELT    SS FLAG
 ----------------------------------------------------------------------------
        1         92.00000          1                    1.500         TR
        2         91.00000          1                    1.500         TR
        3         91.00000          1                    1.500         TR
        4         91.00000          1                    1.500         TR
        5         92.00000          1                    1.500         TR
        6         91.00000          1                    1.500         TR
        7         91.00000          1                    1.500         TR
        8         91.00000          1                    1.500         TR
        9         92.00000          1                    1.500         TR
       10         91.00000          1                    1.500         TR
       11         91.00000          1                    1.500         TR
       12         91.00000          1                    1.500         TR

 TRANSIENT SIMULATION



 
 #MODOFC transient water supply sample problem                                   
 #                                                                               
 THE FREE FORMAT OPTION HAS BEEN SELECTED



                     BOUNDARY ARRAY FOR LAYER   1
 READING ON UNIT   12 WITH FORMAT: (20I4)              

 AQUIFER HEAD WILL BE SET TO   0.0000     AT ALL NO-FLOW NODES (IBOUND=0).



                       INITIAL HEAD FOR LAYER   1
 READING ON UNIT   12 WITH FORMAT: (10F13.0)           

 OUTPUT CONTROL IS SPECIFIED ONLY AT TIME STEPS FOR WHICH OUTPUT IS DESIRED
 COMPACT CELL-BY-CELL BUDGET FILES WILL BE WRITTEN
 HEAD PRINT FORMAT CODE IS  18    DRAWDOWN PRINT FORMAT CODE IS   0
 HEADS WILL BE SAVED ON UNIT   51    DRAWDOWNS WILL BE SAVED ON UNIT    0

 BCF -- BLOCK-CENTERED FLOW PACKAGE, VERSION 7, 5/2/2005
         INPUT READ FROM UNIT 13
 TRANSIENT SIMULATION
 HEAD AT CELLS THAT CONVERT TO DRY=   0.0000    
 WETTING CAPABILITY IS NOT ACTIVE
      LAYER  LAYER-TYPE CODE     INTERBLOCK T
      --------------------------------------------
         1            0          0 -- HARMONIC    

 COLUMN TO ROW ANISOTROPY =  1.000000    

     PRIMARY STORAGE COEF =  5.000000E-02 FOR LAYER   1



               TRANSMIS. ALONG ROWS FOR LAYER   1
 READING ON UNIT   13 WITH FORMAT: (FREE)              

 WEL -- WELL PACKAGE, VERSION 7, 5/2/2005 INPUT READ FROM UNIT   19
 # Well package input file written by MMProc
 No named parameters
 MAXIMUM OF      4 ACTIVE WELLS AT ONE TIME


     0 Well parameters

 RCH -- RECHARGE PACKAGE, VERSION 7, 5/2/2005 INPUT READ FROM UNIT   15
 No named parameters
 OPTION 1 -- RECHARGE TO TOP LAYER


     0 Recharge parameters

 SFR7 -- STREAMFLOW ROUTING PACKAGE, VERSION 1.0.7, 2013-01-15
         INPUT READ FROM UNIT  16
 #  Supply2 test problem for GWM-VI
 #  The eighth entry in the first data line is ISTCB2 -
 #    Setting this to a negative number indicates that
 #    streamflows out of the reach will be saved to a
 #    binary file.  The absolute value of ISTCB2 is the
 #    unit to which unformatted flows will be written.
 #
 No named parameters
 Segment information will not be 
 read by reach
 No named parameters
 No specifed inflow files


 NUMBER OF STREAM REACHES IS   40

 NUMBER OF STREAM SEGMENTS IS    3

 NUMBER OF STREAM PARAMETERS IS    0

 NUMBER OF STREAM SEGMENTS DEFINED USING PARAMETERS IS              0

 MAXIMUM ERROR FOR STREAM LEAKAGE RATES IS  1.00E-04

 CONSTANT FOR MANNINGS EQUATION IS  1.2839E+05





   STREAM NETWORK DESCRIPTION: 

   LAYER    ROW    COL   SEGMENT   REACH     LENGTH
                          NUMBER   NUMBER    IN CELL        
   --------------------------------------------------
      1     13      1       1        1    2.0000E+02
      1     13      2       1        2    2.0000E+02
      1     14      3       1        3    2.0000E+02
      1     15      4       1        4    2.0000E+02
      1     16      5       1        5    2.0000E+02
      1     16      6       1        6    2.0000E+02
      1     16      7       1        7    2.0000E+02
      1     16      8       1        8    2.0000E+02
      1     16      9       1        9    2.0000E+02
      1     16     10       1       10    2.0000E+02
      1     16     11       1       11    2.0000E+02
      1     16     12       1       12    2.0000E+02
      1     15     13       1       13    2.0000E+02
      1     14     14       1       14    2.0000E+02
      1     13     15       1       15    2.0000E+02
      1     12     16       1       16    2.0000E+02
      1     12     17       1       17    2.0000E+02
      1     12     18       1       18    2.0000E+02
      1     12     19       1       19    2.0000E+02
      1     13     20       1       20    2.0000E+02
      1     14     21       1       21    2.0000E+02
      1     14     22       1       22    2.0000E+02
      1      9     30       2        1    2.0000E+02
      1      9     29       2        2    2.0000E+02
      1      9     28       2        3    2.0000E+02
      1      9     27       2        4    2.0000E+02
      1     10     26       2        5    2.0000E+02
      1     11     25       2        6    2.0000E+02
      1     12     24       2        7    2.0000E+02
      1     13     23       2        8    2.0000E+02
      1     14     22       2        9    2.0000E+02
      1     14     22       3        1    2.0000E+02
      1     15     23       3        2    2.0000E+02
      1     15     24       3        3    2.0000E+02
      1     15     25       3        4    2.0000E+02
      1     15     26       3        5    2.0000E+02
      1     16     27       3        6    2.0000E+02
      1     17     28       3        7    2.0000E+02
      1     18     29       3        8    2.0000E+02
      1     18     30       3        9    2.0000E+02




 PCG -- CONJUGATE-GRADIENT SOLUTION PACKAGE, VERSION 7, 5/2/2005
 MAXIMUM OF    500 CALLS OF SOLUTION ROUTINE
 MAXIMUM OF      5 INTERNAL ITERATIONS PER CALL TO SOLUTION ROUTINE
 MATRIX PRECONDITIONING TYPE :    1



                                    SOLUTION BY THE CONJUGATE-GRADIENT METHOD
                                   -------------------------------------------
                    MAXIMUM NUMBER OF CALLS TO PCG ROUTINE =      500
                        MAXIMUM ITERATIONS PER CALL TO PCG =        5
                               MATRIX PRECONDITIONING TYPE =        1
        RELAXATION FACTOR (ONLY USED WITH PRECOND. TYPE 1) =    0.10000E+01
 PARAMETER OF POLYNOMIAL PRECOND. = 2 (2) OR IS CALCULATED :        0
                         HEAD CHANGE CRITERION FOR CLOSURE =    0.10000E-05
                     RESIDUAL CHANGE CRITERION FOR CLOSURE =    0.10000E+01
            PCG HEAD AND RESIDUAL CHANGE PRINTOUT INTERVAL =        1
     PRINTING FROM SOLVER IS LIMITED(1) OR SUPPRESSED (>1) =        1
                            STEADY-STATE DAMPING PARAMETER =    0.10000E+01
                               TRANSIENT DAMPING PARAMETER =    0.10000E+01
1
                            STRESS PERIOD NO.    1, LENGTH =   92.00000    
                            -----------------------------------------------

                              NUMBER OF TIME STEPS =     1

                               MULTIPLIER FOR DELT =     1.500

                            INITIAL TIME STEP SIZE =   92.00000    

 WELL NO.  LAYER   ROW   COL   STRESS RATE         
 --------------------------------------------------
      1      1     10     29     -0.1299E+05
      2      1     15     21     -0.1317E+05
      3      1     19     29     -0.1184E+05
      4      1     17     29     -0.1716E+05

      4 WELLS

                 RECHARGE =  5.000000E-04



 CLASSIFICATION & COUNT OF STREAM SEGMENTS BASED ON SOURCE OF INFLOW:

                HEADWATER     DIVERSION     RECEIVES TRIBUTARY FLOW
                ---------     ---------     -----------------------
                     2              0               1



                    INPUT DATA FOR EACH STREAM SEGMENT
 ---------------------------------------------------------------------------------------------

 SEGMENT    SEG.     INFLOW   OVERLAND   STREAM    STREAM   ICALC  OUTFLOW  DIVERSION PRIORITY
    NO.    LENGTH     RATE     RUNOFF      ET       PPT.    METH.  TO SEG.  FROM SEG.    NO.

      1  4.400E+03 1.000E+05 0.000E+00 0.000E+00 0.000E+00    1        3        0        0
      2  1.800E+03 5.000E+04 0.000E+00 0.000E+00 0.000E+00    1        3        0        0
      3  1.800E+03 0.000E+00 0.000E+00 0.000E+00 0.000E+00    1        0        0        0


         STREAMBED PROPERTIES AND STREAM DIMENSIONS

 SEGMENT     BED HYD. COND.      BED THICKNESS     ELEV.-TOP OF BED     WIDTH OF STREAM     DEPTH OF STREAM    STREAM ROUGHNESS
    No.     UPPER     LOWER     UPPER     LOWER     UPPER     LOWER     UPPER     LOWER     UPPER     LOWER   CHANNEL      BANK

     1  5.000E+00 5.000E+00 1.000E+00 1.000E+00 4.850E+01 3.800E+01 2.000E+01 2.000E+01                     5.000E-02
     2  5.000E+00 5.000E+00 1.000E+00 1.000E+00 4.025E+01 3.800E+01 2.000E+01 2.000E+01                     5.000E-02
     3  5.000E+00 5.000E+00 1.000E+00 1.000E+00 3.800E+01 3.000E+01 2.000E+01 2.000E+01                     5.000E-02



 
 SOLVING FOR HEAD 


     9 CALLS TO PCG ROUTINE FOR TIME STEP   1 IN STRESS PERIOD    1
    36 TOTAL ITERATIONS

 OUTPUT CONTROL FOR STRESS PERIOD    1   TIME STEP    1
    SAVE BUDGET
    SAVE HEAD FOR ALL LAYERS
    PRINT HEAD FOR ALL LAYERS
 UBDSV2 SAVING "STREAMFLOW OUT  " ON UNIT  50 AT TIME STEP  1, STRESS PERIOD   1



 STREAM LISTING     PERIOD      1   STEP        1

 LAYER ROW COL. STREAM  RCH.  FLOW INTO     FLOW TO   FLOW OUT OF   OVRLND.     DIRECT     STREAM       STREAM     STREAM     STREAM   STREAMBED  STREAMBED
                SEG.NO.  NO.  STRM. RCH.    AQUIFER    STRM. RCH.    RUNOFF     PRECIP       ET          HEAD       DEPTH      WIDTH   CONDCTNC.   GRADIENT

   1   13    1     1     1    1.0000E+05 -6.1244E+03   1.0612E+05  0.000E+00  0.000E+00  0.000E+00  4.84087E+01  1.473E-01  2.000E+01  2.000E+04 -3.062E-01
   1   13    2     1     2    1.0612E+05 -7.5941E+03   1.1372E+05  0.000E+00  0.000E+00  0.000E+00  4.79372E+01  1.531E-01  2.000E+01  2.000E+04 -3.797E-01
   1   14    3     1     3    1.1372E+05 -2.1991E+03   1.1592E+05  0.000E+00  0.000E+00  0.000E+00  4.74640E+01  1.572E-01  2.000E+01  2.000E+04 -1.100E-01
   1   15    4     1     4    1.1592E+05 -2.2702E+03   1.1819E+05  0.000E+00  0.000E+00  0.000E+00  4.69885E+01  1.590E-01  2.000E+01  2.000E+04 -1.135E-01
   1   16    5     1     5    1.1819E+05 -7.1826E+03   1.2537E+05  0.000E+00  0.000E+00  0.000E+00  4.65151E+01  1.628E-01  2.000E+01  2.000E+04 -3.591E-01
   1   16    6     1     6    1.2537E+05 -4.3014E+03   1.2967E+05  0.000E+00  0.000E+00  0.000E+00  4.60424E+01  1.674E-01  2.000E+01  2.000E+04 -2.151E-01
   1   16    7     1     7    1.2967E+05 -4.1354E+03   1.3381E+05  0.000E+00  0.000E+00  0.000E+00  4.55684E+01  1.707E-01  2.000E+01  2.000E+04 -2.068E-01
   1   16    8     1     8    1.3381E+05 -4.0930E+03   1.3790E+05  0.000E+00  0.000E+00  0.000E+00  4.50943E+01  1.738E-01  2.000E+01  2.000E+04 -2.046E-01
   1   16    9     1     9    1.3790E+05 -4.0799E+03   1.4198E+05  0.000E+00  0.000E+00  0.000E+00  4.46201E+01  1.770E-01  2.000E+01  2.000E+04 -2.040E-01
   1   16   10     1    10    1.4198E+05 -4.0730E+03   1.4605E+05  0.000E+00  0.000E+00  0.000E+00  4.41460E+01  1.800E-01  2.000E+01  2.000E+04 -2.036E-01
   1   16   11     1    11    1.4605E+05 -4.1000E+03   1.5015E+05  0.000E+00  0.000E+00  0.000E+00  4.36717E+01  1.831E-01  2.000E+01  2.000E+04 -2.050E-01
   1   16   12     1    12    1.5015E+05 -6.9315E+03   1.5708E+05  0.000E+00  0.000E+00  0.000E+00  4.31985E+01  1.872E-01  2.000E+01  2.000E+04 -3.466E-01
   1   15   13     1    13    1.5708E+05 -7.2375E+03   1.6432E+05  0.000E+00  0.000E+00  0.000E+00  4.27264E+01  1.923E-01  2.000E+01  2.000E+04 -3.619E-01
   1   14   14     1    14    1.6432E+05 -7.7151E+03   1.7204E+05  0.000E+00  0.000E+00  0.000E+00  4.22544E+01  1.976E-01  2.000E+01  2.000E+04 -3.858E-01
   1   13   15     1    15    1.7204E+05 -8.0619E+03   1.8010E+05  0.000E+00  0.000E+00  0.000E+00  4.17827E+01  2.031E-01  2.000E+01  2.000E+04 -4.031E-01
   1   12   16     1    16    1.8010E+05 -8.8168E+03   1.8892E+05  0.000E+00  0.000E+00  0.000E+00  4.13112E+01  2.089E-01  2.000E+01  2.000E+04 -4.408E-01
   1   12   17     1    17    1.8892E+05 -6.1947E+03   1.9511E+05  0.000E+00  0.000E+00  0.000E+00  4.08390E+01  2.140E-01  2.000E+01  2.000E+04 -3.097E-01
   1   12   18     1    18    1.9511E+05 -5.9888E+03   2.0110E+05  0.000E+00  0.000E+00  0.000E+00  4.03657E+01  2.180E-01  2.000E+01  2.000E+04 -2.994E-01
   1   12   19     1    19    2.0110E+05 -7.5685E+03   2.0867E+05  0.000E+00  0.000E+00  0.000E+00  3.98929E+01  2.224E-01  2.000E+01  2.000E+04 -3.784E-01
   1   13   20     1    20    2.0867E+05 -5.9748E+03   2.1464E+05  0.000E+00  0.000E+00  0.000E+00  3.94200E+01  2.268E-01  2.000E+01  2.000E+04 -2.987E-01
   1   14   21     1    21    2.1464E+05 -1.1978E+03   2.1584E+05  0.000E+00  0.000E+00  0.000E+00  3.89450E+01  2.291E-01  2.000E+01  2.000E+04 -5.989E-02
   1   14   22     1    22    2.1584E+05  4.4786E+03   2.1136E+05  0.000E+00  0.000E+00  0.000E+00  3.84667E+01  2.281E-01  2.000E+01  2.000E+04  2.239E-01
   1    9   30     2     1    5.0000E+04 -2.3922E+03   5.2392E+04  0.000E+00  0.000E+00  0.000E+00  4.02425E+01  1.175E-01  2.000E+01  2.000E+04 -1.196E-01
   1    9   29     2     2    5.2392E+04 -4.4259E+02   5.2835E+04  0.000E+00  0.000E+00  0.000E+00  3.99945E+01  1.195E-01  2.000E+01  2.000E+04 -2.213E-02
   1    9   28     2     3    5.2835E+04 -3.5776E+03   5.6412E+04  0.000E+00  0.000E+00  0.000E+00  3.97472E+01  1.222E-01  2.000E+01  2.000E+04 -1.789E-01
   1    9   27     2     4    5.6412E+04 -7.5777E+03   6.3990E+04  0.000E+00  0.000E+00  0.000E+00  3.95045E+01  1.295E-01  2.000E+01  2.000E+04 -3.789E-01
   1   10   26     2     5    6.3990E+04 -6.3223E+03   7.0312E+04  0.000E+00  0.000E+00  0.000E+00  3.92633E+01  1.383E-01  2.000E+01  2.000E+04 -3.161E-01
   1   11   25     2     6    7.0312E+04 -6.2787E+03   7.6591E+04  0.000E+00  0.000E+00  0.000E+00  3.90209E+01  1.459E-01  2.000E+01  2.000E+04 -3.139E-01
   1   12   24     2     7    7.6591E+04 -6.1360E+03   8.2727E+04  0.000E+00  0.000E+00  0.000E+00  3.87782E+01  1.532E-01  2.000E+01  2.000E+04 -3.068E-01
   1   13   23     2     8    8.2727E+04 -1.6457E+03   8.4373E+04  0.000E+00  0.000E+00  0.000E+00  3.85327E+01  1.577E-01  2.000E+01  2.000E+04 -8.228E-02
   1   14   22     2     9    8.4373E+04  8.0711E+02   8.3566E+04  0.000E+00  0.000E+00  0.000E+00  3.82831E+01  1.581E-01  2.000E+01  2.000E+04  4.036E-02
   1   14   22     3     1    2.9493E+05 -9.1085E+03   3.0404E+05  0.000E+00  0.000E+00  0.000E+00  3.77874E+01  2.318E-01  2.000E+01  2.000E+04 -4.554E-01
   1   15   23     3     2    3.0404E+05 -1.5021E+03   3.0554E+05  0.000E+00  0.000E+00  0.000E+00  3.69009E+01  2.343E-01  2.000E+01  2.000E+04 -7.510E-02
   1   15   24     3     3    3.0554E+05 -1.4875E+03   3.0703E+05  0.000E+00  0.000E+00  0.000E+00  3.60127E+01  2.349E-01  2.000E+01  2.000E+04 -7.438E-02
   1   15   25     3     4    3.0703E+05 -1.5472E+03   3.0857E+05  0.000E+00  0.000E+00  0.000E+00  3.51245E+01  2.356E-01  2.000E+01  2.000E+04 -7.736E-02
   1   15   26     3     5    3.0857E+05 -1.7538E+03   3.1033E+05  0.000E+00  0.000E+00  0.000E+00  3.42364E+01  2.364E-01  2.000E+01  2.000E+04 -8.769E-02
   1   16   27     3     6    3.1033E+05 -1.7660E+03   3.1209E+05  0.000E+00  0.000E+00  0.000E+00  3.33483E+01  2.372E-01  2.000E+01  2.000E+04 -8.830E-02
   1   17   28     3     7    3.1209E+05  1.2291E+03   3.1086E+05  0.000E+00  0.000E+00  0.000E+00  3.24596E+01  2.373E-01  2.000E+01  2.000E+04  6.145E-02
   1   18   29     3     8    3.1086E+05  2.8722E+03   3.0799E+05  0.000E+00  0.000E+00  0.000E+00  3.15697E+01  2.364E-01  2.000E+01  2.000E+04  1.436E-01
   1   18   30     3     9    3.0799E+05 -1.9557E+03   3.0995E+05  0.000E+00  0.000E+00  0.000E+00  3.06806E+01  2.362E-01  2.000E+01  2.000E+04 -9.779E-02



1
              HEAD IN LAYER   1 AT END OF TIME STEP   1 IN STRESS PERIOD    1
  ---------------------------------------------------------------------------

          1      2      3      4      5      6      7      8      9     10
         11     12     13     14     15     16     17     18     19     20
         21     22     23     24     25     26     27     28     29     30
 .........................................................................
   1  ****** ****** ****** ****** ****** ****** ****** ****** ****** ******
      ****** ****** ****** ****** ****** ****** ****** ****** ****** ******
      ****** ****** ****** ****** ****** ****** ****** ****** ****** ******
   2  ****** ****** ****** ****** ****** ****** ****** ****** ****** ******
      ****** ****** ****** ****** ****** ****** ****** ****** ****** ******
      ****** ****** ****** ****** ****** ****** ****** ****** ****** ******
   3  ****** ****** ****** ****** ****** ****** ****** ****** ****** ******
      ****** ****** ****** ****** ****** ****** ****** ****** ****** ******
      ****** ****** ****** ****** ****** ****** ****** ****** ****** ******
   4  ****** ****** ****** ****** ****** ****** ****** ****** ****** ******
      ****** ****** ****** ****** ****** ****** ****** ****** ****** ******
      ****** ****** ****** ****** ****** ****** ****** ****** ****** ******
   5  ****** ****** ****** ****** ****** ****** ****** ****** ****** ******
      ****** ****** ****** ****** ****** ****** ****** ****** ****** ******
      ****** ****** ****** ****** ****** ****** ****** ****** ****** ******
   6  ****** ****** ****** ****** ****** ****** ****** ****** ****** ******
      ****** ****** ****** ****** ****** ****** ****** ****** ****** ******
      ****** ****** ****** ****** ****** ****** ****** ****** ****** ******
   7  ****** ****** ****** ****** ****** ****** ****** ****** ****** ******
      ****** ****** ****** ****** ****** ****** ****** ****** ****** ******
      ****** ****** ****** ****** ****** ****** ****** ****** ****** ******
   8  ****** ****** ****** ****** ****** ****** ****** ****** ****** ******
      ****** ****** ****** ****** ****** ****** ****** ****** ****** ******
      ****** ****** ****** ****** ****** ****** ****** ****** ****** ******
   9  ****** ****** ****** ****** ****** ****** ****** ****** ****** ******
      ****** ****** ****** ****** ****** ****** ****** ****** ****** ******
      ****** ****** ****** ****** ****** ****** ****** ****** ****** ******
  10  ****** ****** ****** ****** ****** ****** ****** ****** ****** ******
      ****** ****** ****** ****** ****** ****** ****** ****** ****** ******
      ****** ****** ****** ****** ****** ****** ****** ****** ****** ******
  11  ****** ****** ****** ****** ****** ****** ****** ****** ****** ******
      ****** ****** ****** ****** ****** ****** ****** ****** ****** ******
      ****** ****** ****** ****** ****** ****** ****** ****** ****** ******
  12  ****** ****** ****** ****** ****** ****** ****** ****** ****** ******
      ****** ****** ****** ****** ****** ****** ****** ****** ****** ******
      ****** ****** ****** ****** ****** ****** ****** ****** ****** ******
  13  ****** ****** ****** ****** ****** ****** ****** ****** ****** ******
      ****** ****** ****** ****** ****** ****** ****** ****** ****** ******
      ****** ****** ****** ****** ****** ****** ****** ****** ****** ******
  14  ****** ****** ****** ****** ****** ****** ****** ****** ****** ******
      ****** ****** ****** ****** ****** ****** ****** ****** ****** ******
      ****** ****** ****** ****** ****** ****** ****** ****** ****** ******
  15  ****** ****** ****** ****** ****** ****** ****** ****** ****** ******
      ****** ****** ****** ****** ****** ****** ****** ****** ****** ******
      ****** ****** ****** ****** ****** ****** ****** ****** ****** ******
  16  ****** ****** ****** ****** ****** ****** ****** ****** ****** ******
      ****** ****** ****** ****** ****** ****** ****** ****** ****** ******
      ****** ****** ****** ****** ****** ****** ****** ****** ****** ******
  17  ****** ****** ****** ****** ****** ****** ****** ****** ****** ******
      ****** ****** ****** ****** ****** ****** ****** ****** ****** ******
      ****** ****** ****** ****** ****** ****** ****** ****** ****** ******
  18  ****** ****** ****** ****** ****** ****** ****** ****** ****** ******
      ****** ****** ****** ****** ****** ****** ****** ****** ****** ******
      ****** ****** ****** ****** ****** ****** ****** ****** ****** ******
  19  ****** ****** ****** ****** ****** ****** ****** ****** ****** ******
      ****** ****** ****** ****** ****** ****** ****** ****** ****** ******
      ****** ****** ****** ****** ****** ****** ****** ****** ****** ******
  20  ****** ****** ****** ****** ****** ****** ****** ****** ****** ******
      ****** ****** ****** ****** ****** ****** ****** ****** ****** ******
      ****** ****** ****** ****** ****** ****** ****** ****** ****** ******
  21  ****** ****** ****** ****** ****** ****** ****** ****** ****** ******
      ****** ****** ****** ****** ****** ****** ****** ****** ****** ******
      ****** ****** ****** ****** ****** ****** ****** ****** ****** ******
  22  ****** ****** ****** ****** ****** ****** ****** ****** ****** ******
      ****** ****** ****** ****** ****** ****** ****** ****** ****** ******
      ****** ****** ****** ****** ****** ****** ****** ****** ****** ******
  23  ****** ****** ****** ****** ****** ****** ****** ****** ****** ******
      ****** ****** ****** ****** ****** ****** ****** ****** ****** ******
      ****** ****** ****** ****** ****** ****** ****** ****** ****** ******
  24  ****** ****** ****** ****** ****** ****** ****** ****** ****** ******
      ****** ****** ****** ****** ****** ****** ****** ****** ****** ******
      ****** ****** ****** ****** ****** ****** ****** ****** ****** ******
  25  ****** ****** ****** ****** ****** ****** ****** ****** ****** ******
      ****** ****** ****** ****** ****** ****** ****** ****** ****** ******
      ****** ****** ****** ****** ****** ****** ****** ****** ****** ******

 HEAD WILL BE SAVED ON UNIT   51 AT END OF TIME STEP    1, STRESS PERIOD    1
1
  VOLUMETRIC BUDGET FOR ENTIRE MODEL AT END OF TIME STEP    1, STRESS PERIOD   1
  ------------------------------------------------------------------------------

     CUMULATIVE VOLUMES      L**3       RATES FOR THIS TIME STEP      L**3/T
     ------------------                 ------------------------

           IN:                                      IN:
           ---                                      ---
             STORAGE =    17399460.6626               STORAGE =      189124.5724
       CONSTANT HEAD =     1121275.5850         CONSTANT HEAD =       12187.7781
               WELLS =           0.0000                 WELLS =           0.0000
            RECHARGE =     1269600.0000              RECHARGE =       13800.0000
      STREAM LEAKAGE =      863598.9774        STREAM LEAKAGE =        9386.9454

            TOTAL IN =    20653935.2250              TOTAL IN =      224499.2959

          OUT:                                     OUT:
          ----                                     ----
             STORAGE =           0.0000               STORAGE =           0.0000
       CONSTANT HEAD =           0.0000         CONSTANT HEAD =           0.0000
               WELLS =     5075214.1727                 WELLS =       55165.3714
            RECHARGE =           0.0000              RECHARGE =           0.0000
      STREAM LEAKAGE =    15578721.3433        STREAM LEAKAGE =      169333.9276

           TOTAL OUT =    20653935.5160             TOTAL OUT =      224499.2991

            IN - OUT =          -0.2911              IN - OUT =      -3.1640E-03

 PERCENT DISCREPANCY =          -0.00     PERCENT DISCREPANCY =          -0.00






         TIME SUMMARY AT END OF TIME STEP    1 IN STRESS PERIOD    1
                    SECONDS     MINUTES      HOURS       DAYS        YEARS
                    -----------------------------------------------------------
   TIME STEP LENGTH 7.94880E+06 1.32480E+05  2208.0      92.000     0.25188    
 STRESS PERIOD TIME 7.94880E+06 1.32480E+05  2208.0      92.000     0.25188    
         TOTAL TIME 7.94880E+06 1.32480E+05  2208.0      92.000     0.25188    
1
1
                            STRESS PERIOD NO.    2, LENGTH =   91.00000    
                            -----------------------------------------------

                              NUMBER OF TIME STEPS =     1

                               MULTIPLIER FOR DELT =     1.500

                            INITIAL TIME STEP SIZE =   91.00000    

 WELL NO.  LAYER   ROW   COL   STRESS RATE         
 --------------------------------------------------
      1      1     10     29     -0.1299E+05
      2      1     15     21     -0.1317E+05
      3      1     19     29     -0.1184E+05
      4      1     17     29     -0.1716E+05

      4 WELLS

                 RECHARGE =  2.000000E-03

 REUSING STREAM SEGMENT DATA FROM LAST STRESS PERIOD
 
 SOLVING FOR HEAD 


     7 CALLS TO PCG ROUTINE FOR TIME STEP   1 IN STRESS PERIOD    2
    27 TOTAL ITERATIONS

 OUTPUT CONTROL FOR STRESS PERIOD    2   TIME STEP    1
    SAVE BUDGET
    SAVE HEAD FOR ALL LAYERS
    PRINT HEAD FOR ALL LAYERS
 UBDSV2 SAVING "STREAMFLOW OUT  " ON UNIT  50 AT TIME STEP  1, STRESS PERIOD   2



 STREAM LISTING     PERIOD      2   STEP        1

 LAYER ROW COL. STREAM  RCH.  FLOW INTO     FLOW TO   FLOW OUT OF   OVRLND.     DIRECT     STREAM       STREAM     STREAM     STREAM   STREAMBED  STREAMBED
                SEG.NO.  NO.  STRM. RCH.    AQUIFER    STRM. RCH.    RUNOFF     PRECIP       ET          HEAD       DEPTH      WIDTH   CONDCTNC.   GRADIENT

   1   13    1     1     1    1.0000E+05 -4.0156E+03   1.0402E+05  0.000E+00  0.000E+00  0.000E+00  4.84078E+01  1.464E-01  2.000E+01  2.000E+04 -2.008E-01
   1   13    2     1     2    1.0402E+05 -5.2783E+03   1.0929E+05  0.000E+00  0.000E+00  0.000E+00  4.79344E+01  1.504E-01  2.000E+01  2.000E+04 -2.639E-01
   1   14    3     1     3    1.0929E+05 -1.1167E+03   1.1041E+05  0.000E+00  0.000E+00  0.000E+00  4.74599E+01  1.530E-01  2.000E+01  2.000E+04 -5.584E-02
   1   15    4     1     4    1.1041E+05 -1.1441E+03   1.1155E+05  0.000E+00  0.000E+00  0.000E+00  4.69835E+01  1.540E-01  2.000E+01  2.000E+04 -5.720E-02
   1   16    5     1     5    1.1155E+05 -4.2488E+03   1.1580E+05  0.000E+00  0.000E+00  0.000E+00  4.65085E+01  1.562E-01  2.000E+01  2.000E+04 -2.124E-01
   1   16    6     1     6    1.1580E+05 -2.5033E+03   1.1831E+05  0.000E+00  0.000E+00  0.000E+00  4.60340E+01  1.590E-01  2.000E+01  2.000E+04 -1.252E-01
   1   16    7     1     7    1.1831E+05 -2.4073E+03   1.2071E+05  0.000E+00  0.000E+00  0.000E+00  4.55587E+01  1.610E-01  2.000E+01  2.000E+04 -1.204E-01
   1   16    8     1     8    1.2071E+05 -2.3752E+03   1.2309E+05  0.000E+00  0.000E+00  0.000E+00  4.50834E+01  1.629E-01  2.000E+01  2.000E+04 -1.188E-01
   1   16    9     1     9    1.2309E+05 -2.3499E+03   1.2544E+05  0.000E+00  0.000E+00  0.000E+00  4.46080E+01  1.648E-01  2.000E+01  2.000E+04 -1.175E-01
   1   16   10     1    10    1.2544E+05 -2.3179E+03   1.2776E+05  0.000E+00  0.000E+00  0.000E+00  4.41325E+01  1.666E-01  2.000E+01  2.000E+04 -1.159E-01
   1   16   11     1    11    1.2776E+05 -2.3091E+03   1.3007E+05  0.000E+00  0.000E+00  0.000E+00  4.36571E+01  1.685E-01  2.000E+01  2.000E+04 -1.155E-01
   1   16   12     1    12    1.3007E+05 -4.0087E+03   1.3407E+05  0.000E+00  0.000E+00  0.000E+00  4.31823E+01  1.709E-01  2.000E+01  2.000E+04 -2.004E-01
   1   15   13     1    13    1.3407E+05 -3.9822E+03   1.3806E+05  0.000E+00  0.000E+00  0.000E+00  4.27081E+01  1.740E-01  2.000E+01  2.000E+04 -1.991E-01
   1   14   14     1    14    1.3806E+05 -4.3532E+03   1.4241E+05  0.000E+00  0.000E+00  0.000E+00  4.22340E+01  1.772E-01  2.000E+01  2.000E+04 -2.177E-01
   1   13   15     1    15    1.4241E+05 -4.7267E+03   1.4714E+05  0.000E+00  0.000E+00  0.000E+00  4.17602E+01  1.806E-01  2.000E+01  2.000E+04 -2.363E-01
   1   12   16     1    16    1.4714E+05 -5.7359E+03   1.5287E+05  0.000E+00  0.000E+00  0.000E+00  4.12868E+01  1.845E-01  2.000E+01  2.000E+04 -2.868E-01
   1   12   17     1    17    1.5287E+05 -3.7190E+03   1.5659E+05  0.000E+00  0.000E+00  0.000E+00  4.08130E+01  1.880E-01  2.000E+01  2.000E+04 -1.860E-01
   1   12   18     1    18    1.5659E+05 -3.4996E+03   1.6009E+05  0.000E+00  0.000E+00  0.000E+00  4.03383E+01  1.906E-01  2.000E+01  2.000E+04 -1.750E-01
   1   12   19     1    19    1.6009E+05 -4.4891E+03   1.6458E+05  0.000E+00  0.000E+00  0.000E+00  3.98639E+01  1.935E-01  2.000E+01  2.000E+04 -2.245E-01
   1   13   20     1    20    1.6458E+05 -2.7796E+03   1.6736E+05  0.000E+00  0.000E+00  0.000E+00  3.93892E+01  1.960E-01  2.000E+01  2.000E+04 -1.390E-01
   1   14   21     1    21    1.6736E+05  1.8298E+03   1.6553E+05  0.000E+00  0.000E+00  0.000E+00  3.89123E+01  1.964E-01  2.000E+01  2.000E+04  9.149E-02
   1   14   22     1    22    1.6553E+05  5.3198E+03   1.6021E+05  0.000E+00  0.000E+00  0.000E+00  3.84325E+01  1.938E-01  2.000E+01  2.000E+04  2.660E-01
   1    9   30     2     1    5.0000E+04  5.6905E+02   4.9431E+04  0.000E+00  0.000E+00  0.000E+00  4.02405E+01  1.155E-01  2.000E+01  2.000E+04  2.845E-02
   1    9   29     2     2    4.9431E+04  2.5066E+03   4.6924E+04  0.000E+00  0.000E+00  0.000E+00  3.99883E+01  1.133E-01  2.000E+01  2.000E+04  1.253E-01
   1    9   28     2     3    4.6924E+04 -7.2297E+02   4.7647E+04  0.000E+00  0.000E+00  0.000E+00  3.97370E+01  1.120E-01  2.000E+01  2.000E+04 -3.615E-02
   1    9   27     2     4    4.7647E+04 -4.0579E+03   5.1705E+04  0.000E+00  0.000E+00  0.000E+00  3.94904E+01  1.154E-01  2.000E+01  2.000E+04 -2.029E-01
   1   10   26     2     5    5.1705E+04 -2.5823E+03   5.4288E+04  0.000E+00  0.000E+00  0.000E+00  3.92450E+01  1.200E-01  2.000E+01  2.000E+04 -1.291E-01
   1   11   25     2     6    5.4288E+04 -2.7441E+03   5.7032E+04  0.000E+00  0.000E+00  0.000E+00  3.89986E+01  1.236E-01  2.000E+01  2.000E+04 -1.372E-01
   1   12   24     2     7    5.7032E+04 -3.0396E+03   6.0071E+04  0.000E+00  0.000E+00  0.000E+00  3.87524E+01  1.274E-01  2.000E+01  2.000E+04 -1.520E-01
   1   13   23     2     8    6.0071E+04 -6.0717E+02   6.0678E+04  0.000E+00  0.000E+00  0.000E+00  3.85047E+01  1.297E-01  2.000E+01  2.000E+04 -3.036E-02
   1   14   22     2     9    6.0678E+04  1.7505E+03   5.8928E+04  0.000E+00  0.000E+00  0.000E+00  3.82540E+01  1.290E-01  2.000E+01  2.000E+04  8.752E-02
   1   14   22     3     1    2.1914E+05 -8.3310E+03   2.2747E+05  0.000E+00  0.000E+00  0.000E+00  3.77499E+01  1.944E-01  2.000E+01  2.000E+04 -4.166E-01
   1   15   23     3     2    2.2747E+05 -4.9074E+02   2.2796E+05  0.000E+00  0.000E+00  0.000E+00  3.68633E+01  1.967E-01  2.000E+01  2.000E+04 -2.454E-02
   1   15   24     3     3    2.2796E+05 -5.9514E+02   2.2856E+05  0.000E+00  0.000E+00  0.000E+00  3.59747E+01  1.969E-01  2.000E+01  2.000E+04 -2.976E-02
   1   15   25     3     4    2.2856E+05 -6.1283E+02   2.2917E+05  0.000E+00  0.000E+00  0.000E+00  3.50862E+01  1.973E-01  2.000E+01  2.000E+04 -3.064E-02
   1   15   26     3     5    2.2917E+05 -5.8281E+02   2.2975E+05  0.000E+00  0.000E+00  0.000E+00  3.41976E+01  1.976E-01  2.000E+01  2.000E+04 -2.914E-02
   1   16   27     3     6    2.2975E+05 -3.9502E+02   2.3015E+05  0.000E+00  0.000E+00  0.000E+00  3.33089E+01  1.978E-01  2.000E+01  2.000E+04 -1.975E-02
   1   17   28     3     7    2.3015E+05  5.2191E+03   2.2493E+05  0.000E+00  0.000E+00  0.000E+00  3.24188E+01  1.966E-01  2.000E+01  2.000E+04  2.610E-01
   1   18   29     3     8    2.2493E+05  6.5730E+03   2.1835E+05  0.000E+00  0.000E+00  0.000E+00  3.15268E+01  1.935E-01  2.000E+01  2.000E+04  3.287E-01
   1   18   30     3     9    2.1835E+05  1.1300E+03   2.1722E+05  0.000E+00  0.000E+00  0.000E+00  3.06359E+01  1.915E-01  2.000E+01  2.000E+04  5.650E-02



1
              HEAD IN LAYER   1 AT END OF TIME STEP   1 IN STRESS PERIOD    2
  ---------------------------------------------------------------------------

          1      2      3      4      5      6      7      8      9     10
         11     12     13     14     15     16     17     18     19     20
         21     22     23     24     25     26     27     28     29     30
 .........................................................................
   1  ****** ****** ****** ****** ****** ****** ****** ****** ****** ******
      ****** ****** ****** ****** ****** ****** ****** ****** ****** ******
      ****** ****** ****** ****** ****** ****** ****** ****** ****** ******
   2  ****** ****** ****** ****** ****** ****** ****** ****** ****** ******
      ****** ****** ****** ****** ****** ****** ****** ****** ****** ******
      ****** ****** ****** ****** ****** ****** ****** ****** ****** ******
   3  ****** ****** ****** ****** ****** ****** ****** ****** ****** ******
      ****** ****** ****** ****** ****** ****** ****** ****** ****** ******
      ****** ****** ****** ****** ****** ****** ****** ****** ****** ******
   4  ****** ****** ****** ****** ****** ****** ****** ****** ****** ******
      ****** ****** ****** ****** ****** ****** ****** ****** ****** ******
      ****** ****** ****** ****** ****** ****** ****** ****** ****** ******
   5  ****** ****** ****** ****** ****** ****** ****** ****** ****** ******
      ****** ****** ****** ****** ****** ****** ****** ****** ****** ******
      ****** ****** ****** ****** ****** ****** ****** ****** ****** ******
   6  ****** ****** ****** ****** ****** ****** ****** ****** ****** ******
      ****** ****** ****** ****** ****** ****** ****** ****** ****** ******
      ****** ****** ****** ****** ****** ****** ****** ****** ****** ******
   7  ****** ****** ****** ****** ****** ****** ****** ****** ****** ******
      ****** ****** ****** ****** ****** ****** ****** ****** ****** ******
      ****** ****** ****** ****** ****** ****** ****** ****** ****** ******
   8  ****** ****** ****** ****** ****** ****** ****** ****** ****** ******
      ****** ****** ****** ****** ****** ****** ****** ****** ****** ******
      ****** ****** ****** ****** ****** ****** ****** ****** ****** ******
   9  ****** ****** ****** ****** ****** ****** ****** ****** ****** ******
      ****** ****** ****** ****** ****** ****** ****** ****** ****** ******
      ****** ****** ****** ****** ****** ****** ****** ****** ****** ******
  10  ****** ****** ****** ****** ****** ****** ****** ****** ****** ******
      ****** ****** ****** ****** ****** ****** ****** ****** ****** ******
      ****** ****** ****** ****** ****** ****** ****** ****** ****** ******
  11  ****** ****** ****** ****** ****** ****** ****** ****** ****** ******
      ****** ****** ****** ****** ****** ****** ****** ****** ****** ******
      ****** ****** ****** ****** ****** ****** ****** ****** ****** ******
  12  ****** ****** ****** ****** ****** ****** ****** ****** ****** ******
      ****** ****** ****** ****** ****** ****** ****** ****** ****** ******
      ****** ****** ****** ****** ****** ****** ****** ****** ****** ******
  13  ****** ****** ****** ****** ****** ****** ****** ****** ****** ******
      ****** ****** ****** ****** ****** ****** ****** ****** ****** ******
      ****** ****** ****** ****** ****** ****** ****** ****** ****** ******
  14  ****** ****** ****** ****** ****** ****** ****** ****** ****** ******
      ****** ****** ****** ****** ****** ****** ****** ****** ****** ******
      ****** ****** ****** ****** ****** ****** ****** ****** ****** ******
  15  ****** ****** ****** ****** ****** ****** ****** ****** ****** ******
      ****** ****** ****** ****** ****** ****** ****** ****** ****** ******
      ****** ****** ****** ****** ****** ****** ****** ****** ****** ******
  16  ****** ****** ****** ****** ****** ****** ****** ****** ****** ******
      ****** ****** ****** ****** ****** ****** ****** ****** ****** ******
      ****** ****** ****** ****** ****** ****** ****** ****** ****** ******
  17  ****** ****** ****** ****** ****** ****** ****** ****** ****** ******
      ****** ****** ****** ****** ****** ****** ****** ****** ****** ******
      ****** ****** ****** ****** ****** ****** ****** ****** ****** ******
  18  ****** ****** ****** ****** ****** ****** ****** ****** ****** ******
      ****** ****** ****** ****** ****** ****** ****** ****** ****** ******
      ****** ****** ****** ****** ****** ****** ****** ****** ****** ******
  19  ****** ****** ****** ****** ****** ****** ****** ****** ****** ******
      ****** ****** ****** ****** ****** ****** ****** ****** ****** ******
      ****** ****** ****** ****** ****** ****** ****** ****** ****** ******
  20  ****** ****** ****** ****** ****** ****** ****** ****** ****** ******
      ****** ****** ****** ****** ****** ****** ****** ****** ****** ******
      ****** ****** ****** ****** ****** ****** ****** ****** ****** ******
  21  ****** ****** ****** ****** ****** ****** ****** ****** ****** ******
      ****** ****** ****** ****** ****** ****** ****** ****** ****** ******
      ****** ****** ****** ****** ****** ****** ****** ****** ****** ******
  22  ****** ****** ****** ****** ****** ****** ****** ****** ****** ******
      ****** ****** ****** ****** ****** ****** ****** ****** ****** ******
      ****** ****** ****** ****** ****** ****** ****** ****** ****** ******
  23  ****** ****** ****** ****** ****** ****** ****** ****** ****** ******
      ****** ****** ****** ****** ****** ****** ****** ****** ****** ******
      ****** ****** ****** ****** ****** ****** ****** ****** ****** ******
  24  ****** ****** ****** ****** ****** ****** ****** ****** ****** ******
      ****** ****** ****** ****** ****** ****** ****** ****** ****** ******
      ****** ****** ****** ****** ****** ****** ****** ****** ****** ******
  25  ****** ****** ****** ****** ****** ****** ****** ****** ****** ******
      ****** ****** ****** ****** ****** ****** ****** ****** ****** ******
      ****** ****** ****** ****** ****** ****** ****** ****** ****** ******

 HEAD WILL BE SAVED ON UNIT   51 AT END OF TIME STEP    1, STRESS PERIOD    2
1
  VOLUMETRIC BUDGET FOR ENTIRE MODEL AT END OF TIME STEP    1, STRESS PERIOD   2
  ------------------------------------------------------------------------------

     CUMULATIVE VOLUMES      L**3       RATES FOR THIS TIME STEP      L**3/T
     ------------------                 ------------------------

           IN:                                      IN:
           ---                                      ---
             STORAGE =    22025543.6640               STORAGE =       50836.0769
       CONSTANT HEAD =     2609424.0957         CONSTANT HEAD =       16353.2803
               WELLS =           0.0000                 WELLS =           0.0000
            RECHARGE =     6292800.0000              RECHARGE =       55200.0000
      STREAM LEAKAGE =     3129314.3730        STREAM LEAKAGE =       24897.9714

            TOTAL IN =    34057082.1328              TOTAL IN =      147287.3287

          OUT:                                     OUT:
          ----                                     ----
             STORAGE =           0.0000               STORAGE =           0.0000
       CONSTANT HEAD =           0.0000         CONSTANT HEAD =           0.0000
               WELLS =    10095262.9740                 WELLS =       55165.3714
            RECHARGE =           0.0000              RECHARGE =           0.0000
      STREAM LEAKAGE =    23961820.3926        STREAM LEAKAGE =       92121.9676

           TOTAL OUT =    34057083.3666             TOTAL OUT =      147287.3390

            IN - OUT =          -1.2337              IN - OUT =      -1.0359E-02

 PERCENT DISCREPANCY =          -0.00     PERCENT DISCREPANCY =          -0.00






         TIME SUMMARY AT END OF TIME STEP    1 IN STRESS PERIOD    2
                    SECONDS     MINUTES      HOURS       DAYS        YEARS
                    -----------------------------------------------------------
   TIME STEP LENGTH 7.86240E+06 1.31040E+05  2184.0      91.000     0.24914    
 STRESS PERIOD TIME 7.86240E+06 1.31040E+05  2184.0      91.000     0.24914    
         TOTAL TIME 1.58112E+07 2.63520E+05  4392.0      183.00     0.50103    
1
1
                            STRESS PERIOD NO.    3, LENGTH =   91.00000    
                            -----------------------------------------------

                              NUMBER OF TIME STEPS =     1

                               MULTIPLIER FOR DELT =     1.500

                            INITIAL TIME STEP SIZE =   91.00000    

 WELL NO.  LAYER   ROW   COL   STRESS RATE         
 --------------------------------------------------
      1      1     10     29     -0.1299E+05
      2      1     15     21     -0.1317E+05
      3      1     19     29     -0.1184E+05
      4      1     17     29     -0.1716E+05

      4 WELLS

                 RECHARGE =   0.00000    

 REUSING STREAM SEGMENT DATA FROM LAST STRESS PERIOD
 
 SOLVING FOR HEAD 


     7 CALLS TO PCG ROUTINE FOR TIME STEP   1 IN STRESS PERIOD    3
    27 TOTAL ITERATIONS

 OUTPUT CONTROL FOR STRESS PERIOD    3   TIME STEP    1
    SAVE BUDGET
    SAVE HEAD FOR ALL LAYERS
    PRINT HEAD FOR ALL LAYERS
 UBDSV2 SAVING "STREAMFLOW OUT  " ON UNIT  50 AT TIME STEP  1, STRESS PERIOD   3



 STREAM LISTING     PERIOD      3   STEP        1

 LAYER ROW COL. STREAM  RCH.  FLOW INTO     FLOW TO   FLOW OUT OF   OVRLND.     DIRECT     STREAM       STREAM     STREAM     STREAM   STREAMBED  STREAMBED
                SEG.NO.  NO.  STRM. RCH.    AQUIFER    STRM. RCH.    RUNOFF     PRECIP       ET          HEAD       DEPTH      WIDTH   CONDCTNC.   GRADIENT

   1   13    1     1     1    1.0000E+05 -2.7779E+03   1.0278E+05  0.000E+00  0.000E+00  0.000E+00  4.84072E+01  1.459E-01  2.000E+01  2.000E+04 -1.389E-01
   1   13    2     1     2    1.0278E+05 -3.8882E+03   1.0667E+05  0.000E+00  0.000E+00  0.000E+00  4.79328E+01  1.487E-01  2.000E+01  2.000E+04 -1.944E-01
   1   14    3     1     3    1.0667E+05 -6.5713E+02   1.0732E+05  0.000E+00  0.000E+00  0.000E+00  4.74575E+01  1.506E-01  2.000E+01  2.000E+04 -3.286E-02
   1   15    4     1     4    1.0732E+05 -6.3988E+02   1.0796E+05  0.000E+00  0.000E+00  0.000E+00  4.69807E+01  1.512E-01  2.000E+01  2.000E+04 -3.199E-02
   1   16    5     1     5    1.0796E+05 -2.4534E+03   1.1042E+05  0.000E+00  0.000E+00  0.000E+00  4.65048E+01  1.525E-01  2.000E+01  2.000E+04 -1.227E-01
   1   16    6     1     6    1.1042E+05 -1.4998E+03   1.1192E+05  0.000E+00  0.000E+00  0.000E+00  4.60291E+01  1.541E-01  2.000E+01  2.000E+04 -7.499E-02
   1   16    7     1     7    1.1192E+05 -1.4614E+03   1.1338E+05  0.000E+00  0.000E+00  0.000E+00  4.55531E+01  1.554E-01  2.000E+01  2.000E+04 -7.307E-02
   1   16    8     1     8    1.1338E+05 -1.4464E+03   1.1482E+05  0.000E+00  0.000E+00  0.000E+00  4.50770E+01  1.566E-01  2.000E+01  2.000E+04 -7.232E-02
   1   16    9     1     9    1.1482E+05 -1.4242E+03   1.1625E+05  0.000E+00  0.000E+00  0.000E+00  4.46009E+01  1.577E-01  2.000E+01  2.000E+04 -7.121E-02
   1   16   10     1    10    1.1625E+05 -1.3904E+03   1.1764E+05  0.000E+00  0.000E+00  0.000E+00  4.41248E+01  1.589E-01  2.000E+01  2.000E+04 -6.952E-02
   1   16   11     1    11    1.1764E+05 -1.3722E+03   1.1901E+05  0.000E+00  0.000E+00  0.000E+00  4.36487E+01  1.600E-01  2.000E+01  2.000E+04 -6.861E-02
   1   16   12     1    12    1.1901E+05 -2.3748E+03   1.2139E+05  0.000E+00  0.000E+00  0.000E+00  4.31729E+01  1.615E-01  2.000E+01  2.000E+04 -1.187E-01
   1   15   13     1    13    1.2139E+05 -2.3213E+03   1.2371E+05  0.000E+00  0.000E+00  0.000E+00  4.26975E+01  1.634E-01  2.000E+01  2.000E+04 -1.161E-01
   1   14   14     1    14    1.2371E+05 -2.6557E+03   1.2636E+05  0.000E+00  0.000E+00  0.000E+00  4.22222E+01  1.654E-01  2.000E+01  2.000E+04 -1.328E-01
   1   13   15     1    15    1.2636E+05 -3.0382E+03   1.2940E+05  0.000E+00  0.000E+00  0.000E+00  4.17472E+01  1.677E-01  2.000E+01  2.000E+04 -1.519E-01
   1   12   16     1    16    1.2940E+05 -4.0167E+03   1.3342E+05  0.000E+00  0.000E+00  0.000E+00  4.12727E+01  1.704E-01  2.000E+01  2.000E+04 -2.008E-01
   1   12   17     1    17    1.3342E+05 -2.4633E+03   1.3588E+05  0.000E+00  0.000E+00  0.000E+00  4.07979E+01  1.729E-01  2.000E+01  2.000E+04 -1.232E-01
   1   12   18     1    18    1.3588E+05 -2.2596E+03   1.3814E+05  0.000E+00  0.000E+00  0.000E+00  4.03225E+01  1.747E-01  2.000E+01  2.000E+04 -1.130E-01
   1   12   19     1    19    1.3814E+05 -2.9410E+03   1.4108E+05  0.000E+00  0.000E+00  0.000E+00  3.98472E+01  1.767E-01  2.000E+01  2.000E+04 -1.470E-01
   1   13   20     1    20    1.4108E+05 -1.3189E+03   1.4240E+05  0.000E+00  0.000E+00  0.000E+00  3.93715E+01  1.783E-01  2.000E+01  2.000E+04 -6.595E-02
   1   14   21     1    21    1.4240E+05  3.3637E+03   1.3904E+05  0.000E+00  0.000E+00  0.000E+00  3.88935E+01  1.776E-01  2.000E+01  2.000E+04  1.682E-01
   1   14   22     1    22    1.3904E+05  5.6961E+03   1.3334E+05  0.000E+00  0.000E+00  0.000E+00  3.84127E+01  1.741E-01  2.000E+01  2.000E+04  2.848E-01
   1    9   30     2     1    5.0000E+04  1.7981E+03   4.8202E+04  0.000E+00  0.000E+00  0.000E+00  4.02396E+01  1.146E-01  2.000E+01  2.000E+04  8.991E-02
   1    9   29     2     2    4.8202E+04  3.7298E+03   4.4472E+04  0.000E+00  0.000E+00  0.000E+00  3.99857E+01  1.107E-01  2.000E+01  2.000E+04  1.865E-01
   1    9   28     2     3    4.4472E+04  5.0303E+02   4.3969E+04  0.000E+00  0.000E+00  0.000E+00  3.97326E+01  1.076E-01  2.000E+01  2.000E+04  2.515E-02
   1    9   27     2     4    4.3969E+04 -2.3298E+03   4.6299E+04  0.000E+00  0.000E+00  0.000E+00  3.94840E+01  1.090E-01  2.000E+01  2.000E+04 -1.165E-01
   1   10   26     2     5    4.6299E+04 -9.4718E+02   4.7246E+04  0.000E+00  0.000E+00  0.000E+00  3.92363E+01  1.113E-01  2.000E+01  2.000E+04 -4.736E-02
   1   11   25     2     6    4.7246E+04 -1.2242E+03   4.8470E+04  0.000E+00  0.000E+00  0.000E+00  3.89879E+01  1.129E-01  2.000E+01  2.000E+04 -6.121E-02
   1   12   24     2     7    4.8470E+04 -1.6968E+03   5.0167E+04  0.000E+00  0.000E+00  0.000E+00  3.87399E+01  1.149E-01  2.000E+01  2.000E+04 -8.484E-02
   1   13   23     2     8    5.0167E+04 -2.7404E+02   5.0441E+04  0.000E+00  0.000E+00  0.000E+00  3.84913E+01  1.163E-01  2.000E+01  2.000E+04 -1.370E-02
   1   14   22     2     9    5.0441E+04  2.2397E+03   4.8201E+04  0.000E+00  0.000E+00  0.000E+00  3.82399E+01  1.149E-01  2.000E+01  2.000E+04  1.120E-01
   1   14   22     3     1    1.8154E+05 -7.9692E+03   1.8951E+05  0.000E+00  0.000E+00  0.000E+00  3.77295E+01  1.739E-01  2.000E+01  2.000E+04 -3.985E-01
   1   15   23     3     2    1.8951E+05 -7.8515E+01   1.8959E+05  0.000E+00  0.000E+00  0.000E+00  3.68428E+01  1.762E-01  2.000E+01  2.000E+04 -3.926E-03
   1   15   24     3     3    1.8959E+05 -2.5996E+02   1.8985E+05  0.000E+00  0.000E+00  0.000E+00  3.59540E+01  1.763E-01  2.000E+01  2.000E+04 -1.300E-02
   1   15   25     3     4    1.8985E+05 -2.6058E+02   1.9011E+05  0.000E+00  0.000E+00  0.000E+00  3.50653E+01  1.764E-01  2.000E+01  2.000E+04 -1.303E-02
   1   15   26     3     5    1.9011E+05 -1.5718E+02   1.9027E+05  0.000E+00  0.000E+00  0.000E+00  3.41765E+01  1.765E-01  2.000E+01  2.000E+04 -7.859E-03
   1   16   27     3     6    1.9027E+05  1.0189E+02   1.9017E+05  0.000E+00  0.000E+00  0.000E+00  3.32877E+01  1.765E-01  2.000E+01  2.000E+04  5.094E-03
   1   17   28     3     7    1.9017E+05  6.7769E+03   1.8339E+05  0.000E+00  0.000E+00  0.000E+00  3.23968E+01  1.746E-01  2.000E+01  2.000E+04  3.388E-01
   1   18   29     3     8    1.8339E+05  8.2777E+03   1.7511E+05  0.000E+00  0.000E+00  0.000E+00  3.15037E+01  1.704E-01  2.000E+01  2.000E+04  4.139E-01
   1   18   30     3     9    1.7511E+05  2.4052E+03   1.7271E+05  0.000E+00  0.000E+00  0.000E+00  3.06117E+01  1.673E-01  2.000E+01  2.000E+04  1.203E-01



1
              HEAD IN LAYER   1 AT END OF TIME STEP   1 IN STRESS PERIOD    3
  ---------------------------------------------------------------------------

          1      2      3      4      5      6      7      8      9     10
         11     12     13     14     15     16     17     18     19     20
         21     22     23     24     25     26     27     28     29     30
 .........................................................................
   1  ****** ****** ****** ****** ****** ****** ****** ****** ****** ******
      ****** ****** ****** ****** ****** ****** ****** ****** ****** ******
      ****** ****** ****** ****** ****** ****** ****** ****** ****** ******
   2  ****** ****** ****** ****** ****** ****** ****** ****** ****** ******
      ****** ****** ****** ****** ****** ****** ****** ****** ****** ******
      ****** ****** ****** ****** ****** ****** ****** ****** ****** ******
   3  ****** ****** ****** ****** ****** ****** ****** ****** ****** ******
      ****** ****** ****** ****** ****** ****** ****** ****** ****** ******
      ****** ****** ****** ****** ****** ****** ****** ****** ****** ******
   4  ****** ****** ****** ****** ****** ****** ****** ****** ****** ******
      ****** ****** ****** ****** ****** ****** ****** ****** ****** ******
      ****** ****** ****** ****** ****** ****** ****** ****** ****** ******
   5  ****** ****** ****** ****** ****** ****** ****** ****** ****** ******
      ****** ****** ****** ****** ****** ****** ****** ****** ****** ******
      ****** ****** ****** ****** ****** ****** ****** ****** ****** ******
   6  ****** ****** ****** ****** ****** ****** ****** ****** ****** ******
      ****** ****** ****** ****** ****** ****** ****** ****** ****** ******
      ****** ****** ****** ****** ****** ****** ****** ****** ****** ******
   7  ****** ****** ****** ****** ****** ****** ****** ****** ****** ******
      ****** ****** ****** ****** ****** ****** ****** ****** ****** ******
      ****** ****** ****** ****** ****** ****** ****** ****** ****** ******
   8  ****** ****** ****** ****** ****** ****** ****** ****** ****** ******
      ****** ****** ****** ****** ****** ****** ****** ****** ****** ******
      ****** ****** ****** ****** ****** ****** ****** ****** ****** ******
   9  ****** ****** ****** ****** ****** ****** ****** ****** ****** ******
      ****** ****** ****** ****** ****** ****** ****** ****** ****** ******
      ****** ****** ****** ****** ****** ****** ****** ****** ****** ******
  10  ****** ****** ****** ****** ****** ****** ****** ****** ****** ******
      ****** ****** ****** ****** ****** ****** ****** ****** ****** ******
      ****** ****** ****** ****** ****** ****** ****** ****** ****** ******
  11  ****** ****** ****** ****** ****** ****** ****** ****** ****** ******
      ****** ****** ****** ****** ****** ****** ****** ****** ****** ******
      ****** ****** ****** ****** ****** ****** ****** ****** ****** ******
  12  ****** ****** ****** ****** ****** ****** ****** ****** ****** ******
      ****** ****** ****** ****** ****** ****** ****** ****** ****** ******
      ****** ****** ****** ****** ****** ****** ****** ****** ****** ******
  13  ****** ****** ****** ****** ****** ****** ****** ****** ****** ******
      ****** ****** ****** ****** ****** ****** ****** ****** ****** ******
      ****** ****** ****** ****** ****** ****** ****** ****** ****** ******
  14  ****** ****** ****** ****** ****** ****** ****** ****** ****** ******
      ****** ****** ****** ****** ****** ****** ****** ****** ****** ******
      ****** ****** ****** ****** ****** ****** ****** ****** ****** ******
  15  ****** ****** ****** ****** ****** ****** ****** ****** ****** ******
      ****** ****** ****** ****** ****** ****** ****** ****** ****** ******
      ****** ****** ****** ****** ****** ****** ****** ****** ****** ******
  16  ****** ****** ****** ****** ****** ****** ****** ****** ****** ******
      ****** ****** ****** ****** ****** ****** ****** ****** ****** ******
      ****** ****** ****** ****** ****** ****** ****** ****** ****** ******
  17  ****** ****** ****** ****** ****** ****** ****** ****** ****** ******
      ****** ****** ****** ****** ****** ****** ****** ****** ****** ******
      ****** ****** ****** ****** ****** ****** ****** ****** ****** ******
  18  ****** ****** ****** ****** ****** ****** ****** ****** ****** ******
      ****** ****** ****** ****** ****** ****** ****** ****** ****** ******
      ****** ****** ****** ****** ****** ****** ****** ****** ****** ******
  19  ****** ****** ****** ****** ****** ****** ****** ****** ****** ******
      ****** ****** ****** ****** ****** ****** ****** ****** ****** ******
      ****** ****** ****** ****** ****** ****** ****** ****** ****** ******
  20  ****** ****** ****** ****** ****** ****** ****** ****** ****** ******
      ****** ****** ****** ****** ****** ****** ****** ****** ****** ******
      ****** ****** ****** ****** ****** ****** ****** ****** ****** ******
  21  ****** ****** ****** ****** ****** ****** ****** ****** ****** ******
      ****** ****** ****** ****** ****** ****** ****** ****** ****** ******
      ****** ****** ****** ****** ****** ****** ****** ****** ****** ******
  22  ****** ****** ****** ****** ****** ****** ****** ****** ****** ******
      ****** ****** ****** ****** ****** ****** ****** ****** ****** ******
      ****** ****** ****** ****** ****** ****** ****** ****** ****** ******
  23  ****** ****** ****** ****** ****** ****** ****** ****** ****** ******
      ****** ****** ****** ****** ****** ****** ****** ****** ****** ******
      ****** ****** ****** ****** ****** ****** ****** ****** ****** ******
  24  ****** ****** ****** ****** ****** ****** ****** ****** ****** ******
      ****** ****** ****** ****** ****** ****** ****** ****** ****** ******
      ****** ****** ****** ****** ****** ****** ****** ****** ****** ******
  25  ****** ****** ****** ****** ****** ****** ****** ****** ****** ******
      ****** ****** ****** ****** ****** ****** ****** ****** ****** ******
      ****** ****** ****** ****** ****** ****** ****** ****** ****** ******

 HEAD WILL BE SAVED ON UNIT   51 AT END OF TIME STEP    1, STRESS PERIOD    3
1
  VOLUMETRIC BUDGET FOR ENTIRE MODEL AT END OF TIME STEP    1, STRESS PERIOD   3
  ------------------------------------------------------------------------------

     CUMULATIVE VOLUMES      L**3       RATES FOR THIS TIME STEP      L**3/T
     ------------------                 ------------------------

           IN:                                      IN:
           ---                                      ---
             STORAGE =    26867749.9016               STORAGE =       53211.0576
       CONSTANT HEAD =     4853504.2088         CONSTANT HEAD =       24660.2210
               WELLS =           0.0000                 WELLS =           0.0000
            RECHARGE =     6292800.0000              RECHARGE =           0.0000
      STREAM LEAKAGE =     6304493.8073        STREAM LEAKAGE =       34892.0817

            TOTAL IN =    44318547.9177              TOTAL IN =      112763.3603

          OUT:                                     OUT:
          ----                                     ----
             STORAGE =           0.0000               STORAGE =           0.0000
       CONSTANT HEAD =           0.0000         CONSTANT HEAD =           0.0000
               WELLS =    15115311.7752                 WELLS =       55165.3714
            RECHARGE =           0.0000              RECHARGE =           0.0000
      STREAM LEAKAGE =    29203238.0498        STREAM LEAKAGE =       57597.9962

           TOTAL OUT =    44318549.8250             TOTAL OUT =      112763.3677

            IN - OUT =          -1.9073              IN - OUT =      -7.4021E-03

 PERCENT DISCREPANCY =          -0.00     PERCENT DISCREPANCY =          -0.00






         TIME SUMMARY AT END OF TIME STEP    1 IN STRESS PERIOD    3
                    SECONDS     MINUTES      HOURS       DAYS        YEARS
                    -----------------------------------------------------------
   TIME STEP LENGTH 7.86240E+06 1.31040E+05  2184.0      91.000     0.24914    
 STRESS PERIOD TIME 7.86240E+06 1.31040E+05  2184.0      91.000     0.24914    
         TOTAL TIME 2.36736E+07 3.94560E+05  6576.0      274.00     0.75017    
1
1
                            STRESS PERIOD NO.    4, LENGTH =   91.00000    
                            -----------------------------------------------

                              NUMBER OF TIME STEPS =     1

                               MULTIPLIER FOR DELT =     1.500

                            INITIAL TIME STEP SIZE =   91.00000    

 WELL NO.  LAYER   ROW   COL   STRESS RATE         
 --------------------------------------------------
      1      1     10     29     -0.1299E+05
      2      1     15     21     -0.1317E+05
      3      1     19     29     -0.1184E+05
      4      1     17     29     -0.1716E+05

      4 WELLS

                 RECHARGE =  1.000000E-03

 REUSING STREAM SEGMENT DATA FROM LAST STRESS PERIOD
 
 SOLVING FOR HEAD 


     7 CALLS TO PCG ROUTINE FOR TIME STEP   1 IN STRESS PERIOD    4
    24 TOTAL ITERATIONS

 OUTPUT CONTROL FOR STRESS PERIOD    4   TIME STEP    1
    SAVE BUDGET
    SAVE HEAD FOR ALL LAYERS
    PRINT HEAD FOR ALL LAYERS
 UBDSV2 SAVING "STREAMFLOW OUT  " ON UNIT  50 AT TIME STEP  1, STRESS PERIOD   4



 STREAM LISTING     PERIOD      4   STEP        1

 LAYER ROW COL. STREAM  RCH.  FLOW INTO     FLOW TO   FLOW OUT OF   OVRLND.     DIRECT     STREAM       STREAM     STREAM     STREAM   STREAMBED  STREAMBED
                SEG.NO.  NO.  STRM. RCH.    AQUIFER    STRM. RCH.    RUNOFF     PRECIP       ET          HEAD       DEPTH      WIDTH   CONDCTNC.   GRADIENT

   1   13    1     1     1    1.0000E+05 -2.5564E+03   1.0256E+05  0.000E+00  0.000E+00  0.000E+00  4.84071E+01  1.458E-01  2.000E+01  2.000E+04 -1.278E-01
   1   13    2     1     2    1.0256E+05 -3.6302E+03   1.0619E+05  0.000E+00  0.000E+00  0.000E+00  4.79325E+01  1.484E-01  2.000E+01  2.000E+04 -1.815E-01
   1   14    3     1     3    1.0619E+05 -6.3032E+02   1.0682E+05  0.000E+00  0.000E+00  0.000E+00  4.74570E+01  1.502E-01  2.000E+01  2.000E+04 -3.152E-02
   1   15    4     1     4    1.0682E+05 -6.0285E+02   1.0742E+05  0.000E+00  0.000E+00  0.000E+00  4.69803E+01  1.507E-01  2.000E+01  2.000E+04 -3.014E-02
   1   16    5     1     5    1.0742E+05 -2.1531E+03   1.0957E+05  0.000E+00  0.000E+00  0.000E+00  4.65042E+01  1.519E-01  2.000E+01  2.000E+04 -1.077E-01
   1   16    6     1     6    1.0957E+05 -1.3525E+03   1.1093E+05  0.000E+00  0.000E+00  0.000E+00  4.60284E+01  1.534E-01  2.000E+01  2.000E+04 -6.763E-02
   1   16    7     1     7    1.1093E+05 -1.3253E+03   1.1225E+05  0.000E+00  0.000E+00  0.000E+00  4.55522E+01  1.545E-01  2.000E+01  2.000E+04 -6.627E-02
   1   16    8     1     8    1.1225E+05 -1.3144E+03   1.1357E+05  0.000E+00  0.000E+00  0.000E+00  4.50760E+01  1.556E-01  2.000E+01  2.000E+04 -6.572E-02
   1   16    9     1     9    1.1357E+05 -1.2945E+03   1.1486E+05  0.000E+00  0.000E+00  0.000E+00  4.45998E+01  1.567E-01  2.000E+01  2.000E+04 -6.472E-02
   1   16   10     1    10    1.1486E+05 -1.2633E+03   1.1612E+05  0.000E+00  0.000E+00  0.000E+00  4.41236E+01  1.577E-01  2.000E+01  2.000E+04 -6.316E-02
   1   16   11     1    11    1.1612E+05 -1.2436E+03   1.1737E+05  0.000E+00  0.000E+00  0.000E+00  4.36474E+01  1.587E-01  2.000E+01  2.000E+04 -6.218E-02
   1   16   12     1    12    1.1737E+05 -2.1042E+03   1.1947E+05  0.000E+00  0.000E+00  0.000E+00  4.31715E+01  1.601E-01  2.000E+01  2.000E+04 -1.052E-01
   1   15   13     1    13    1.1947E+05 -2.0786E+03   1.2155E+05  0.000E+00  0.000E+00  0.000E+00  4.26959E+01  1.618E-01  2.000E+01  2.000E+04 -1.039E-01
   1   14   14     1    14    1.2155E+05 -2.3983E+03   1.2395E+05  0.000E+00  0.000E+00  0.000E+00  4.22204E+01  1.636E-01  2.000E+01  2.000E+04 -1.199E-01
   1   13   15     1    15    1.2395E+05 -2.7645E+03   1.2671E+05  0.000E+00  0.000E+00  0.000E+00  4.17452E+01  1.656E-01  2.000E+01  2.000E+04 -1.382E-01
   1   12   16     1    16    1.2671E+05 -3.6643E+03   1.3038E+05  0.000E+00  0.000E+00  0.000E+00  4.12704E+01  1.682E-01  2.000E+01  2.000E+04 -1.832E-01
   1   12   17     1    17    1.3038E+05 -2.2501E+03   1.3263E+05  0.000E+00  0.000E+00  0.000E+00  4.07955E+01  1.705E-01  2.000E+01  2.000E+04 -1.125E-01
   1   12   18     1    18    1.3263E+05 -2.0610E+03   1.3469E+05  0.000E+00  0.000E+00  0.000E+00  4.03199E+01  1.722E-01  2.000E+01  2.000E+04 -1.031E-01
   1   12   19     1    19    1.3469E+05 -2.6983E+03   1.3739E+05  0.000E+00  0.000E+00  0.000E+00  3.98444E+01  1.740E-01  2.000E+01  2.000E+04 -1.349E-01
   1   13   20     1    20    1.3739E+05 -1.1511E+03   1.3854E+05  0.000E+00  0.000E+00  0.000E+00  3.93686E+01  1.755E-01  2.000E+01  2.000E+04 -5.755E-02
   1   14   21     1    21    1.3854E+05  3.6124E+03   1.3492E+05  0.000E+00  0.000E+00  0.000E+00  3.88904E+01  1.745E-01  2.000E+01  2.000E+04  1.806E-01
   1   14   22     1    22    1.3492E+05  5.7357E+03   1.2919E+05  0.000E+00  0.000E+00  0.000E+00  3.84096E+01  1.709E-01  2.000E+01  2.000E+04  2.868E-01
   1    9   30     2     1    5.0000E+04  1.8857E+03   4.8114E+04  0.000E+00  0.000E+00  0.000E+00  4.02395E+01  1.145E-01  2.000E+01  2.000E+04  9.428E-02
   1    9   29     2     2    4.8114E+04  3.8231E+03   4.4291E+04  0.000E+00  0.000E+00  0.000E+00  3.99855E+01  1.105E-01  2.000E+01  2.000E+04  1.912E-01
   1    9   28     2     3    4.4291E+04  6.1369E+02   4.3678E+04  0.000E+00  0.000E+00  0.000E+00  3.97323E+01  1.073E-01  2.000E+01  2.000E+04  3.068E-02
   1    9   27     2     4    4.3678E+04 -2.0819E+03   4.5759E+04  0.000E+00  0.000E+00  0.000E+00  3.94834E+01  1.084E-01  2.000E+01  2.000E+04 -1.041E-01
   1   10   26     2     5    4.5759E+04 -8.0183E+02   4.6561E+04  0.000E+00  0.000E+00  0.000E+00  3.92354E+01  1.104E-01  2.000E+01  2.000E+04 -4.009E-02
   1   11   25     2     6    4.6561E+04 -1.1179E+03   4.7679E+04  0.000E+00  0.000E+00  0.000E+00  3.89868E+01  1.118E-01  2.000E+01  2.000E+04 -5.590E-02
   1   12   24     2     7    4.7679E+04 -1.6104E+03   4.9290E+04  0.000E+00  0.000E+00  0.000E+00  3.87387E+01  1.137E-01  2.000E+01  2.000E+04 -8.052E-02
   1   13   23     2     8    4.9290E+04 -3.0144E+02   4.9591E+04  0.000E+00  0.000E+00  0.000E+00  3.84901E+01  1.151E-01  2.000E+01  2.000E+04 -1.507E-02
   1   14   22     2     9    4.9591E+04  2.3181E+03   4.7273E+04  0.000E+00  0.000E+00  0.000E+00  3.82387E+01  1.137E-01  2.000E+01  2.000E+04  1.159E-01
   1   14   22     3     1    1.7646E+05 -7.9236E+03   1.8439E+05  0.000E+00  0.000E+00  0.000E+00  3.77266E+01  1.710E-01  2.000E+01  2.000E+04 -3.962E-01
   1   15   23     3     2    1.8439E+05 -4.7222E+01   1.8443E+05  0.000E+00  0.000E+00  0.000E+00  3.68400E+01  1.733E-01  2.000E+01  2.000E+04 -2.361E-03
   1   15   24     3     3    1.8443E+05 -2.5347E+02   1.8469E+05  0.000E+00  0.000E+00  0.000E+00  3.59512E+01  1.734E-01  2.000E+01  2.000E+04 -1.267E-02
   1   15   25     3     4    1.8469E+05 -2.5364E+02   1.8494E+05  0.000E+00  0.000E+00  0.000E+00  3.50624E+01  1.735E-01  2.000E+01  2.000E+04 -1.268E-02
   1   15   26     3     5    1.8494E+05 -1.5869E+02   1.8510E+05  0.000E+00  0.000E+00  0.000E+00  3.41736E+01  1.736E-01  2.000E+01  2.000E+04 -7.934E-03
   1   16   27     3     6    1.8510E+05  1.1235E+02   1.8499E+05  0.000E+00  0.000E+00  0.000E+00  3.32848E+01  1.736E-01  2.000E+01  2.000E+04  5.618E-03
   1   17   28     3     7    1.8499E+05  6.8846E+03   1.7810E+05  0.000E+00  0.000E+00  0.000E+00  3.23939E+01  1.717E-01  2.000E+01  2.000E+04  3.442E-01
   1   18   29     3     8    1.7810E+05  8.5632E+03   1.6954E+05  0.000E+00  0.000E+00  0.000E+00  3.15006E+01  1.672E-01  2.000E+01  2.000E+04  4.282E-01
   1   18   30     3     9    1.6954E+05  2.5597E+03   1.6698E+05  0.000E+00  0.000E+00  0.000E+00  3.06085E+01  1.640E-01  2.000E+01  2.000E+04  1.280E-01



1
              HEAD IN LAYER   1 AT END OF TIME STEP   1 IN STRESS PERIOD    4
  ---------------------------------------------------------------------------

          1      2      3      4      5      6      7      8      9     10
         11     12     13     14     15     16     17     18     19     20
         21     22     23     24     25     26     27     28     29     30
 .........................................................................
   1  ****** ****** ****** ****** ****** ****** ****** ****** ****** ******
      ****** ****** ****** ****** ****** ****** ****** ****** ****** ******
      ****** ****** ****** ****** ****** ****** ****** ****** ****** ******
   2  ****** ****** ****** ****** ****** ****** ****** ****** ****** ******
      ****** ****** ****** ****** ****** ****** ****** ****** ****** ******
      ****** ****** ****** ****** ****** ****** ****** ****** ****** ******
   3  ****** ****** ****** ****** ****** ****** ****** ****** ****** ******
      ****** ****** ****** ****** ****** ****** ****** ****** ****** ******
      ****** ****** ****** ****** ****** ****** ****** ****** ****** ******
   4  ****** ****** ****** ****** ****** ****** ****** ****** ****** ******
      ****** ****** ****** ****** ****** ****** ****** ****** ****** ******
      ****** ****** ****** ****** ****** ****** ****** ****** ****** ******
   5  ****** ****** ****** ****** ****** ****** ****** ****** ****** ******
      ****** ****** ****** ****** ****** ****** ****** ****** ****** ******
      ****** ****** ****** ****** ****** ****** ****** ****** ****** ******
   6  ****** ****** ****** ****** ****** ****** ****** ****** ****** ******
      ****** ****** ****** ****** ****** ****** ****** ****** ****** ******
      ****** ****** ****** ****** ****** ****** ****** ****** ****** ******
   7  ****** ****** ****** ****** ****** ****** ****** ****** ****** ******
      ****** ****** ****** ****** ****** ****** ****** ****** ****** ******
      ****** ****** ****** ****** ****** ****** ****** ****** ****** ******
   8  ****** ****** ****** ****** ****** ****** ****** ****** ****** ******
      ****** ****** ****** ****** ****** ****** ****** ****** ****** ******
      ****** ****** ****** ****** ****** ****** ****** ****** ****** ******
   9  ****** ****** ****** ****** ****** ****** ****** ****** ****** ******
      ****** ****** ****** ****** ****** ****** ****** ****** ****** ******
      ****** ****** ****** ****** ****** ****** ****** ****** ****** ******
  10  ****** ****** ****** ****** ****** ****** ****** ****** ****** ******
      ****** ****** ****** ****** ****** ****** ****** ****** ****** ******
      ****** ****** ****** ****** ****** ****** ****** ****** ****** ******
  11  ****** ****** ****** ****** ****** ****** ****** ****** ****** ******
      ****** ****** ****** ****** ****** ****** ****** ****** ****** ******
      ****** ****** ****** ****** ****** ****** ****** ****** ****** ******
  12  ****** ****** ****** ****** ****** ****** ****** ****** ****** ******
      ****** ****** ****** ****** ****** ****** ****** ****** ****** ******
      ****** ****** ****** ****** ****** ****** ****** ****** ****** ******
  13  ****** ****** ****** ****** ****** ****** ****** ****** ****** ******
      ****** ****** ****** ****** ****** ****** ****** ****** ****** ******
      ****** ****** ****** ****** ****** ****** ****** ****** ****** ******
  14  ****** ****** ****** ****** ****** ****** ****** ****** ****** ******
      ****** ****** ****** ****** ****** ****** ****** ****** ****** ******
      ****** ****** ****** ****** ****** ****** ****** ****** ****** ******
  15  ****** ****** ****** ****** ****** ****** ****** ****** ****** ******
      ****** ****** ****** ****** ****** ****** ****** ****** ****** ******
      ****** ****** ****** ****** ****** ****** ****** ****** ****** ******
  16  ****** ****** ****** ****** ****** ****** ****** ****** ****** ******
      ****** ****** ****** ****** ****** ****** ****** ****** ****** ******
      ****** ****** ****** ****** ****** ****** ****** ****** ****** ******
  17  ****** ****** ****** ****** ****** ****** ****** ****** ****** ******
      ****** ****** ****** ****** ****** ****** ****** ****** ****** ******
      ****** ****** ****** ****** ****** ****** ****** ****** ****** ******
  18  ****** ****** ****** ****** ****** ****** ****** ****** ****** ******
      ****** ****** ****** ****** ****** ****** ****** ****** ****** ******
      ****** ****** ****** ****** ****** ****** ****** ****** ****** ******
  19  ****** ****** ****** ****** ****** ****** ****** ****** ****** ******
      ****** ****** ****** ****** ****** ****** ****** ****** ****** ******
      ****** ****** ****** ****** ****** ****** ****** ****** ****** ******
  20  ****** ****** ****** ****** ****** ****** ****** ****** ****** ******
      ****** ****** ****** ****** ****** ****** ****** ****** ****** ******
      ****** ****** ****** ****** ****** ****** ****** ****** ****** ******
  21  ****** ****** ****** ****** ****** ****** ****** ****** ****** ******
      ****** ****** ****** ****** ****** ****** ****** ****** ****** ******
      ****** ****** ****** ****** ****** ****** ****** ****** ****** ******
  22  ****** ****** ****** ****** ****** ****** ****** ****** ****** ******
      ****** ****** ****** ****** ****** ****** ****** ****** ****** ******
      ****** ****** ****** ****** ****** ****** ****** ****** ****** ******
  23  ****** ****** ****** ****** ****** ****** ****** ****** ****** ******
      ****** ****** ****** ****** ****** ****** ****** ****** ****** ******
      ****** ****** ****** ****** ****** ****** ****** ****** ****** ******
  24  ****** ****** ****** ****** ****** ****** ****** ****** ****** ******
      ****** ****** ****** ****** ****** ****** ****** ****** ****** ******
      ****** ****** ****** ****** ****** ****** ****** ****** ****** ******
  25  ****** ****** ****** ****** ****** ****** ****** ****** ****** ******
      ****** ****** ****** ****** ****** ****** ****** ****** ****** ******
      ****** ****** ****** ****** ****** ****** ****** ****** ****** ******

 HEAD WILL BE SAVED ON UNIT   51 AT END OF TIME STEP    1, STRESS PERIOD    4
1
  VOLUMETRIC BUDGET FOR ENTIRE MODEL AT END OF TIME STEP    1, STRESS PERIOD   4
  ------------------------------------------------------------------------------

     CUMULATIVE VOLUMES      L**3       RATES FOR THIS TIME STEP      L**3/T
     ------------------                 ------------------------

           IN:                                      IN:
           ---                                      ---
             STORAGE =    28454598.9352               STORAGE =       17437.9015
       CONSTANT HEAD =     7320676.2817         CONSTANT HEAD =       27111.7810
               WELLS =           0.0000                 WELLS =           0.0000
            RECHARGE =     8804400.0000              RECHARGE =       27600.0000
      STREAM LEAKAGE =     9590365.3409        STREAM LEAKAGE =       36108.4784

            TOTAL IN =    54170040.5579              TOTAL IN =      108258.1609

          OUT:                                     OUT:
          ----                                     ----
             STORAGE =         538.3734               STORAGE =           5.9162
       CONSTANT HEAD =           0.0000         CONSTANT HEAD =           0.0000
               WELLS =    20135360.5765                 WELLS =       55165.3714
            RECHARGE =           0.0000              RECHARGE =           0.0000
      STREAM LEAKAGE =    34034143.6167        STREAM LEAKAGE =       53086.8744

           TOTAL OUT =    54170042.5666             TOTAL OUT =      108258.1620

            IN - OUT =          -2.0087              IN - OUT =      -1.1139E-03

 PERCENT DISCREPANCY =          -0.00     PERCENT DISCREPANCY =          -0.00






         TIME SUMMARY AT END OF TIME STEP    1 IN STRESS PERIOD    4
                    SECONDS     MINUTES      HOURS       DAYS        YEARS
                    -----------------------------------------------------------
   TIME STEP LENGTH 7.86240E+06 1.31040E+05  2184.0      91.000     0.24914    
 STRESS PERIOD TIME 7.86240E+06 1.31040E+05  2184.0      91.000     0.24914    
         TOTAL TIME 3.15360E+07 5.25600E+05  8760.0      365.00     0.99932    
1
1
                            STRESS PERIOD NO.    5, LENGTH =   92.00000    
                            -----------------------------------------------

                              NUMBER OF TIME STEPS =     1

                               MULTIPLIER FOR DELT =     1.500

                            INITIAL TIME STEP SIZE =   92.00000    

 WELL NO.  LAYER   ROW   COL   STRESS RATE         
 --------------------------------------------------
      1      1     10     29     -0.1299E+05
      2      1     15     21     -0.1317E+05
      3      1     19     29     -0.1184E+05
      4      1     17     29     -0.1716E+05

      4 WELLS

                 RECHARGE =  5.000000E-04

 REUSING STREAM SEGMENT DATA FROM LAST STRESS PERIOD
 
 SOLVING FOR HEAD 


     7 CALLS TO PCG ROUTINE FOR TIME STEP   1 IN STRESS PERIOD    5
    26 TOTAL ITERATIONS

 OUTPUT CONTROL FOR STRESS PERIOD    5   TIME STEP    1
    SAVE BUDGET
    SAVE HEAD FOR ALL LAYERS
    PRINT HEAD FOR ALL LAYERS
 UBDSV2 SAVING "STREAMFLOW OUT  " ON UNIT  50 AT TIME STEP  1, STRESS PERIOD   5



 STREAM LISTING     PERIOD      5   STEP        1

 LAYER ROW COL. STREAM  RCH.  FLOW INTO     FLOW TO   FLOW OUT OF   OVRLND.     DIRECT     STREAM       STREAM     STREAM     STREAM   STREAMBED  STREAMBED
                SEG.NO.  NO.  STRM. RCH.    AQUIFER    STRM. RCH.    RUNOFF     PRECIP       ET          HEAD       DEPTH      WIDTH   CONDCTNC.   GRADIENT

   1   13    1     1     1    1.0000E+05 -2.1540E+03   1.0215E+05  0.000E+00  0.000E+00  0.000E+00  4.84069E+01  1.456E-01  2.000E+01  2.000E+04 -1.077E-01
   1   13    2     1     2    1.0215E+05 -3.1752E+03   1.0533E+05  0.000E+00  0.000E+00  0.000E+00  4.79320E+01  1.479E-01  2.000E+01  2.000E+04 -1.588E-01
   1   14    3     1     3    1.0533E+05 -5.0979E+02   1.0584E+05  0.000E+00  0.000E+00  0.000E+00  4.74563E+01  1.494E-01  2.000E+01  2.000E+04 -2.549E-02
   1   15    4     1     4    1.0584E+05 -4.7542E+02   1.0631E+05  0.000E+00  0.000E+00  0.000E+00  4.69794E+01  1.499E-01  2.000E+01  2.000E+04 -2.377E-02
   1   16    5     1     5    1.0631E+05 -1.7239E+03   1.0804E+05  0.000E+00  0.000E+00  0.000E+00  4.65031E+01  1.508E-01  2.000E+01  2.000E+04 -8.619E-02
   1   16    6     1     6    1.0804E+05 -1.1017E+03   1.0914E+05  0.000E+00  0.000E+00  0.000E+00  4.60270E+01  1.520E-01  2.000E+01  2.000E+04 -5.509E-02
   1   16    7     1     7    1.0914E+05 -1.0849E+03   1.1022E+05  0.000E+00  0.000E+00  0.000E+00  4.55506E+01  1.529E-01  2.000E+01  2.000E+04 -5.424E-02
   1   16    8     1     8    1.1022E+05 -1.0775E+03   1.1130E+05  0.000E+00  0.000E+00  0.000E+00  4.50743E+01  1.538E-01  2.000E+01  2.000E+04 -5.387E-02
   1   16    9     1     9    1.1130E+05 -1.0602E+03   1.1236E+05  0.000E+00  0.000E+00  0.000E+00  4.45979E+01  1.547E-01  2.000E+01  2.000E+04 -5.301E-02
   1   16   10     1    10    1.1236E+05 -1.0319E+03   1.1339E+05  0.000E+00  0.000E+00  0.000E+00  4.41215E+01  1.556E-01  2.000E+01  2.000E+04 -5.160E-02
   1   16   11     1    11    1.1339E+05 -1.0109E+03   1.1441E+05  0.000E+00  0.000E+00  0.000E+00  4.36450E+01  1.564E-01  2.000E+01  2.000E+04 -5.055E-02
   1   16   12     1    12    1.1441E+05 -1.6875E+03   1.1609E+05  0.000E+00  0.000E+00  0.000E+00  4.31689E+01  1.575E-01  2.000E+01  2.000E+04 -8.437E-02
   1   15   13     1    13    1.1609E+05 -1.6456E+03   1.1774E+05  0.000E+00  0.000E+00  0.000E+00  4.26930E+01  1.589E-01  2.000E+01  2.000E+04 -8.228E-02
   1   14   14     1    14    1.1774E+05 -1.9424E+03   1.1968E+05  0.000E+00  0.000E+00  0.000E+00  4.22171E+01  1.603E-01  2.000E+01  2.000E+04 -9.712E-02
   1   13   15     1    15    1.1968E+05 -2.2963E+03   1.2198E+05  0.000E+00  0.000E+00  0.000E+00  4.17416E+01  1.620E-01  2.000E+01  2.000E+04 -1.148E-01
   1   12   16     1    16    1.2198E+05 -3.1601E+03   1.2514E+05  0.000E+00  0.000E+00  0.000E+00  4.12665E+01  1.642E-01  2.000E+01  2.000E+04 -1.580E-01
   1   12   17     1    17    1.2514E+05 -1.9081E+03   1.2705E+05  0.000E+00  0.000E+00  0.000E+00  4.07912E+01  1.662E-01  2.000E+01  2.000E+04 -9.541E-02
   1   12   18     1    18    1.2705E+05 -1.7347E+03   1.2878E+05  0.000E+00  0.000E+00  0.000E+00  4.03154E+01  1.677E-01  2.000E+01  2.000E+04 -8.673E-02
   1   12   19     1    19    1.2878E+05 -2.3049E+03   1.3108E+05  0.000E+00  0.000E+00  0.000E+00  3.98397E+01  1.693E-01  2.000E+01  2.000E+04 -1.152E-01
   1   13   20     1    20    1.3108E+05 -7.9815E+02   1.3188E+05  0.000E+00  0.000E+00  0.000E+00  3.93637E+01  1.705E-01  2.000E+01  2.000E+04 -3.991E-02
   1   14   21     1    21    1.3188E+05  4.0003E+03   1.2788E+05  0.000E+00  0.000E+00  0.000E+00  3.88851E+01  1.692E-01  2.000E+01  2.000E+04  2.000E-01
   1   14   22     1    22    1.2788E+05  5.8187E+03   1.2206E+05  0.000E+00  0.000E+00  0.000E+00  3.84040E+01  1.654E-01  2.000E+01  2.000E+04  2.909E-01
   1    9   30     2     1    5.0000E+04  2.1129E+03   4.7887E+04  0.000E+00  0.000E+00  0.000E+00  4.02394E+01  1.144E-01  2.000E+01  2.000E+04  1.056E-01
   1    9   29     2     2    4.7887E+04  4.0533E+03   4.3834E+04  0.000E+00  0.000E+00  0.000E+00  3.99850E+01  1.100E-01  2.000E+01  2.000E+04  2.027E-01
   1    9   28     2     3    4.3834E+04  8.5449E+02   4.2979E+04  0.000E+00  0.000E+00  0.000E+00  3.97314E+01  1.064E-01  2.000E+01  2.000E+04  4.272E-02
   1    9   27     2     4    4.2979E+04 -1.7065E+03   4.4686E+04  0.000E+00  0.000E+00  0.000E+00  3.94821E+01  1.071E-01  2.000E+01  2.000E+04 -8.533E-02
   1   10   26     2     5    4.4686E+04 -4.7207E+02   4.5158E+04  0.000E+00  0.000E+00  0.000E+00  3.92337E+01  1.087E-01  2.000E+01  2.000E+04 -2.360E-02
   1   11   25     2     6    4.5158E+04 -8.1499E+02   4.5973E+04  0.000E+00  0.000E+00  0.000E+00  3.89846E+01  1.096E-01  2.000E+01  2.000E+04 -4.075E-02
   1   12   24     2     7    4.5973E+04 -1.3346E+03   4.7307E+04  0.000E+00  0.000E+00  0.000E+00  3.87361E+01  1.111E-01  2.000E+01  2.000E+04 -6.673E-02
   1   13   23     2     8    4.7307E+04 -2.3425E+02   4.7542E+04  0.000E+00  0.000E+00  0.000E+00  3.84872E+01  1.122E-01  2.000E+01  2.000E+04 -1.171E-02
   1   14   22     2     9    4.7542E+04  2.4522E+03   4.5090E+04  0.000E+00  0.000E+00  0.000E+00  3.82357E+01  1.107E-01  2.000E+01  2.000E+04  1.226E-01
   1   14   22     3     1    1.6715E+05 -7.8368E+03   1.7499E+05  0.000E+00  0.000E+00  0.000E+00  3.77212E+01  1.657E-01  2.000E+01  2.000E+04 -3.918E-01
   1   15   23     3     2    1.7499E+05  5.5528E+01   1.7493E+05  0.000E+00  0.000E+00  0.000E+00  3.68346E+01  1.679E-01  2.000E+01  2.000E+04  2.776E-03
   1   15   24     3     3    1.7493E+05 -1.7818E+02   1.7511E+05  0.000E+00  0.000E+00  0.000E+00  3.59457E+01  1.679E-01  2.000E+01  2.000E+04 -8.909E-03
   1   15   25     3     4    1.7511E+05 -1.7894E+02   1.7529E+05  0.000E+00  0.000E+00  0.000E+00  3.50569E+01  1.680E-01  2.000E+01  2.000E+04 -8.947E-03
   1   15   26     3     5    1.7529E+05 -8.3425E+01   1.7538E+05  0.000E+00  0.000E+00  0.000E+00  3.41681E+01  1.681E-01  2.000E+01  2.000E+04 -4.171E-03
   1   16   27     3     6    1.7538E+05  2.0777E+02   1.7517E+05  0.000E+00  0.000E+00  0.000E+00  3.32792E+01  1.681E-01  2.000E+01  2.000E+04  1.039E-02
   1   17   28     3     7    1.7517E+05  7.1709E+03   1.6800E+05  0.000E+00  0.000E+00  0.000E+00  3.23882E+01  1.660E-01  2.000E+01  2.000E+04  3.585E-01
   1   18   29     3     8    1.6800E+05  8.9707E+03   1.5903E+05  0.000E+00  0.000E+00  0.000E+00  3.14946E+01  1.612E-01  2.000E+01  2.000E+04  4.485E-01
   1   18   30     3     9    1.5903E+05  2.8387E+03   1.5619E+05  0.000E+00  0.000E+00  0.000E+00  3.06021E+01  1.577E-01  2.000E+01  2.000E+04  1.419E-01



1
              HEAD IN LAYER   1 AT END OF TIME STEP   1 IN STRESS PERIOD    5
  ---------------------------------------------------------------------------

          1      2      3      4      5      6      7      8      9     10
         11     12     13     14     15     16     17     18     19     20
         21     22     23     24     25     26     27     28     29     30
 .........................................................................
   1  ****** ****** ****** ****** ****** ****** ****** ****** ****** ******
      ****** ****** ****** ****** ****** ****** ****** ****** ****** ******
      ****** ****** ****** ****** ****** ****** ****** ****** ****** ******
   2  ****** ****** ****** ****** ****** ****** ****** ****** ****** ******
      ****** ****** ****** ****** ****** ****** ****** ****** ****** ******
      ****** ****** ****** ****** ****** ****** ****** ****** ****** ******
   3  ****** ****** ****** ****** ****** ****** ****** ****** ****** ******
      ****** ****** ****** ****** ****** ****** ****** ****** ****** ******
      ****** ****** ****** ****** ****** ****** ****** ****** ****** ******
   4  ****** ****** ****** ****** ****** ****** ****** ****** ****** ******
      ****** ****** ****** ****** ****** ****** ****** ****** ****** ******
      ****** ****** ****** ****** ****** ****** ****** ****** ****** ******
   5  ****** ****** ****** ****** ****** ****** ****** ****** ****** ******
      ****** ****** ****** ****** ****** ****** ****** ****** ****** ******
      ****** ****** ****** ****** ****** ****** ****** ****** ****** ******
   6  ****** ****** ****** ****** ****** ****** ****** ****** ****** ******
      ****** ****** ****** ****** ****** ****** ****** ****** ****** ******
      ****** ****** ****** ****** ****** ****** ****** ****** ****** ******
   7  ****** ****** ****** ****** ****** ****** ****** ****** ****** ******
      ****** ****** ****** ****** ****** ****** ****** ****** ****** ******
      ****** ****** ****** ****** ****** ****** ****** ****** ****** ******
   8  ****** ****** ****** ****** ****** ****** ****** ****** ****** ******
      ****** ****** ****** ****** ****** ****** ****** ****** ****** ******
      ****** ****** ****** ****** ****** ****** ****** ****** ****** ******
   9  ****** ****** ****** ****** ****** ****** ****** ****** ****** ******
      ****** ****** ****** ****** ****** ****** ****** ****** ****** ******
      ****** ****** ****** ****** ****** ****** ****** ****** ****** ******
  10  ****** ****** ****** ****** ****** ****** ****** ****** ****** ******
      ****** ****** ****** ****** ****** ****** ****** ****** ****** ******
      ****** ****** ****** ****** ****** ****** ****** ****** ****** ******
  11  ****** ****** ****** ****** ****** ****** ****** ****** ****** ******
      ****** ****** ****** ****** ****** ****** ****** ****** ****** ******
      ****** ****** ****** ****** ****** ****** ****** ****** ****** ******
  12  ****** ****** ****** ****** ****** ****** ****** ****** ****** ******
      ****** ****** ****** ****** ****** ****** ****** ****** ****** ******
      ****** ****** ****** ****** ****** ****** ****** ****** ****** ******
  13  ****** ****** ****** ****** ****** ****** ****** ****** ****** ******
      ****** ****** ****** ****** ****** ****** ****** ****** ****** ******
      ****** ****** ****** ****** ****** ****** ****** ****** ****** ******
  14  ****** ****** ****** ****** ****** ****** ****** ****** ****** ******
      ****** ****** ****** ****** ****** ****** ****** ****** ****** ******
      ****** ****** ****** ****** ****** ****** ****** ****** ****** ******
  15  ****** ****** ****** ****** ****** ****** ****** ****** ****** ******
      ****** ****** ****** ****** ****** ****** ****** ****** ****** ******
      ****** ****** ****** ****** ****** ****** ****** ****** ****** ******
  16  ****** ****** ****** ****** ****** ****** ****** ****** ****** ******
      ****** ****** ****** ****** ****** ****** ****** ****** ****** ******
      ****** ****** ****** ****** ****** ****** ****** ****** ****** ******
  17  ****** ****** ****** ****** ****** ****** ****** ****** ****** ******
      ****** ****** ****** ****** ****** ****** ****** ****** ****** ******
      ****** ****** ****** ****** ****** ****** ****** ****** ****** ******
  18  ****** ****** ****** ****** ****** ****** ****** ****** ****** ******
      ****** ****** ****** ****** ****** ****** ****** ****** ****** ******
      ****** ****** ****** ****** ****** ****** ****** ****** ****** ******
  19  ****** ****** ****** ****** ****** ****** ****** ****** ****** ******
      ****** ****** ****** ****** ****** ****** ****** ****** ****** ******
      ****** ****** ****** ****** ****** ****** ****** ****** ****** ******
  20  ****** ****** ****** ****** ****** ****** ****** ****** ****** ******
      ****** ****** ****** ****** ****** ****** ****** ****** ****** ******
      ****** ****** ****** ****** ****** ****** ****** ****** ****** ******
  21  ****** ****** ****** ****** ****** ****** ****** ****** ****** ******
      ****** ****** ****** ****** ****** ****** ****** ****** ****** ******
      ****** ****** ****** ****** ****** ****** ****** ****** ****** ******
  22  ****** ****** ****** ****** ****** ****** ****** ****** ****** ******
      ****** ****** ****** ****** ****** ****** ****** ****** ****** ******
      ****** ****** ****** ****** ****** ****** ****** ****** ****** ******
  23  ****** ****** ****** ****** ****** ****** ****** ****** ****** ******
      ****** ****** ****** ****** ****** ****** ****** ****** ****** ******
      ****** ****** ****** ****** ****** ****** ****** ****** ****** ******
  24  ****** ****** ****** ****** ****** ****** ****** ****** ****** ******
      ****** ****** ****** ****** ****** ****** ****** ****** ****** ******
      ****** ****** ****** ****** ****** ****** ****** ****** ****** ******
  25  ****** ****** ****** ****** ****** ****** ****** ****** ****** ******
      ****** ****** ****** ****** ****** ****** ****** ****** ****** ******
      ****** ****** ****** ****** ****** ****** ****** ****** ****** ******

 HEAD WILL BE SAVED ON UNIT   51 AT END OF TIME STEP    1, STRESS PERIOD    5
1
  VOLUMETRIC BUDGET FOR ENTIRE MODEL AT END OF TIME STEP    1, STRESS PERIOD   5
  ------------------------------------------------------------------------------

     CUMULATIVE VOLUMES      L**3       RATES FOR THIS TIME STEP      L**3/T
     ------------------                 ------------------------

           IN:                                      IN:
           ---                                      ---
             STORAGE =    30074925.2563               STORAGE =       17612.2426
       CONSTANT HEAD =    10075192.2834         CONSTANT HEAD =       29940.3913
               WELLS =           0.0000                 WELLS =           0.0000
            RECHARGE =    10074000.0000              RECHARGE =       13800.0000
      STREAM LEAKAGE =    13135636.1729        STREAM LEAKAGE =       38535.5525

            TOTAL IN =    63359753.7126              TOTAL IN =       99888.1865

          OUT:                                     OUT:
          ----                                     ----
             STORAGE =         538.3734               STORAGE =           0.0000
       CONSTANT HEAD =           0.0000         CONSTANT HEAD =           0.0000
               WELLS =    25210574.7492                 WELLS =       55165.3714
            RECHARGE =           0.0000              RECHARGE =           0.0000
      STREAM LEAKAGE =    38148642.8680        STREAM LEAKAGE =       44722.8179

           TOTAL OUT =    63359755.9906             TOTAL OUT =       99888.1894

            IN - OUT =          -2.2780              IN - OUT =      -2.9271E-03

 PERCENT DISCREPANCY =          -0.00     PERCENT DISCREPANCY =          -0.00






         TIME SUMMARY AT END OF TIME STEP    1 IN STRESS PERIOD    5
                    SECONDS     MINUTES      HOURS       DAYS        YEARS
                    -----------------------------------------------------------
   TIME STEP LENGTH 7.94880E+06 1.32480E+05  2208.0      92.000     0.25188    
 STRESS PERIOD TIME 7.94880E+06 1.32480E+05  2208.0      92.000     0.25188    
         TOTAL TIME 3.94848E+07 6.58080E+05  10968.      457.00      1.2512    
1
1
                            STRESS PERIOD NO.    6, LENGTH =   91.00000    
                            -----------------------------------------------

                              NUMBER OF TIME STEPS =     1

                               MULTIPLIER FOR DELT =     1.500

                            INITIAL TIME STEP SIZE =   91.00000    

 WELL NO.  LAYER   ROW   COL   STRESS RATE         
 --------------------------------------------------
      1      1     10     29     -0.1299E+05
      2      1     15     21     -0.1317E+05
      3      1     19     29     -0.1184E+05
      4      1     17     29     -0.1716E+05

      4 WELLS

                 RECHARGE =  2.000000E-03

 REUSING STREAM SEGMENT DATA FROM LAST STRESS PERIOD
 
 SOLVING FOR HEAD 


     7 CALLS TO PCG ROUTINE FOR TIME STEP   1 IN STRESS PERIOD    6
    26 TOTAL ITERATIONS

 OUTPUT CONTROL FOR STRESS PERIOD    6   TIME STEP    1
    SAVE BUDGET
    SAVE HEAD FOR ALL LAYERS
    PRINT HEAD FOR ALL LAYERS
 UBDSV2 SAVING "STREAMFLOW OUT  " ON UNIT  50 AT TIME STEP  1, STRESS PERIOD   6



 STREAM LISTING     PERIOD      6   STEP        1

 LAYER ROW COL. STREAM  RCH.  FLOW INTO     FLOW TO   FLOW OUT OF   OVRLND.     DIRECT     STREAM       STREAM     STREAM     STREAM   STREAMBED  STREAMBED
                SEG.NO.  NO.  STRM. RCH.    AQUIFER    STRM. RCH.    RUNOFF     PRECIP       ET          HEAD       DEPTH      WIDTH   CONDCTNC.   GRADIENT

   1   13    1     1     1    1.0000E+05 -2.4794E+03   1.0248E+05  0.000E+00  0.000E+00  0.000E+00  4.84071E+01  1.457E-01  2.000E+01  2.000E+04 -1.240E-01
   1   13    2     1     2    1.0248E+05 -3.5320E+03   1.0601E+05  0.000E+00  0.000E+00  0.000E+00  4.79324E+01  1.483E-01  2.000E+01  2.000E+04 -1.766E-01
   1   14    3     1     3    1.0601E+05 -6.6623E+02   1.0668E+05  0.000E+00  0.000E+00  0.000E+00  4.74569E+01  1.501E-01  2.000E+01  2.000E+04 -3.331E-02
   1   15    4     1     4    1.0668E+05 -6.4299E+02   1.0732E+05  0.000E+00  0.000E+00  0.000E+00  4.69802E+01  1.506E-01  2.000E+01  2.000E+04 -3.215E-02
   1   16    5     1     5    1.0732E+05 -2.2215E+03   1.0954E+05  0.000E+00  0.000E+00  0.000E+00  4.65041E+01  1.519E-01  2.000E+01  2.000E+04 -1.111E-01
   1   16    6     1     6    1.0954E+05 -1.3941E+03   1.1094E+05  0.000E+00  0.000E+00  0.000E+00  4.60284E+01  1.534E-01  2.000E+01  2.000E+04 -6.970E-02
   1   16    7     1     7    1.1094E+05 -1.3620E+03   1.1230E+05  0.000E+00  0.000E+00  0.000E+00  4.55522E+01  1.545E-01  2.000E+01  2.000E+04 -6.810E-02
   1   16    8     1     8    1.1230E+05 -1.3500E+03   1.1365E+05  0.000E+00  0.000E+00  0.000E+00  4.50761E+01  1.556E-01  2.000E+01  2.000E+04 -6.750E-02
   1   16    9     1     9    1.1365E+05 -1.3321E+03   1.1498E+05  0.000E+00  0.000E+00  0.000E+00  4.45999E+01  1.567E-01  2.000E+01  2.000E+04 -6.660E-02
   1   16   10     1    10    1.1498E+05 -1.3050E+03   1.1629E+05  0.000E+00  0.000E+00  0.000E+00  4.41237E+01  1.578E-01  2.000E+01  2.000E+04 -6.525E-02
   1   16   11     1    11    1.1629E+05 -1.2867E+03   1.1757E+05  0.000E+00  0.000E+00  0.000E+00  4.36475E+01  1.589E-01  2.000E+01  2.000E+04 -6.433E-02
   1   16   12     1    12    1.1757E+05 -2.1328E+03   1.1970E+05  0.000E+00  0.000E+00  0.000E+00  4.31716E+01  1.603E-01  2.000E+01  2.000E+04 -1.066E-01
   1   15   13     1    13    1.1970E+05 -2.1046E+03   1.2181E+05  0.000E+00  0.000E+00  0.000E+00  4.26961E+01  1.620E-01  2.000E+01  2.000E+04 -1.052E-01
   1   14   14     1    14    1.2181E+05 -2.3995E+03   1.2421E+05  0.000E+00  0.000E+00  0.000E+00  4.22206E+01  1.638E-01  2.000E+01  2.000E+04 -1.200E-01
   1   13   15     1    15    1.2421E+05 -2.7371E+03   1.2695E+05  0.000E+00  0.000E+00  0.000E+00  4.17454E+01  1.658E-01  2.000E+01  2.000E+04 -1.369E-01
   1   12   16     1    16    1.2695E+05 -3.5607E+03   1.3051E+05  0.000E+00  0.000E+00  0.000E+00  4.12706E+01  1.683E-01  2.000E+01  2.000E+04 -1.780E-01
   1   12   17     1    17    1.3051E+05 -2.2301E+03   1.3274E+05  0.000E+00  0.000E+00  0.000E+00  4.07956E+01  1.706E-01  2.000E+01  2.000E+04 -1.115E-01
   1   12   18     1    18    1.3274E+05 -2.0593E+03   1.3480E+05  0.000E+00  0.000E+00  0.000E+00  4.03200E+01  1.722E-01  2.000E+01  2.000E+04 -1.030E-01
   1   12   19     1    19    1.3480E+05 -2.7091E+03   1.3751E+05  0.000E+00  0.000E+00  0.000E+00  3.98445E+01  1.741E-01  2.000E+01  2.000E+04 -1.355E-01
   1   13   20     1    20    1.3751E+05 -1.2226E+03   1.3873E+05  0.000E+00  0.000E+00  0.000E+00  3.93688E+01  1.756E-01  2.000E+01  2.000E+04 -6.113E-02
   1   14   21     1    21    1.3873E+05  3.5922E+03   1.3514E+05  0.000E+00  0.000E+00  0.000E+00  3.88906E+01  1.747E-01  2.000E+01  2.000E+04  1.796E-01
   1   14   22     1    22    1.3514E+05  5.7094E+03   1.2943E+05  0.000E+00  0.000E+00  0.000E+00  3.84097E+01  1.711E-01  2.000E+01  2.000E+04  2.855E-01
   1    9   30     2     1    5.0000E+04  1.7457E+03   4.8254E+04  0.000E+00  0.000E+00  0.000E+00  4.02396E+01  1.146E-01  2.000E+01  2.000E+04  8.729E-02
   1    9   29     2     2    4.8254E+04  3.6903E+03   4.4564E+04  0.000E+00  0.000E+00  0.000E+00  3.99858E+01  1.108E-01  2.000E+01  2.000E+04  1.845E-01
   1    9   28     2     3    4.4564E+04  4.9760E+02   4.4066E+04  0.000E+00  0.000E+00  0.000E+00  3.97328E+01  1.078E-01  2.000E+01  2.000E+04  2.488E-02
   1    9   27     2     4    4.4066E+04 -2.1612E+03   4.6228E+04  0.000E+00  0.000E+00  0.000E+00  3.94840E+01  1.090E-01  2.000E+01  2.000E+04 -1.081E-01
   1   10   26     2     5    4.6228E+04 -9.4878E+02   4.7176E+04  0.000E+00  0.000E+00  0.000E+00  3.92362E+01  1.112E-01  2.000E+01  2.000E+04 -4.744E-02
   1   11   25     2     6    4.7176E+04 -1.2763E+03   4.8453E+04  0.000E+00  0.000E+00  0.000E+00  3.89878E+01  1.128E-01  2.000E+01  2.000E+04 -6.382E-02
   1   12   24     2     7    4.8453E+04 -1.7509E+03   5.0203E+04  0.000E+00  0.000E+00  0.000E+00  3.87399E+01  1.149E-01  2.000E+01  2.000E+04 -8.754E-02
   1   13   23     2     8    5.0203E+04 -3.7303E+02   5.0576E+04  0.000E+00  0.000E+00  0.000E+00  3.84914E+01  1.164E-01  2.000E+01  2.000E+04 -1.865E-02
   1   14   22     2     9    5.0576E+04  2.3160E+03   4.8260E+04  0.000E+00  0.000E+00  0.000E+00  3.82401E+01  1.151E-01  2.000E+01  2.000E+04  1.158E-01
   1   14   22     3     1    1.7769E+05 -7.9393E+03   1.8563E+05  0.000E+00  0.000E+00  0.000E+00  3.77273E+01  1.717E-01  2.000E+01  2.000E+04 -3.970E-01
   1   15   23     3     2    1.8563E+05 -8.0010E+01   1.8571E+05  0.000E+00  0.000E+00  0.000E+00  3.68407E+01  1.740E-01  2.000E+01  2.000E+04 -4.000E-03
   1   15   24     3     3    1.8571E+05 -2.9882E+02   1.8600E+05  0.000E+00  0.000E+00  0.000E+00  3.59519E+01  1.741E-01  2.000E+01  2.000E+04 -1.494E-02
   1   15   25     3     4    1.8600E+05 -3.0405E+02   1.8631E+05  0.000E+00  0.000E+00  0.000E+00  3.50632E+01  1.743E-01  2.000E+01  2.000E+04 -1.520E-02
   1   15   26     3     5    1.8631E+05 -2.3374E+02   1.8654E+05  0.000E+00  0.000E+00  0.000E+00  3.41744E+01  1.744E-01  2.000E+01  2.000E+04 -1.169E-02
   1   16   27     3     6    1.8654E+05  4.0799E+01   1.8650E+05  0.000E+00  0.000E+00  0.000E+00  3.32856E+01  1.745E-01  2.000E+01  2.000E+04  2.040E-03
   1   17   28     3     7    1.8650E+05  6.7143E+03   1.7979E+05  0.000E+00  0.000E+00  0.000E+00  3.23948E+01  1.726E-01  2.000E+01  2.000E+04  3.357E-01
   1   18   29     3     8    1.7979E+05  8.5430E+03   1.7124E+05  0.000E+00  0.000E+00  0.000E+00  3.15016E+01  1.682E-01  2.000E+01  2.000E+04  4.272E-01
   1   18   30     3     9    1.7124E+05  2.4901E+03   1.6875E+05  0.000E+00  0.000E+00  0.000E+00  3.06095E+01  1.650E-01  2.000E+01  2.000E+04  1.245E-01



1
              HEAD IN LAYER   1 AT END OF TIME STEP   1 IN STRESS PERIOD    6
  ---------------------------------------------------------------------------

          1      2      3      4      5      6      7      8      9     10
         11     12     13     14     15     16     17     18     19     20
         21     22     23     24     25     26     27     28     29     30
 .........................................................................
   1  ****** ****** ****** ****** ****** ****** ****** ****** ****** ******
      ****** ****** ****** ****** ****** ****** ****** ****** ****** ******
      ****** ****** ****** ****** ****** ****** ****** ****** ****** ******
   2  ****** ****** ****** ****** ****** ****** ****** ****** ****** ******
      ****** ****** ****** ****** ****** ****** ****** ****** ****** ******
      ****** ****** ****** ****** ****** ****** ****** ****** ****** ******
   3  ****** ****** ****** ****** ****** ****** ****** ****** ****** ******
      ****** ****** ****** ****** ****** ****** ****** ****** ****** ******
      ****** ****** ****** ****** ****** ****** ****** ****** ****** ******
   4  ****** ****** ****** ****** ****** ****** ****** ****** ****** ******
      ****** ****** ****** ****** ****** ****** ****** ****** ****** ******
      ****** ****** ****** ****** ****** ****** ****** ****** ****** ******
   5  ****** ****** ****** ****** ****** ****** ****** ****** ****** ******
      ****** ****** ****** ****** ****** ****** ****** ****** ****** ******
      ****** ****** ****** ****** ****** ****** ****** ****** ****** ******
   6  ****** ****** ****** ****** ****** ****** ****** ****** ****** ******
      ****** ****** ****** ****** ****** ****** ****** ****** ****** ******
      ****** ****** ****** ****** ****** ****** ****** ****** ****** ******
   7  ****** ****** ****** ****** ****** ****** ****** ****** ****** ******
      ****** ****** ****** ****** ****** ****** ****** ****** ****** ******
      ****** ****** ****** ****** ****** ****** ****** ****** ****** ******
   8  ****** ****** ****** ****** ****** ****** ****** ****** ****** ******
      ****** ****** ****** ****** ****** ****** ****** ****** ****** ******
      ****** ****** ****** ****** ****** ****** ****** ****** ****** ******
   9  ****** ****** ****** ****** ****** ****** ****** ****** ****** ******
      ****** ****** ****** ****** ****** ****** ****** ****** ****** ******
      ****** ****** ****** ****** ****** ****** ****** ****** ****** ******
  10  ****** ****** ****** ****** ****** ****** ****** ****** ****** ******
      ****** ****** ****** ****** ****** ****** ****** ****** ****** ******
      ****** ****** ****** ****** ****** ****** ****** ****** ****** ******
  11  ****** ****** ****** ****** ****** ****** ****** ****** ****** ******
      ****** ****** ****** ****** ****** ****** ****** ****** ****** ******
      ****** ****** ****** ****** ****** ****** ****** ****** ****** ******
  12  ****** ****** ****** ****** ****** ****** ****** ****** ****** ******
      ****** ****** ****** ****** ****** ****** ****** ****** ****** ******
      ****** ****** ****** ****** ****** ****** ****** ****** ****** ******
  13  ****** ****** ****** ****** ****** ****** ****** ****** ****** ******
      ****** ****** ****** ****** ****** ****** ****** ****** ****** ******
      ****** ****** ****** ****** ****** ****** ****** ****** ****** ******
  14  ****** ****** ****** ****** ****** ****** ****** ****** ****** ******
      ****** ****** ****** ****** ****** ****** ****** ****** ****** ******
      ****** ****** ****** ****** ****** ****** ****** ****** ****** ******
  15  ****** ****** ****** ****** ****** ****** ****** ****** ****** ******
      ****** ****** ****** ****** ****** ****** ****** ****** ****** ******
      ****** ****** ****** ****** ****** ****** ****** ****** ****** ******
  16  ****** ****** ****** ****** ****** ****** ****** ****** ****** ******
      ****** ****** ****** ****** ****** ****** ****** ****** ****** ******
      ****** ****** ****** ****** ****** ****** ****** ****** ****** ******
  17  ****** ****** ****** ****** ****** ****** ****** ****** ****** ******
      ****** ****** ****** ****** ****** ****** ****** ****** ****** ******
      ****** ****** ****** ****** ****** ****** ****** ****** ****** ******
  18  ****** ****** ****** ****** ****** ****** ****** ****** ****** ******
      ****** ****** ****** ****** ****** ****** ****** ****** ****** ******
      ****** ****** ****** ****** ****** ****** ****** ****** ****** ******
  19  ****** ****** ****** ****** ****** ****** ****** ****** ****** ******
      ****** ****** ****** ****** ****** ****** ****** ****** ****** ******
      ****** ****** ****** ****** ****** ****** ****** ****** ****** ******
  20  ****** ****** ****** ****** ****** ****** ****** ****** ****** ******
      ****** ****** ****** ****** ****** ****** ****** ****** ****** ******
      ****** ****** ****** ****** ****** ****** ****** ****** ****** ******
  21  ****** ****** ****** ****** ****** ****** ****** ****** ****** ******
      ****** ****** ****** ****** ****** ****** ****** ****** ****** ******
      ****** ****** ****** ****** ****** ****** ****** ****** ****** ******
  22  ****** ****** ****** ****** ****** ****** ****** ****** ****** ******
      ****** ****** ****** ****** ****** ****** ****** ****** ****** ******
      ****** ****** ****** ****** ****** ****** ****** ****** ****** ******
  23  ****** ****** ****** ****** ****** ****** ****** ****** ****** ******
      ****** ****** ****** ****** ****** ****** ****** ****** ****** ******
      ****** ****** ****** ****** ****** ****** ****** ****** ****** ******
  24  ****** ****** ****** ****** ****** ****** ****** ****** ****** ******
      ****** ****** ****** ****** ****** ****** ****** ****** ****** ******
      ****** ****** ****** ****** ****** ****** ****** ****** ****** ******
  25  ****** ****** ****** ****** ****** ****** ****** ****** ****** ******
      ****** ****** ****** ****** ****** ****** ****** ****** ****** ******
      ****** ****** ****** ****** ****** ****** ****** ****** ****** ******

 HEAD WILL BE SAVED ON UNIT   51 AT END OF TIME STEP    1, STRESS PERIOD    6
1
  VOLUMETRIC BUDGET FOR ENTIRE MODEL AT END OF TIME STEP    1, STRESS PERIOD   6
  ------------------------------------------------------------------------------

     CUMULATIVE VOLUMES      L**3       RATES FOR THIS TIME STEP      L**3/T
     ------------------                 ------------------------

           IN:                                      IN:
           ---                                      ---
             STORAGE =    30074925.2563               STORAGE =           0.0000
       CONSTANT HEAD =    12620768.5382         CONSTANT HEAD =       27973.3654
               WELLS =           0.0000                 WELLS =           0.0000
            RECHARGE =    15097200.0000              RECHARGE =       55200.0000
      STREAM LEAKAGE =    16351531.8641        STREAM LEAKAGE =       35339.5131

            TOTAL IN =    74144425.6586              TOTAL IN =      118512.8785

          OUT:                                     OUT:
          ----                                     ----
             STORAGE =      842612.3629               STORAGE =        9253.5603
       CONSTANT HEAD =           0.0000         CONSTANT HEAD =           0.0000
               WELLS =    30230623.5505                 WELLS =       55165.3714
            RECHARGE =           0.0000              RECHARGE =           0.0000
      STREAM LEAKAGE =    43071191.7623        STREAM LEAKAGE =       54093.9439

           TOTAL OUT =    74144427.6757             TOTAL OUT =      118512.8757

            IN - OUT =          -2.0171              IN - OUT =       2.8669E-03

 PERCENT DISCREPANCY =          -0.00     PERCENT DISCREPANCY =           0.00






         TIME SUMMARY AT END OF TIME STEP    1 IN STRESS PERIOD    6
                    SECONDS     MINUTES      HOURS       DAYS        YEARS
                    -----------------------------------------------------------
   TIME STEP LENGTH 7.86240E+06 1.31040E+05  2184.0      91.000     0.24914    
 STRESS PERIOD TIME 7.86240E+06 1.31040E+05  2184.0      91.000     0.24914    
         TOTAL TIME 4.73472E+07 7.89120E+05  13152.      548.00      1.5003    
1
1
                            STRESS PERIOD NO.    7, LENGTH =   91.00000    
                            -----------------------------------------------

                              NUMBER OF TIME STEPS =     1

                               MULTIPLIER FOR DELT =     1.500

                            INITIAL TIME STEP SIZE =   91.00000    

 WELL NO.  LAYER   ROW   COL   STRESS RATE         
 --------------------------------------------------
      1      1     10     29     -0.1299E+05
      2      1     15     21     -0.1317E+05
      3      1     19     29     -0.1184E+05
      4      1     17     29     -0.1716E+05

      4 WELLS

                 RECHARGE =   0.00000    

 REUSING STREAM SEGMENT DATA FROM LAST STRESS PERIOD
 
 SOLVING FOR HEAD 


     7 CALLS TO PCG ROUTINE FOR TIME STEP   1 IN STRESS PERIOD    7
    26 TOTAL ITERATIONS

 OUTPUT CONTROL FOR STRESS PERIOD    7   TIME STEP    1
    SAVE BUDGET
    SAVE HEAD FOR ALL LAYERS
    PRINT HEAD FOR ALL LAYERS
 UBDSV2 SAVING "STREAMFLOW OUT  " ON UNIT  50 AT TIME STEP  1, STRESS PERIOD   7



 STREAM LISTING     PERIOD      7   STEP        1

 LAYER ROW COL. STREAM  RCH.  FLOW INTO     FLOW TO   FLOW OUT OF   OVRLND.     DIRECT     STREAM       STREAM     STREAM     STREAM   STREAMBED  STREAMBED
                SEG.NO.  NO.  STRM. RCH.    AQUIFER    STRM. RCH.    RUNOFF     PRECIP       ET          HEAD       DEPTH      WIDTH   CONDCTNC.   GRADIENT

   1   13    1     1     1    1.0000E+05 -1.8221E+03   1.0182E+05  0.000E+00  0.000E+00  0.000E+00  4.84068E+01  1.454E-01  2.000E+01  2.000E+04 -9.111E-02
   1   13    2     1     2    1.0182E+05 -2.7969E+03   1.0462E+05  0.000E+00  0.000E+00  0.000E+00  4.79315E+01  1.474E-01  2.000E+01  2.000E+04 -1.398E-01
   1   14    3     1     3    1.0462E+05 -4.1565E+02   1.0503E+05  0.000E+00  0.000E+00  0.000E+00  4.74556E+01  1.488E-01  2.000E+01  2.000E+04 -2.078E-02
   1   15    4     1     4    1.0503E+05 -3.8134E+02   1.0542E+05  0.000E+00  0.000E+00  0.000E+00  4.69787E+01  1.491E-01  2.000E+01  2.000E+04 -1.907E-02
   1   16    5     1     5    1.0542E+05 -1.4691E+03   1.0689E+05  0.000E+00  0.000E+00  0.000E+00  4.65022E+01  1.499E-01  2.000E+01  2.000E+04 -7.345E-02
   1   16    6     1     6    1.0689E+05 -9.4060E+02   1.0783E+05  0.000E+00  0.000E+00  0.000E+00  4.60259E+01  1.509E-01  2.000E+01  2.000E+04 -4.703E-02
   1   16    7     1     7    1.0783E+05 -9.2700E+02   1.0875E+05  0.000E+00  0.000E+00  0.000E+00  4.55495E+01  1.517E-01  2.000E+01  2.000E+04 -4.635E-02
   1   16    8     1     8    1.0875E+05 -9.2082E+02   1.0967E+05  0.000E+00  0.000E+00  0.000E+00  4.50730E+01  1.525E-01  2.000E+01  2.000E+04 -4.604E-02
   1   16    9     1     9    1.0967E+05 -9.0584E+02   1.1058E+05  0.000E+00  0.000E+00  0.000E+00  4.45965E+01  1.533E-01  2.000E+01  2.000E+04 -4.529E-02
   1   16   10     1    10    1.1058E+05 -8.8088E+02   1.1146E+05  0.000E+00  0.000E+00  0.000E+00  4.41199E+01  1.540E-01  2.000E+01  2.000E+04 -4.404E-02
   1   16   11     1    11    1.1146E+05 -8.6088E+02   1.1232E+05  0.000E+00  0.000E+00  0.000E+00  4.36434E+01  1.547E-01  2.000E+01  2.000E+04 -4.304E-02
   1   16   12     1    12    1.1232E+05 -1.4173E+03   1.1374E+05  0.000E+00  0.000E+00  0.000E+00  4.31670E+01  1.557E-01  2.000E+01  2.000E+04 -7.086E-02
   1   15   13     1    13    1.1374E+05 -1.3400E+03   1.1508E+05  0.000E+00  0.000E+00  0.000E+00  4.26909E+01  1.568E-01  2.000E+01  2.000E+04 -6.700E-02
   1   14   14     1    14    1.1508E+05 -1.6092E+03   1.1669E+05  0.000E+00  0.000E+00  0.000E+00  4.22148E+01  1.580E-01  2.000E+01  2.000E+04 -8.046E-02
   1   13   15     1    15    1.1669E+05 -1.9469E+03   1.1863E+05  0.000E+00  0.000E+00  0.000E+00  4.17390E+01  1.595E-01  2.000E+01  2.000E+04 -9.734E-02
   1   12   16     1    16    1.1863E+05 -2.7806E+03   1.2142E+05  0.000E+00  0.000E+00  0.000E+00  4.12637E+01  1.614E-01  2.000E+01  2.000E+04 -1.390E-01
   1   12   17     1    17    1.2142E+05 -1.6601E+03   1.2308E+05  0.000E+00  0.000E+00  0.000E+00  4.07882E+01  1.632E-01  2.000E+01  2.000E+04 -8.300E-02
   1   12   18     1    18    1.2308E+05 -1.5025E+03   1.2458E+05  0.000E+00  0.000E+00  0.000E+00  4.03122E+01  1.644E-01  2.000E+01  2.000E+04 -7.512E-02
   1   12   19     1    19    1.2458E+05 -2.0292E+03   1.2661E+05  0.000E+00  0.000E+00  0.000E+00  3.98363E+01  1.658E-01  2.000E+01  2.000E+04 -1.015E-01
   1   13   20     1    20    1.2661E+05 -5.5529E+02   1.2716E+05  0.000E+00  0.000E+00  0.000E+00  3.93600E+01  1.669E-01  2.000E+01  2.000E+04 -2.776E-02
   1   14   21     1    21    1.2716E+05  4.2545E+03   1.2291E+05  0.000E+00  0.000E+00  0.000E+00  3.88813E+01  1.654E-01  2.000E+01  2.000E+04  2.127E-01
   1   14   22     1    22    1.2291E+05  5.8720E+03   1.1704E+05  0.000E+00  0.000E+00  0.000E+00  3.84000E+01  1.614E-01  2.000E+01  2.000E+04  2.936E-01
   1    9   30     2     1    5.0000E+04  2.2572E+03   4.7743E+04  0.000E+00  0.000E+00  0.000E+00  4.02393E+01  1.143E-01  2.000E+01  2.000E+04  1.129E-01
   1    9   29     2     2    4.7743E+04  4.1998E+03   4.3543E+04  0.000E+00  0.000E+00  0.000E+00  3.99847E+01  1.097E-01  2.000E+01  2.000E+04  2.100E-01
   1    9   28     2     3    4.3543E+04  1.0080E+03   4.2535E+04  0.000E+00  0.000E+00  0.000E+00  3.97309E+01  1.059E-01  2.000E+01  2.000E+04  5.040E-02
   1    9   27     2     4    4.2535E+04 -1.4696E+03   4.4005E+04  0.000E+00  0.000E+00  0.000E+00  3.94812E+01  1.062E-01  2.000E+01  2.000E+04 -7.348E-02
   1   10   26     2     5    4.4005E+04 -2.5423E+02   4.4259E+04  0.000E+00  0.000E+00  0.000E+00  3.92325E+01  1.075E-01  2.000E+01  2.000E+04 -1.271E-02
   1   11   25     2     6    4.4259E+04 -6.1008E+02   4.4869E+04  0.000E+00  0.000E+00  0.000E+00  3.89831E+01  1.081E-01  2.000E+01  2.000E+04 -3.050E-02
   1   12   24     2     7    4.4869E+04 -1.1437E+03   4.6013E+04  0.000E+00  0.000E+00  0.000E+00  3.87344E+01  1.094E-01  2.000E+01  2.000E+04 -5.719E-02
   1   13   23     2     8    4.6013E+04 -1.8186E+02   4.6194E+04  0.000E+00  0.000E+00  0.000E+00  3.84854E+01  1.104E-01  2.000E+01  2.000E+04 -9.093E-03
   1   14   22     2     9    4.6194E+04  2.5454E+03   4.3649E+04  0.000E+00  0.000E+00  0.000E+00  3.82337E+01  1.087E-01  2.000E+01  2.000E+04  1.273E-01
   1   14   22     3     1    1.6068E+05 -7.7796E+03   1.6846E+05  0.000E+00  0.000E+00  0.000E+00  3.77174E+01  1.619E-01  2.000E+01  2.000E+04 -3.890E-01
   1   15   23     3     2    1.6846E+05  1.2690E+02   1.6834E+05  0.000E+00  0.000E+00  0.000E+00  3.68308E+01  1.641E-01  2.000E+01  2.000E+04  6.345E-03
   1   15   24     3     3    1.6834E+05 -1.2480E+02   1.6846E+05  0.000E+00  0.000E+00  0.000E+00  3.59419E+01  1.641E-01  2.000E+01  2.000E+04 -6.240E-03
   1   15   25     3     4    1.6846E+05 -1.2695E+02   1.6859E+05  0.000E+00  0.000E+00  0.000E+00  3.50531E+01  1.642E-01  2.000E+01  2.000E+04 -6.348E-03
   1   15   26     3     5    1.6859E+05 -3.2230E+01   1.6862E+05  0.000E+00  0.000E+00  0.000E+00  3.41642E+01  1.642E-01  2.000E+01  2.000E+04 -1.612E-03
   1   16   27     3     6    1.6862E+05  2.7367E+02   1.6835E+05  0.000E+00  0.000E+00  0.000E+00  3.32753E+01  1.641E-01  2.000E+01  2.000E+04  1.368E-02
   1   17   28     3     7    1.6835E+05  7.3577E+03   1.6099E+05  0.000E+00  0.000E+00  0.000E+00  3.23841E+01  1.619E-01  2.000E+01  2.000E+04  3.679E-01
   1   18   29     3     8    1.6099E+05  9.2329E+03   1.5176E+05  0.000E+00  0.000E+00  0.000E+00  3.14903E+01  1.570E-01  2.000E+01  2.000E+04  4.616E-01
   1   18   30     3     9    1.5176E+05  3.0206E+03   1.4874E+05  0.000E+00  0.000E+00  0.000E+00  3.05977E+01  1.532E-01  2.000E+01  2.000E+04  1.510E-01



1
              HEAD IN LAYER   1 AT END OF TIME STEP   1 IN STRESS PERIOD    7
  ---------------------------------------------------------------------------

          1      2      3      4      5      6      7      8      9     10
         11     12     13     14     15     16     17     18     19     20
         21     22     23     24     25     26     27     28     29     30
 .........................................................................
   1  ****** ****** ****** ****** ****** ****** ****** ****** ****** ******
      ****** ****** ****** ****** ****** ****** ****** ****** ****** ******
      ****** ****** ****** ****** ****** ****** ****** ****** ****** ******
   2  ****** ****** ****** ****** ****** ****** ****** ****** ****** ******
      ****** ****** ****** ****** ****** ****** ****** ****** ****** ******
      ****** ****** ****** ****** ****** ****** ****** ****** ****** ******
   3  ****** ****** ****** ****** ****** ****** ****** ****** ****** ******
      ****** ****** ****** ****** ****** ****** ****** ****** ****** ******
      ****** ****** ****** ****** ****** ****** ****** ****** ****** ******
   4  ****** ****** ****** ****** ****** ****** ****** ****** ****** ******
      ****** ****** ****** ****** ****** ****** ****** ****** ****** ******
      ****** ****** ****** ****** ****** ****** ****** ****** ****** ******
   5  ****** ****** ****** ****** ****** ****** ****** ****** ****** ******
      ****** ****** ****** ****** ****** ****** ****** ****** ****** ******
      ****** ****** ****** ****** ****** ****** ****** ****** ****** ******
   6  ****** ****** ****** ****** ****** ****** ****** ****** ****** ******
      ****** ****** ****** ****** ****** ****** ****** ****** ****** ******
      ****** ****** ****** ****** ****** ****** ****** ****** ****** ******
   7  ****** ****** ****** ****** ****** ****** ****** ****** ****** ******
      ****** ****** ****** ****** ****** ****** ****** ****** ****** ******
      ****** ****** ****** ****** ****** ****** ****** ****** ****** ******
   8  ****** ****** ****** ****** ****** ****** ****** ****** ****** ******
      ****** ****** ****** ****** ****** ****** ****** ****** ****** ******
      ****** ****** ****** ****** ****** ****** ****** ****** ****** ******
   9  ****** ****** ****** ****** ****** ****** ****** ****** ****** ******
      ****** ****** ****** ****** ****** ****** ****** ****** ****** ******
      ****** ****** ****** ****** ****** ****** ****** ****** ****** ******
  10  ****** ****** ****** ****** ****** ****** ****** ****** ****** ******
      ****** ****** ****** ****** ****** ****** ****** ****** ****** ******
      ****** ****** ****** ****** ****** ****** ****** ****** ****** ******
  11  ****** ****** ****** ****** ****** ****** ****** ****** ****** ******
      ****** ****** ****** ****** ****** ****** ****** ****** ****** ******
      ****** ****** ****** ****** ****** ****** ****** ****** ****** ******
  12  ****** ****** ****** ****** ****** ****** ****** ****** ****** ******
      ****** ****** ****** ****** ****** ****** ****** ****** ****** ******
      ****** ****** ****** ****** ****** ****** ****** ****** ****** ******
  13  ****** ****** ****** ****** ****** ****** ****** ****** ****** ******
      ****** ****** ****** ****** ****** ****** ****** ****** ****** ******
      ****** ****** ****** ****** ****** ****** ****** ****** ****** ******
  14  ****** ****** ****** ****** ****** ****** ****** ****** ****** ******
      ****** ****** ****** ****** ****** ****** ****** ****** ****** ******
      ****** ****** ****** ****** ****** ****** ****** ****** ****** ******
  15  ****** ****** ****** ****** ****** ****** ****** ****** ****** ******
      ****** ****** ****** ****** ****** ****** ****** ****** ****** ******
      ****** ****** ****** ****** ****** ****** ****** ****** ****** ******
  16  ****** ****** ****** ****** ****** ****** ****** ****** ****** ******
      ****** ****** ****** ****** ****** ****** ****** ****** ****** ******
      ****** ****** ****** ****** ****** ****** ****** ****** ****** ******
  17  ****** ****** ****** ****** ****** ****** ****** ****** ****** ******
      ****** ****** ****** ****** ****** ****** ****** ****** ****** ******
      ****** ****** ****** ****** ****** ****** ****** ****** ****** ******
  18  ****** ****** ****** ****** ****** ****** ****** ****** ****** ******
      ****** ****** ****** ****** ****** ****** ****** ****** ****** ******
      ****** ****** ****** ****** ****** ****** ****** ****** ****** ******
  19  ****** ****** ****** ****** ****** ****** ****** ****** ****** ******
      ****** ****** ****** ****** ****** ****** ****** ****** ****** ******
      ****** ****** ****** ****** ****** ****** ****** ****** ****** ******
  20  ****** ****** ****** ****** ****** ****** ****** ****** ****** ******
      ****** ****** ****** ****** ****** ****** ****** ****** ****** ******
      ****** ****** ****** ****** ****** ****** ****** ****** ****** ******
  21  ****** ****** ****** ****** ****** ****** ****** ****** ****** ******
      ****** ****** ****** ****** ****** ****** ****** ****** ****** ******
      ****** ****** ****** ****** ****** ****** ****** ****** ****** ******
  22  ****** ****** ****** ****** ****** ****** ****** ****** ****** ******
      ****** ****** ****** ****** ****** ****** ****** ****** ****** ******
      ****** ****** ****** ****** ****** ****** ****** ****** ****** ******
  23  ****** ****** ****** ****** ****** ****** ****** ****** ****** ******
      ****** ****** ****** ****** ****** ****** ****** ****** ****** ******
      ****** ****** ****** ****** ****** ****** ****** ****** ****** ******
  24  ****** ****** ****** ****** ****** ****** ****** ****** ****** ******
      ****** ****** ****** ****** ****** ****** ****** ****** ****** ******
      ****** ****** ****** ****** ****** ****** ****** ****** ****** ******
  25  ****** ****** ****** ****** ****** ****** ****** ****** ****** ******
      ****** ****** ****** ****** ****** ****** ****** ****** ****** ******
      ****** ****** ****** ****** ****** ****** ****** ****** ****** ******

 HEAD WILL BE SAVED ON UNIT   51 AT END OF TIME STEP    1, STRESS PERIOD    7
1
  VOLUMETRIC BUDGET FOR ENTIRE MODEL AT END OF TIME STEP    1, STRESS PERIOD   7
  ------------------------------------------------------------------------------

     CUMULATIVE VOLUMES      L**3       RATES FOR THIS TIME STEP      L**3/T
     ------------------                 ------------------------

           IN:                                      IN:
           ---                                      ---
             STORAGE =    32080773.0301               STORAGE =       22042.2832
       CONSTANT HEAD =    15519987.7193         CONSTANT HEAD =       31859.5514
               WELLS =           0.0000                 WELLS =           0.0000
            RECHARGE =    15097200.0000              RECHARGE =           0.0000
      STREAM LEAKAGE =    20005059.5674        STREAM LEAKAGE =       40148.6561

            TOTAL IN =    82703020.3168              TOTAL IN =       94050.4907

          OUT:                                     OUT:
          ----                                     ----
             STORAGE =      842612.3629               STORAGE =           0.0000
       CONSTANT HEAD =           0.0000         CONSTANT HEAD =           0.0000
               WELLS =    35250672.3517                 WELLS =       55165.3714
            RECHARGE =           0.0000              RECHARGE =           0.0000
      STREAM LEAKAGE =    46609738.1023        STREAM LEAKAGE =       38885.1246

           TOTAL OUT =    82703022.8170             TOTAL OUT =       94050.4961

            IN - OUT =          -2.5002              IN - OUT =      -5.3084E-03

 PERCENT DISCREPANCY =          -0.00     PERCENT DISCREPANCY =          -0.00






         TIME SUMMARY AT END OF TIME STEP    1 IN STRESS PERIOD    7
                    SECONDS     MINUTES      HOURS       DAYS        YEARS
                    -----------------------------------------------------------
   TIME STEP LENGTH 7.86240E+06 1.31040E+05  2184.0      91.000     0.24914    
 STRESS PERIOD TIME 7.86240E+06 1.31040E+05  2184.0      91.000     0.24914    
         TOTAL TIME 5.52096E+07 9.20160E+05  15336.      639.00      1.7495    
1
1
                            STRESS PERIOD NO.    8, LENGTH =   91.00000    
                            -----------------------------------------------

                              NUMBER OF TIME STEPS =     1

                               MULTIPLIER FOR DELT =     1.500

                            INITIAL TIME STEP SIZE =   91.00000    

 WELL NO.  LAYER   ROW   COL   STRESS RATE         
 --------------------------------------------------
      1      1     10     29     -0.1299E+05
      2      1     15     21     -0.1317E+05
      3      1     19     29     -0.1184E+05
      4      1     17     29     -0.1716E+05

      4 WELLS

                 RECHARGE =  1.000000E-03

 REUSING STREAM SEGMENT DATA FROM LAST STRESS PERIOD
 
 SOLVING FOR HEAD 


     6 CALLS TO PCG ROUTINE FOR TIME STEP   1 IN STRESS PERIOD    8
    22 TOTAL ITERATIONS

 OUTPUT CONTROL FOR STRESS PERIOD    8   TIME STEP    1
    SAVE BUDGET
    SAVE HEAD FOR ALL LAYERS
    PRINT HEAD FOR ALL LAYERS
 UBDSV2 SAVING "STREAMFLOW OUT  " ON UNIT  50 AT TIME STEP  1, STRESS PERIOD   8



 STREAM LISTING     PERIOD      8   STEP        1

 LAYER ROW COL. STREAM  RCH.  FLOW INTO     FLOW TO   FLOW OUT OF   OVRLND.     DIRECT     STREAM       STREAM     STREAM     STREAM   STREAMBED  STREAMBED
                SEG.NO.  NO.  STRM. RCH.    AQUIFER    STRM. RCH.    RUNOFF     PRECIP       ET          HEAD       DEPTH      WIDTH   CONDCTNC.   GRADIENT

   1   13    1     1     1    1.0000E+05 -1.9024E+03   1.0190E+05  0.000E+00  0.000E+00  0.000E+00  4.84068E+01  1.455E-01  2.000E+01  2.000E+04 -9.512E-02
   1   13    2     1     2    1.0190E+05 -2.8779E+03   1.0478E+05  0.000E+00  0.000E+00  0.000E+00  4.79316E+01  1.475E-01  2.000E+01  2.000E+04 -1.439E-01
   1   14    3     1     3    1.0478E+05 -4.8077E+02   1.0526E+05  0.000E+00  0.000E+00  0.000E+00  4.74558E+01  1.490E-01  2.000E+01  2.000E+04 -2.404E-02
   1   15    4     1     4    1.0526E+05 -4.5087E+02   1.0571E+05  0.000E+00  0.000E+00  0.000E+00  4.69789E+01  1.494E-01  2.000E+01  2.000E+04 -2.254E-02
   1   16    5     1     5    1.0571E+05 -1.6435E+03   1.0736E+05  0.000E+00  0.000E+00  0.000E+00  4.65025E+01  1.503E-01  2.000E+01  2.000E+04 -8.218E-02
   1   16    6     1     6    1.0736E+05 -1.0483E+03   1.0840E+05  0.000E+00  0.000E+00  0.000E+00  4.60264E+01  1.514E-01  2.000E+01  2.000E+04 -5.241E-02
   1   16    7     1     7    1.0840E+05 -1.0297E+03   1.0943E+05  0.000E+00  0.000E+00  0.000E+00  4.55500E+01  1.523E-01  2.000E+01  2.000E+04 -5.149E-02
   1   16    8     1     8    1.0943E+05 -1.0227E+03   1.1046E+05  0.000E+00  0.000E+00  0.000E+00  4.50736E+01  1.531E-01  2.000E+01  2.000E+04 -5.113E-02
   1   16    9     1     9    1.1046E+05 -1.0087E+03   1.1146E+05  0.000E+00  0.000E+00  0.000E+00  4.45971E+01  1.540E-01  2.000E+01  2.000E+04 -5.044E-02
   1   16   10     1    10    1.1146E+05 -9.8607E+02   1.1245E+05  0.000E+00  0.000E+00  0.000E+00  4.41207E+01  1.548E-01  2.000E+01  2.000E+04 -4.930E-02
   1   16   11     1    11    1.1245E+05 -9.6885E+02   1.1342E+05  0.000E+00  0.000E+00  0.000E+00  4.36442E+01  1.556E-01  2.000E+01  2.000E+04 -4.844E-02
   1   16   12     1    12    1.1342E+05 -1.5789E+03   1.1500E+05  0.000E+00  0.000E+00  0.000E+00  4.31680E+01  1.567E-01  2.000E+01  2.000E+04 -7.895E-02
   1   15   13     1    13    1.1500E+05 -1.5102E+03   1.1651E+05  0.000E+00  0.000E+00  0.000E+00  4.26920E+01  1.579E-01  2.000E+01  2.000E+04 -7.551E-02
   1   14   14     1    14    1.1651E+05 -1.7736E+03   1.1828E+05  0.000E+00  0.000E+00  0.000E+00  4.22161E+01  1.593E-01  2.000E+01  2.000E+04 -8.868E-02
   1   13   15     1    15    1.1828E+05 -2.0994E+03   1.2038E+05  0.000E+00  0.000E+00  0.000E+00  4.17404E+01  1.608E-01  2.000E+01  2.000E+04 -1.050E-01
   1   12   16     1    16    1.2038E+05 -2.8971E+03   1.2328E+05  0.000E+00  0.000E+00  0.000E+00  4.12651E+01  1.628E-01  2.000E+01  2.000E+04 -1.449E-01
   1   12   17     1    17    1.2328E+05 -1.7740E+03   1.2505E+05  0.000E+00  0.000E+00  0.000E+00  4.07897E+01  1.647E-01  2.000E+01  2.000E+04 -8.870E-02
   1   12   18     1    18    1.2505E+05 -1.6227E+03   1.2668E+05  0.000E+00  0.000E+00  0.000E+00  4.03138E+01  1.661E-01  2.000E+01  2.000E+04 -8.113E-02
   1   12   19     1    19    1.2668E+05 -2.1808E+03   1.2886E+05  0.000E+00  0.000E+00  0.000E+00  3.98380E+01  1.676E-01  2.000E+01  2.000E+04 -1.090E-01
   1   13   20     1    20    1.2886E+05 -7.3411E+02   1.2959E+05  0.000E+00  0.000E+00  0.000E+00  3.93619E+01  1.687E-01  2.000E+01  2.000E+04 -3.671E-02
   1   14   21     1    21    1.2959E+05  4.0968E+03   1.2549E+05  0.000E+00  0.000E+00  0.000E+00  3.88833E+01  1.674E-01  2.000E+01  2.000E+04  2.048E-01
   1   14   22     1    22    1.2549E+05  5.8232E+03   1.1967E+05  0.000E+00  0.000E+00  0.000E+00  3.84021E+01  1.634E-01  2.000E+01  2.000E+04  2.912E-01
   1    9   30     2     1    5.0000E+04  2.0931E+03   4.7907E+04  0.000E+00  0.000E+00  0.000E+00  4.02394E+01  1.144E-01  2.000E+01  2.000E+04  1.047E-01
   1    9   29     2     2    4.7907E+04  4.0385E+03   4.3868E+04  0.000E+00  0.000E+00  0.000E+00  3.99850E+01  1.100E-01  2.000E+01  2.000E+04  2.019E-01
   1    9   28     2     3    4.3868E+04  8.5205E+02   4.3016E+04  0.000E+00  0.000E+00  0.000E+00  3.97315E+01  1.065E-01  2.000E+01  2.000E+04  4.260E-02
   1    9   27     2     4    4.3016E+04 -1.6498E+03   4.4666E+04  0.000E+00  0.000E+00  0.000E+00  3.94821E+01  1.071E-01  2.000E+01  2.000E+04 -8.249E-02
   1   10   26     2     5    4.4666E+04 -4.6110E+02   4.5127E+04  0.000E+00  0.000E+00  0.000E+00  3.92336E+01  1.086E-01  2.000E+01  2.000E+04 -2.306E-02
   1   11   25     2     6    4.5127E+04 -8.1526E+02   4.5943E+04  0.000E+00  0.000E+00  0.000E+00  3.89845E+01  1.095E-01  2.000E+01  2.000E+04 -4.076E-02
   1   12   24     2     7    4.5943E+04 -1.3300E+03   4.7273E+04  0.000E+00  0.000E+00  0.000E+00  3.87361E+01  1.111E-01  2.000E+01  2.000E+04 -6.650E-02
   1   13   23     2     8    4.7273E+04 -2.5633E+02   4.7529E+04  0.000E+00  0.000E+00  0.000E+00  3.84872E+01  1.122E-01  2.000E+01  2.000E+04 -1.282E-02
   1   14   22     2     9    4.7529E+04  2.4938E+03   4.5035E+04  0.000E+00  0.000E+00  0.000E+00  3.82356E+01  1.106E-01  2.000E+01  2.000E+04  1.247E-01
   1   14   22     3     1    1.6471E+05 -7.8229E+03   1.7253E+05  0.000E+00  0.000E+00  0.000E+00  3.77198E+01  1.642E-01  2.000E+01  2.000E+04 -3.911E-01
   1   15   23     3     2    1.7253E+05  6.3116E+01   1.7247E+05  0.000E+00  0.000E+00  0.000E+00  3.68331E+01  1.665E-01  2.000E+01  2.000E+04  3.156E-03
   1   15   24     3     3    1.7247E+05 -1.8501E+02   1.7265E+05  0.000E+00  0.000E+00  0.000E+00  3.59443E+01  1.665E-01  2.000E+01  2.000E+04 -9.250E-03
   1   15   25     3     4    1.7265E+05 -1.8889E+02   1.7284E+05  0.000E+00  0.000E+00  0.000E+00  3.50555E+01  1.666E-01  2.000E+01  2.000E+04 -9.445E-03
   1   15   26     3     5    1.7284E+05 -1.0668E+02   1.7295E+05  0.000E+00  0.000E+00  0.000E+00  3.41667E+01  1.667E-01  2.000E+01  2.000E+04 -5.334E-03
   1   16   27     3     6    1.7295E+05  1.9222E+02   1.7275E+05  0.000E+00  0.000E+00  0.000E+00  3.32778E+01  1.667E-01  2.000E+01  2.000E+04  9.611E-03
   1   17   28     3     7    1.7275E+05  7.1552E+03   1.6560E+05  0.000E+00  0.000E+00  0.000E+00  3.23868E+01  1.646E-01  2.000E+01  2.000E+04  3.578E-01
   1   18   29     3     8    1.6560E+05  9.0701E+03   1.5653E+05  0.000E+00  0.000E+00  0.000E+00  3.14931E+01  1.598E-01  2.000E+01  2.000E+04  4.535E-01
   1   18   30     3     9    1.5653E+05  2.8757E+03   1.5365E+05  0.000E+00  0.000E+00  0.000E+00  3.06006E+01  1.562E-01  2.000E+01  2.000E+04  1.438E-01



1
              HEAD IN LAYER   1 AT END OF TIME STEP   1 IN STRESS PERIOD    8
  ---------------------------------------------------------------------------

          1      2      3      4      5      6      7      8      9     10
         11     12     13     14     15     16     17     18     19     20
         21     22     23     24     25     26     27     28     29     30
 .........................................................................
   1  ****** ****** ****** ****** ****** ****** ****** ****** ****** ******
      ****** ****** ****** ****** ****** ****** ****** ****** ****** ******
      ****** ****** ****** ****** ****** ****** ****** ****** ****** ******
   2  ****** ****** ****** ****** ****** ****** ****** ****** ****** ******
      ****** ****** ****** ****** ****** ****** ****** ****** ****** ******
      ****** ****** ****** ****** ****** ****** ****** ****** ****** ******
   3  ****** ****** ****** ****** ****** ****** ****** ****** ****** ******
      ****** ****** ****** ****** ****** ****** ****** ****** ****** ******
      ****** ****** ****** ****** ****** ****** ****** ****** ****** ******
   4  ****** ****** ****** ****** ****** ****** ****** ****** ****** ******
      ****** ****** ****** ****** ****** ****** ****** ****** ****** ******
      ****** ****** ****** ****** ****** ****** ****** ****** ****** ******
   5  ****** ****** ****** ****** ****** ****** ****** ****** ****** ******
      ****** ****** ****** ****** ****** ****** ****** ****** ****** ******
      ****** ****** ****** ****** ****** ****** ****** ****** ****** ******
   6  ****** ****** ****** ****** ****** ****** ****** ****** ****** ******
      ****** ****** ****** ****** ****** ****** ****** ****** ****** ******
      ****** ****** ****** ****** ****** ****** ****** ****** ****** ******
   7  ****** ****** ****** ****** ****** ****** ****** ****** ****** ******
      ****** ****** ****** ****** ****** ****** ****** ****** ****** ******
      ****** ****** ****** ****** ****** ****** ****** ****** ****** ******
   8  ****** ****** ****** ****** ****** ****** ****** ****** ****** ******
      ****** ****** ****** ****** ****** ****** ****** ****** ****** ******
      ****** ****** ****** ****** ****** ****** ****** ****** ****** ******
   9  ****** ****** ****** ****** ****** ****** ****** ****** ****** ******
      ****** ****** ****** ****** ****** ****** ****** ****** ****** ******
      ****** ****** ****** ****** ****** ****** ****** ****** ****** ******
  10  ****** ****** ****** ****** ****** ****** ****** ****** ****** ******
      ****** ****** ****** ****** ****** ****** ****** ****** ****** ******
      ****** ****** ****** ****** ****** ****** ****** ****** ****** ******
  11  ****** ****** ****** ****** ****** ****** ****** ****** ****** ******
      ****** ****** ****** ****** ****** ****** ****** ****** ****** ******
      ****** ****** ****** ****** ****** ****** ****** ****** ****** ******
  12  ****** ****** ****** ****** ****** ****** ****** ****** ****** ******
      ****** ****** ****** ****** ****** ****** ****** ****** ****** ******
      ****** ****** ****** ****** ****** ****** ****** ****** ****** ******
  13  ****** ****** ****** ****** ****** ****** ****** ****** ****** ******
      ****** ****** ****** ****** ****** ****** ****** ****** ****** ******
      ****** ****** ****** ****** ****** ****** ****** ****** ****** ******
  14  ****** ****** ****** ****** ****** ****** ****** ****** ****** ******
      ****** ****** ****** ****** ****** ****** ****** ****** ****** ******
      ****** ****** ****** ****** ****** ****** ****** ****** ****** ******
  15  ****** ****** ****** ****** ****** ****** ****** ****** ****** ******
      ****** ****** ****** ****** ****** ****** ****** ****** ****** ******
      ****** ****** ****** ****** ****** ****** ****** ****** ****** ******
  16  ****** ****** ****** ****** ****** ****** ****** ****** ****** ******
      ****** ****** ****** ****** ****** ****** ****** ****** ****** ******
      ****** ****** ****** ****** ****** ****** ****** ****** ****** ******
  17  ****** ****** ****** ****** ****** ****** ****** ****** ****** ******
      ****** ****** ****** ****** ****** ****** ****** ****** ****** ******
      ****** ****** ****** ****** ****** ****** ****** ****** ****** ******
  18  ****** ****** ****** ****** ****** ****** ****** ****** ****** ******
      ****** ****** ****** ****** ****** ****** ****** ****** ****** ******
      ****** ****** ****** ****** ****** ****** ****** ****** ****** ******
  19  ****** ****** ****** ****** ****** ****** ****** ****** ****** ******
      ****** ****** ****** ****** ****** ****** ****** ****** ****** ******
      ****** ****** ****** ****** ****** ****** ****** ****** ****** ******
  20  ****** ****** ****** ****** ****** ****** ****** ****** ****** ******
      ****** ****** ****** ****** ****** ****** ****** ****** ****** ******
      ****** ****** ****** ****** ****** ****** ****** ****** ****** ******
  21  ****** ****** ****** ****** ****** ****** ****** ****** ****** ******
      ****** ****** ****** ****** ****** ****** ****** ****** ****** ******
      ****** ****** ****** ****** ****** ****** ****** ****** ****** ******
  22  ****** ****** ****** ****** ****** ****** ****** ****** ****** ******
      ****** ****** ****** ****** ****** ****** ****** ****** ****** ******
      ****** ****** ****** ****** ****** ****** ****** ****** ****** ******
  23  ****** ****** ****** ****** ****** ****** ****** ****** ****** ******
      ****** ****** ****** ****** ****** ****** ****** ****** ****** ******
      ****** ****** ****** ****** ****** ****** ****** ****** ****** ******
  24  ****** ****** ****** ****** ****** ****** ****** ****** ****** ******
      ****** ****** ****** ****** ****** ****** ****** ****** ****** ******
      ****** ****** ****** ****** ****** ****** ****** ****** ****** ******
  25  ****** ****** ****** ****** ****** ****** ****** ****** ****** ******
      ****** ****** ****** ****** ****** ****** ****** ****** ****** ******
      ****** ****** ****** ****** ****** ****** ****** ****** ****** ******

 HEAD WILL BE SAVED ON UNIT   51 AT END OF TIME STEP    1, STRESS PERIOD    8
1
  VOLUMETRIC BUDGET FOR ENTIRE MODEL AT END OF TIME STEP    1, STRESS PERIOD   8
  ------------------------------------------------------------------------------

     CUMULATIVE VOLUMES      L**3       RATES FOR THIS TIME STEP      L**3/T
     ------------------                 ------------------------

           IN:                                      IN:
           ---                                      ---
             STORAGE =    32196484.5381               STORAGE =        1271.5550
       CONSTANT HEAD =    18389864.6075         CONSTANT HEAD =       31537.1087
               WELLS =           0.0000                 WELLS =           0.0000
            RECHARGE =    17608800.0000              RECHARGE =       27600.0000
      STREAM LEAKAGE =    23531649.2115        STREAM LEAKAGE =       38753.7324

            TOTAL IN =    91726798.3572              TOTAL IN =       99162.3960

          OUT:                                     OUT:
          ----                                     ----
             STORAGE =      987336.0698               STORAGE =        1590.3704
       CONSTANT HEAD =           0.0000         CONSTANT HEAD =           0.0000
               WELLS =    40270721.1530                 WELLS =       55165.3714
            RECHARGE =           0.0000              RECHARGE =           0.0000
      STREAM LEAKAGE =    50468742.8684        STREAM LEAKAGE =       42406.6458

           TOTAL OUT =    91726800.0913             TOTAL OUT =       99162.3876

            IN - OUT =          -1.7341              IN - OUT =       8.4182E-03

 PERCENT DISCREPANCY =          -0.00     PERCENT DISCREPANCY =           0.00






         TIME SUMMARY AT END OF TIME STEP    1 IN STRESS PERIOD    8
                    SECONDS     MINUTES      HOURS       DAYS        YEARS
                    -----------------------------------------------------------
   TIME STEP LENGTH 7.86240E+06 1.31040E+05  2184.0      91.000     0.24914    
 STRESS PERIOD TIME 7.86240E+06 1.31040E+05  2184.0      91.000     0.24914    
         TOTAL TIME 6.30720E+07 1.05120E+06  17520.      730.00      1.9986    
1
1
                            STRESS PERIOD NO.    9, LENGTH =   92.00000    
                            -----------------------------------------------

                              NUMBER OF TIME STEPS =     1

                               MULTIPLIER FOR DELT =     1.500

                            INITIAL TIME STEP SIZE =   92.00000    

 WELL NO.  LAYER   ROW   COL   STRESS RATE         
 --------------------------------------------------
      1      1     10     29     -0.1299E+05
      2      1     15     21     -0.1317E+05
      3      1     19     29     -0.1184E+05
      4      1     17     29     -0.1716E+05

      4 WELLS

                 RECHARGE =  5.000000E-04

 REUSING STREAM SEGMENT DATA FROM LAST STRESS PERIOD
 
 SOLVING FOR HEAD 


     6 CALLS TO PCG ROUTINE FOR TIME STEP   1 IN STRESS PERIOD    9
    23 TOTAL ITERATIONS

 OUTPUT CONTROL FOR STRESS PERIOD    9   TIME STEP    1
    SAVE BUDGET
    SAVE HEAD FOR ALL LAYERS
    PRINT HEAD FOR ALL LAYERS
 UBDSV2 SAVING "STREAMFLOW OUT  " ON UNIT  50 AT TIME STEP  1, STRESS PERIOD   9



 STREAM LISTING     PERIOD      9   STEP        1

 LAYER ROW COL. STREAM  RCH.  FLOW INTO     FLOW TO   FLOW OUT OF   OVRLND.     DIRECT     STREAM       STREAM     STREAM     STREAM   STREAMBED  STREAMBED
                SEG.NO.  NO.  STRM. RCH.    AQUIFER    STRM. RCH.    RUNOFF     PRECIP       ET          HEAD       DEPTH      WIDTH   CONDCTNC.   GRADIENT

   1   13    1     1     1    1.0000E+05 -1.6932E+03   1.0169E+05  0.000E+00  0.000E+00  0.000E+00  4.84067E+01  1.454E-01  2.000E+01  2.000E+04 -8.466E-02
   1   13    2     1     2    1.0169E+05 -2.6411E+03   1.0433E+05  0.000E+00  0.000E+00  0.000E+00  4.79313E+01  1.473E-01  2.000E+01  2.000E+04 -1.321E-01
   1   14    3     1     3    1.0433E+05 -4.1081E+02   1.0475E+05  0.000E+00  0.000E+00  0.000E+00  4.74554E+01  1.486E-01  2.000E+01  2.000E+04 -2.054E-02
   1   15    4     1     4    1.0475E+05 -3.7972E+02   1.0512E+05  0.000E+00  0.000E+00  0.000E+00  4.69784E+01  1.489E-01  2.000E+01  2.000E+04 -1.899E-02
   1   16    5     1     5    1.0512E+05 -1.4517E+03   1.0658E+05  0.000E+00  0.000E+00  0.000E+00  4.65019E+01  1.497E-01  2.000E+01  2.000E+04 -7.258E-02
   1   16    6     1     6    1.0658E+05 -9.2892E+02   1.0751E+05  0.000E+00  0.000E+00  0.000E+00  4.60257E+01  1.507E-01  2.000E+01  2.000E+04 -4.645E-02
   1   16    7     1     7    1.0751E+05 -9.1413E+02   1.0842E+05  0.000E+00  0.000E+00  0.000E+00  4.55492E+01  1.515E-01  2.000E+01  2.000E+04 -4.571E-02
   1   16    8     1     8    1.0842E+05 -9.0860E+02   1.0933E+05  0.000E+00  0.000E+00  0.000E+00  4.50727E+01  1.522E-01  2.000E+01  2.000E+04 -4.543E-02
   1   16    9     1     9    1.0933E+05 -8.9618E+02   1.1022E+05  0.000E+00  0.000E+00  0.000E+00  4.45962E+01  1.530E-01  2.000E+01  2.000E+04 -4.481E-02
   1   16   10     1    10    1.1022E+05 -8.7538E+02   1.1110E+05  0.000E+00  0.000E+00  0.000E+00  4.41196E+01  1.537E-01  2.000E+01  2.000E+04 -4.377E-02
   1   16   11     1    11    1.1110E+05 -8.5896E+02   1.1196E+05  0.000E+00  0.000E+00  0.000E+00  4.36431E+01  1.544E-01  2.000E+01  2.000E+04 -4.295E-02
   1   16   12     1    12    1.1196E+05 -1.3911E+03   1.1335E+05  0.000E+00  0.000E+00  0.000E+00  4.31667E+01  1.554E-01  2.000E+01  2.000E+04 -6.955E-02
   1   15   13     1    13    1.1335E+05 -1.3023E+03   1.1465E+05  0.000E+00  0.000E+00  0.000E+00  4.26906E+01  1.565E-01  2.000E+01  2.000E+04 -6.512E-02
   1   14   14     1    14    1.1465E+05 -1.5533E+03   1.1621E+05  0.000E+00  0.000E+00  0.000E+00  4.22145E+01  1.577E-01  2.000E+01  2.000E+04 -7.766E-02
   1   13   15     1    15    1.1621E+05 -1.8741E+03   1.1808E+05  0.000E+00  0.000E+00  0.000E+00  4.17386E+01  1.591E-01  2.000E+01  2.000E+04 -9.370E-02
   1   12   16     1    16    1.1808E+05 -2.6650E+03   1.2074E+05  0.000E+00  0.000E+00  0.000E+00  4.12632E+01  1.609E-01  2.000E+01  2.000E+04 -1.333E-01
   1   12   17     1    17    1.2074E+05 -1.6137E+03   1.2236E+05  0.000E+00  0.000E+00  0.000E+00  4.07876E+01  1.626E-01  2.000E+01  2.000E+04 -8.069E-02
   1   12   18     1    18    1.2236E+05 -1.4695E+03   1.2383E+05  0.000E+00  0.000E+00  0.000E+00  4.03116E+01  1.639E-01  2.000E+01  2.000E+04 -7.347E-02
   1   12   19     1    19    1.2383E+05 -1.9965E+03   1.2582E+05  0.000E+00  0.000E+00  0.000E+00  3.98357E+01  1.652E-01  2.000E+01  2.000E+04 -9.982E-02
   1   13   20     1    20    1.2582E+05 -5.6142E+02   1.2639E+05  0.000E+00  0.000E+00  0.000E+00  3.93594E+01  1.663E-01  2.000E+01  2.000E+04 -2.807E-02
   1   14   21     1    21    1.2639E+05  4.2686E+03   1.2212E+05  0.000E+00  0.000E+00  0.000E+00  3.88807E+01  1.648E-01  2.000E+01  2.000E+04  2.134E-01
   1   14   22     1    22    1.2212E+05  5.8628E+03   1.1625E+05  0.000E+00  0.000E+00  0.000E+00  3.83994E+01  1.607E-01  2.000E+01  2.000E+04  2.931E-01
   1    9   30     2     1    5.0000E+04  2.2157E+03   4.7784E+04  0.000E+00  0.000E+00  0.000E+00  4.02393E+01  1.143E-01  2.000E+01  2.000E+04  1.108E-01
   1    9   29     2     2    4.7784E+04  4.1613E+03   4.3623E+04  0.000E+00  0.000E+00  0.000E+00  3.99848E+01  1.098E-01  2.000E+01  2.000E+04  2.081E-01
   1    9   28     2     3    4.3623E+04  9.7659E+02   4.2646E+04  0.000E+00  0.000E+00  0.000E+00  3.97310E+01  1.060E-01  2.000E+01  2.000E+04  4.883E-02
   1    9   27     2     4    4.2646E+04 -1.4752E+03   4.4122E+04  0.000E+00  0.000E+00  0.000E+00  3.94814E+01  1.064E-01  2.000E+01  2.000E+04 -7.376E-02
   1   10   26     2     5    4.4122E+04 -2.8899E+02   4.4411E+04  0.000E+00  0.000E+00  0.000E+00  3.92327E+01  1.077E-01  2.000E+01  2.000E+04 -1.445E-02
   1   11   25     2     6    4.4411E+04 -6.5052E+02   4.5061E+04  0.000E+00  0.000E+00  0.000E+00  3.89834E+01  1.084E-01  2.000E+01  2.000E+04 -3.253E-02
   1   12   24     2     7    4.5061E+04 -1.1787E+03   4.6240E+04  0.000E+00  0.000E+00  0.000E+00  3.87347E+01  1.097E-01  2.000E+01  2.000E+04 -5.893E-02
   1   13   23     2     8    4.6240E+04 -2.0945E+02   4.6449E+04  0.000E+00  0.000E+00  0.000E+00  3.84857E+01  1.107E-01  2.000E+01  2.000E+04 -1.047E-02
   1   14   22     2     9    4.6449E+04  2.5561E+03   4.3893E+04  0.000E+00  0.000E+00  0.000E+00  3.82340E+01  1.090E-01  2.000E+01  2.000E+04  1.278E-01
   1   14   22     3     1    1.6015E+05 -7.7824E+03   1.6793E+05  0.000E+00  0.000E+00  0.000E+00  3.77171E+01  1.615E-01  2.000E+01  2.000E+04 -3.891E-01
   1   15   23     3     2    1.6793E+05  1.1583E+02   1.6781E+05  0.000E+00  0.000E+00  0.000E+00  3.68305E+01  1.638E-01  2.000E+01  2.000E+04  5.792E-03
   1   15   24     3     3    1.6781E+05 -1.4189E+02   1.6796E+05  0.000E+00  0.000E+00  0.000E+00  3.59416E+01  1.638E-01  2.000E+01  2.000E+04 -7.095E-03
   1   15   25     3     4    1.6796E+05 -1.4552E+02   1.6810E+05  0.000E+00  0.000E+00  0.000E+00  3.50528E+01  1.639E-01  2.000E+01  2.000E+04 -7.276E-03
   1   15   26     3     5    1.6810E+05 -5.9018E+01   1.6816E+05  0.000E+00  0.000E+00  0.000E+00  3.41639E+01  1.639E-01  2.000E+01  2.000E+04 -2.951E-03
   1   16   27     3     6    1.6816E+05  2.4835E+02   1.6791E+05  0.000E+00  0.000E+00  0.000E+00  3.32750E+01  1.639E-01  2.000E+01  2.000E+04  1.242E-02
   1   17   28     3     7    1.6791E+05  7.3092E+03   1.6060E+05  0.000E+00  0.000E+00  0.000E+00  3.23839E+01  1.617E-01  2.000E+01  2.000E+04  3.655E-01
   1   18   29     3     8    1.6060E+05  9.2469E+03   1.5136E+05  0.000E+00  0.000E+00  0.000E+00  3.14901E+01  1.567E-01  2.000E+01  2.000E+04  4.623E-01
   1   18   30     3     9    1.5136E+05  3.0083E+03   1.4835E+05  0.000E+00  0.000E+00  0.000E+00  3.05974E+01  1.530E-01  2.000E+01  2.000E+04  1.504E-01



1
              HEAD IN LAYER   1 AT END OF TIME STEP   1 IN STRESS PERIOD    9
  ---------------------------------------------------------------------------

          1      2      3      4      5      6      7      8      9     10
         11     12     13     14     15     16     17     18     19     20
         21     22     23     24     25     26     27     28     29     30
 .........................................................................
   1  ****** ****** ****** ****** ****** ****** ****** ****** ****** ******
      ****** ****** ****** ****** ****** ****** ****** ****** ****** ******
      ****** ****** ****** ****** ****** ****** ****** ****** ****** ******
   2  ****** ****** ****** ****** ****** ****** ****** ****** ****** ******
      ****** ****** ****** ****** ****** ****** ****** ****** ****** ******
      ****** ****** ****** ****** ****** ****** ****** ****** ****** ******
   3  ****** ****** ****** ****** ****** ****** ****** ****** ****** ******
      ****** ****** ****** ****** ****** ****** ****** ****** ****** ******
      ****** ****** ****** ****** ****** ****** ****** ****** ****** ******
   4  ****** ****** ****** ****** ****** ****** ****** ****** ****** ******
      ****** ****** ****** ****** ****** ****** ****** ****** ****** ******
      ****** ****** ****** ****** ****** ****** ****** ****** ****** ******
   5  ****** ****** ****** ****** ****** ****** ****** ****** ****** ******
      ****** ****** ****** ****** ****** ****** ****** ****** ****** ******
      ****** ****** ****** ****** ****** ****** ****** ****** ****** ******
   6  ****** ****** ****** ****** ****** ****** ****** ****** ****** ******
      ****** ****** ****** ****** ****** ****** ****** ****** ****** ******
      ****** ****** ****** ****** ****** ****** ****** ****** ****** ******
   7  ****** ****** ****** ****** ****** ****** ****** ****** ****** ******
      ****** ****** ****** ****** ****** ****** ****** ****** ****** ******
      ****** ****** ****** ****** ****** ****** ****** ****** ****** ******
   8  ****** ****** ****** ****** ****** ****** ****** ****** ****** ******
      ****** ****** ****** ****** ****** ****** ****** ****** ****** ******
      ****** ****** ****** ****** ****** ****** ****** ****** ****** ******
   9  ****** ****** ****** ****** ****** ****** ****** ****** ****** ******
      ****** ****** ****** ****** ****** ****** ****** ****** ****** ******
      ****** ****** ****** ****** ****** ****** ****** ****** ****** ******
  10  ****** ****** ****** ****** ****** ****** ****** ****** ****** ******
      ****** ****** ****** ****** ****** ****** ****** ****** ****** ******
      ****** ****** ****** ****** ****** ****** ****** ****** ****** ******
  11  ****** ****** ****** ****** ****** ****** ****** ****** ****** ******
      ****** ****** ****** ****** ****** ****** ****** ****** ****** ******
      ****** ****** ****** ****** ****** ****** ****** ****** ****** ******
  12  ****** ****** ****** ****** ****** ****** ****** ****** ****** ******
      ****** ****** ****** ****** ****** ****** ****** ****** ****** ******
      ****** ****** ****** ****** ****** ****** ****** ****** ****** ******
  13  ****** ****** ****** ****** ****** ****** ****** ****** ****** ******
      ****** ****** ****** ****** ****** ****** ****** ****** ****** ******
      ****** ****** ****** ****** ****** ****** ****** ****** ****** ******
  14  ****** ****** ****** ****** ****** ****** ****** ****** ****** ******
      ****** ****** ****** ****** ****** ****** ****** ****** ****** ******
      ****** ****** ****** ****** ****** ****** ****** ****** ****** ******
  15  ****** ****** ****** ****** ****** ****** ****** ****** ****** ******
      ****** ****** ****** ****** ****** ****** ****** ****** ****** ******
      ****** ****** ****** ****** ****** ****** ****** ****** ****** ******
  16  ****** ****** ****** ****** ****** ****** ****** ****** ****** ******
      ****** ****** ****** ****** ****** ****** ****** ****** ****** ******
      ****** ****** ****** ****** ****** ****** ****** ****** ****** ******
  17  ****** ****** ****** ****** ****** ****** ****** ****** ****** ******
      ****** ****** ****** ****** ****** ****** ****** ****** ****** ******
      ****** ****** ****** ****** ****** ****** ****** ****** ****** ******
  18  ****** ****** ****** ****** ****** ****** ****** ****** ****** ******
      ****** ****** ****** ****** ****** ****** ****** ****** ****** ******
      ****** ****** ****** ****** ****** ****** ****** ****** ****** ******
  19  ****** ****** ****** ****** ****** ****** ****** ****** ****** ******
      ****** ****** ****** ****** ****** ****** ****** ****** ****** ******
      ****** ****** ****** ****** ****** ****** ****** ****** ****** ******
  20  ****** ****** ****** ****** ****** ****** ****** ****** ****** ******
      ****** ****** ****** ****** ****** ****** ****** ****** ****** ******
      ****** ****** ****** ****** ****** ****** ****** ****** ****** ******
  21  ****** ****** ****** ****** ****** ****** ****** ****** ****** ******
      ****** ****** ****** ****** ****** ****** ****** ****** ****** ******
      ****** ****** ****** ****** ****** ****** ****** ****** ****** ******
  22  ****** ****** ****** ****** ****** ****** ****** ****** ****** ******
      ****** ****** ****** ****** ****** ****** ****** ****** ****** ******
      ****** ****** ****** ****** ****** ****** ****** ****** ****** ******
  23  ****** ****** ****** ****** ****** ****** ****** ****** ****** ******
      ****** ****** ****** ****** ****** ****** ****** ****** ****** ******
      ****** ****** ****** ****** ****** ****** ****** ****** ****** ******
  24  ****** ****** ****** ****** ****** ****** ****** ****** ****** ******
      ****** ****** ****** ****** ****** ****** ****** ****** ****** ******
      ****** ****** ****** ****** ****** ****** ****** ****** ****** ******
  25  ****** ****** ****** ****** ****** ****** ****** ****** ****** ******
      ****** ****** ****** ****** ****** ****** ****** ****** ****** ******
      ****** ****** ****** ****** ****** ****** ****** ****** ****** ******

 HEAD WILL BE SAVED ON UNIT   51 AT END OF TIME STEP    1, STRESS PERIOD    9
1
  VOLUMETRIC BUDGET FOR ENTIRE MODEL AT END OF TIME STEP    1, STRESS PERIOD   9
  ------------------------------------------------------------------------------

     CUMULATIVE VOLUMES      L**3       RATES FOR THIS TIME STEP      L**3/T
     ------------------                 ------------------------

           IN:                                      IN:
           ---                                      ---
             STORAGE =    32843192.3829               STORAGE =        7029.4331
       CONSTANT HEAD =    21396735.9374         CONSTANT HEAD =       32683.3840
               WELLS =           0.0000                 WELLS =           0.0000
            RECHARGE =    18878400.0000              RECHARGE =       13800.0000
      STREAM LEAKAGE =    27208857.5967        STREAM LEAKAGE =       39969.6564

            TOTAL IN =   100327185.9170              TOTAL IN =       93482.4735

          OUT:                                     OUT:
          ----                                     ----
             STORAGE =      987336.0698               STORAGE =           0.0000
       CONSTANT HEAD =           0.0000         CONSTANT HEAD =           0.0000
               WELLS =    45345935.3257                 WELLS =       55165.3714
            RECHARGE =           0.0000              RECHARGE =           0.0000
      STREAM LEAKAGE =    53993916.3223        STREAM LEAKAGE =       38317.1028

           TOTAL OUT =   100327187.7179             TOTAL OUT =       93482.4742

            IN - OUT =          -1.8008              IN - OUT =      -7.2532E-04

 PERCENT DISCREPANCY =          -0.00     PERCENT DISCREPANCY =          -0.00






         TIME SUMMARY AT END OF TIME STEP    1 IN STRESS PERIOD    9
                    SECONDS     MINUTES      HOURS       DAYS        YEARS
                    -----------------------------------------------------------
   TIME STEP LENGTH 7.94880E+06 1.32480E+05  2208.0      92.000     0.25188    
 STRESS PERIOD TIME 7.94880E+06 1.32480E+05  2208.0      92.000     0.25188    
         TOTAL TIME 7.10208E+07 1.18368E+06  19728.      822.00      2.2505    
1
1
                            STRESS PERIOD NO.   10, LENGTH =   91.00000    
                            -----------------------------------------------

                              NUMBER OF TIME STEPS =     1

                               MULTIPLIER FOR DELT =     1.500

                            INITIAL TIME STEP SIZE =   91.00000    

 WELL NO.  LAYER   ROW   COL   STRESS RATE         
 --------------------------------------------------
      1      1     10     29     -0.1299E+05
      2      1     15     21     -0.1317E+05
      3      1     19     29     -0.1184E+05
      4      1     17     29     -0.1716E+05

      4 WELLS

                 RECHARGE =  2.000000E-03

 REUSING STREAM SEGMENT DATA FROM LAST STRESS PERIOD
 
 SOLVING FOR HEAD 


     7 CALLS TO PCG ROUTINE FOR TIME STEP   1 IN STRESS PERIOD   10
    26 TOTAL ITERATIONS

 OUTPUT CONTROL FOR STRESS PERIOD   10   TIME STEP    1
    SAVE BUDGET
    SAVE HEAD FOR ALL LAYERS
    PRINT HEAD FOR ALL LAYERS
 UBDSV2 SAVING "STREAMFLOW OUT  " ON UNIT  50 AT TIME STEP  1, STRESS PERIOD  10



 STREAM LISTING     PERIOD     10   STEP        1

 LAYER ROW COL. STREAM  RCH.  FLOW INTO     FLOW TO   FLOW OUT OF   OVRLND.     DIRECT     STREAM       STREAM     STREAM     STREAM   STREAMBED  STREAMBED
                SEG.NO.  NO.  STRM. RCH.    AQUIFER    STRM. RCH.    RUNOFF     PRECIP       ET          HEAD       DEPTH      WIDTH   CONDCTNC.   GRADIENT

   1   13    1     1     1    1.0000E+05 -2.1494E+03   1.0215E+05  0.000E+00  0.000E+00  0.000E+00  4.84069E+01  1.456E-01  2.000E+01  2.000E+04 -1.075E-01
   1   13    2     1     2    1.0215E+05 -3.1470E+03   1.0530E+05  0.000E+00  0.000E+00  0.000E+00  4.79320E+01  1.479E-01  2.000E+01  2.000E+04 -1.573E-01
   1   14    3     1     3    1.0530E+05 -5.9799E+02   1.0589E+05  0.000E+00  0.000E+00  0.000E+00  4.74563E+01  1.495E-01  2.000E+01  2.000E+04 -2.990E-02
   1   15    4     1     4    1.0589E+05 -5.7967E+02   1.0647E+05  0.000E+00  0.000E+00  0.000E+00  4.69795E+01  1.500E-01  2.000E+01  2.000E+04 -2.898E-02
   1   16    5     1     5    1.0647E+05 -2.0710E+03   1.0855E+05  0.000E+00  0.000E+00  0.000E+00  4.65033E+01  1.511E-01  2.000E+01  2.000E+04 -1.036E-01
   1   16    6     1     6    1.0855E+05 -1.2916E+03   1.0984E+05  0.000E+00  0.000E+00  0.000E+00  4.60275E+01  1.525E-01  2.000E+01  2.000E+04 -6.458E-02
   1   16    7     1     7    1.0984E+05 -1.2591E+03   1.1110E+05  0.000E+00  0.000E+00  0.000E+00  4.55513E+01  1.536E-01  2.000E+01  2.000E+04 -6.295E-02
   1   16    8     1     8    1.1110E+05 -1.2481E+03   1.1234E+05  0.000E+00  0.000E+00  0.000E+00  4.50751E+01  1.546E-01  2.000E+01  2.000E+04 -6.240E-02
   1   16    9     1     9    1.1234E+05 -1.2341E+03   1.1358E+05  0.000E+00  0.000E+00  0.000E+00  4.45988E+01  1.556E-01  2.000E+01  2.000E+04 -6.170E-02
   1   16   10     1    10    1.1358E+05 -1.2133E+03   1.1479E+05  0.000E+00  0.000E+00  0.000E+00  4.41225E+01  1.566E-01  2.000E+01  2.000E+04 -6.067E-02
   1   16   11     1    11    1.1479E+05 -1.2002E+03   1.1599E+05  0.000E+00  0.000E+00  0.000E+00  4.36463E+01  1.576E-01  2.000E+01  2.000E+04 -6.001E-02
   1   16   12     1    12    1.1599E+05 -1.9609E+03   1.1795E+05  0.000E+00  0.000E+00  0.000E+00  4.31703E+01  1.589E-01  2.000E+01  2.000E+04 -9.804E-02
   1   15   13     1    13    1.1795E+05 -1.8901E+03   1.1984E+05  0.000E+00  0.000E+00  0.000E+00  4.26946E+01  1.605E-01  2.000E+01  2.000E+04 -9.451E-02
   1   14   14     1    14    1.1984E+05 -2.1489E+03   1.2199E+05  0.000E+00  0.000E+00  0.000E+00  4.22189E+01  1.621E-01  2.000E+01  2.000E+04 -1.074E-01
   1   13   15     1    15    1.2199E+05 -2.4603E+03   1.2445E+05  0.000E+00  0.000E+00  0.000E+00  4.17435E+01  1.640E-01  2.000E+01  2.000E+04 -1.230E-01
   1   12   16     1    16    1.2445E+05 -3.2309E+03   1.2768E+05  0.000E+00  0.000E+00  0.000E+00  4.12685E+01  1.662E-01  2.000E+01  2.000E+04 -1.615E-01
   1   12   17     1    17    1.2768E+05 -2.0412E+03   1.2972E+05  0.000E+00  0.000E+00  0.000E+00  4.07933E+01  1.683E-01  2.000E+01  2.000E+04 -1.021E-01
   1   12   18     1    18    1.2972E+05 -1.8925E+03   1.3162E+05  0.000E+00  0.000E+00  0.000E+00  4.03176E+01  1.698E-01  2.000E+01  2.000E+04 -9.462E-02
   1   12   19     1    19    1.3162E+05 -2.5171E+03   1.3413E+05  0.000E+00  0.000E+00  0.000E+00  3.98420E+01  1.715E-01  2.000E+01  2.000E+04 -1.259E-01
   1   13   20     1    20    1.3413E+05 -1.0836E+03   1.3522E+05  0.000E+00  0.000E+00  0.000E+00  3.93661E+01  1.729E-01  2.000E+01  2.000E+04 -5.418E-02
   1   14   21     1    21    1.3522E+05  3.7434E+03   1.3147E+05  0.000E+00  0.000E+00  0.000E+00  3.88878E+01  1.719E-01  2.000E+01  2.000E+04  1.872E-01
   1   14   22     1    22    1.3147E+05  5.7323E+03   1.2574E+05  0.000E+00  0.000E+00  0.000E+00  3.84069E+01  1.682E-01  2.000E+01  2.000E+04  2.866E-01
   1    9   30     2     1    5.0000E+04  1.8010E+03   4.8199E+04  0.000E+00  0.000E+00  0.000E+00  4.02396E+01  1.146E-01  2.000E+01  2.000E+04  9.005E-02
   1    9   29     2     2    4.8199E+04  3.7488E+03   4.4450E+04  0.000E+00  0.000E+00  0.000E+00  3.99857E+01  1.107E-01  2.000E+01  2.000E+04  1.874E-01
   1    9   28     2     3    4.4450E+04  5.6486E+02   4.3885E+04  0.000E+00  0.000E+00  0.000E+00  3.97326E+01  1.076E-01  2.000E+01  2.000E+04  2.824E-02
   1    9   27     2     4    4.3885E+04 -2.0293E+03   4.5915E+04  0.000E+00  0.000E+00  0.000E+00  3.94836E+01  1.086E-01  2.000E+01  2.000E+04 -1.015E-01
   1   10   26     2     5    4.5915E+04 -8.4293E+02   4.6758E+04  0.000E+00  0.000E+00  0.000E+00  3.92357E+01  1.107E-01  2.000E+01  2.000E+04 -4.215E-02
   1   11   25     2     6    4.6758E+04 -1.1798E+03   4.7938E+04  0.000E+00  0.000E+00  0.000E+00  3.89871E+01  1.121E-01  2.000E+01  2.000E+04 -5.899E-02
   1   12   24     2     7    4.7938E+04 -1.6578E+03   4.9595E+04  0.000E+00  0.000E+00  0.000E+00  3.87391E+01  1.141E-01  2.000E+01  2.000E+04 -8.289E-02
   1   13   23     2     8    4.9595E+04 -3.5825E+02   4.9954E+04  0.000E+00  0.000E+00  0.000E+00  3.84906E+01  1.156E-01  2.000E+01  2.000E+04 -1.791E-02
   1   14   22     2     9    4.9954E+04  2.3779E+03   4.7576E+04  0.000E+00  0.000E+00  0.000E+00  3.82391E+01  1.141E-01  2.000E+01  2.000E+04  1.189E-01
   1   14   22     3     1    1.7332E+05 -7.9091E+03   1.8123E+05  0.000E+00  0.000E+00  0.000E+00  3.77248E+01  1.692E-01  2.000E+01  2.000E+04 -3.955E-01
   1   15   23     3     2    1.8123E+05 -4.6617E+01   1.8127E+05  0.000E+00  0.000E+00  0.000E+00  3.68382E+01  1.715E-01  2.000E+01  2.000E+04 -2.331E-03
   1   15   24     3     3    1.8127E+05 -2.7901E+02   1.8155E+05  0.000E+00  0.000E+00  0.000E+00  3.59494E+01  1.716E-01  2.000E+01  2.000E+04 -1.395E-02
   1   15   25     3     4    1.8155E+05 -2.8606E+02   1.8184E+05  0.000E+00  0.000E+00  0.000E+00  3.50606E+01  1.718E-01  2.000E+01  2.000E+04 -1.430E-02
   1   15   26     3     5    1.8184E+05 -2.2122E+02   1.8206E+05  0.000E+00  0.000E+00  0.000E+00  3.41719E+01  1.719E-01  2.000E+01  2.000E+04 -1.106E-02
   1   16   27     3     6    1.8206E+05  6.2546E+01   1.8200E+05  0.000E+00  0.000E+00  0.000E+00  3.32831E+01  1.719E-01  2.000E+01  2.000E+04  3.127E-03
   1   17   28     3     7    1.8200E+05  6.7887E+03   1.7521E+05  0.000E+00  0.000E+00  0.000E+00  3.23922E+01  1.700E-01  2.000E+01  2.000E+04  3.394E-01
   1   18   29     3     8    1.7521E+05  8.6961E+03   1.6651E+05  0.000E+00  0.000E+00  0.000E+00  3.14989E+01  1.655E-01  2.000E+01  2.000E+04  4.348E-01
   1   18   30     3     9    1.6651E+05  2.5836E+03   1.6393E+05  0.000E+00  0.000E+00  0.000E+00  3.06067E+01  1.622E-01  2.000E+01  2.000E+04  1.292E-01



1
              HEAD IN LAYER   1 AT END OF TIME STEP   1 IN STRESS PERIOD   10
  ---------------------------------------------------------------------------

          1      2      3      4      5      6      7      8      9     10
         11     12     13     14     15     16     17     18     19     20
         21     22     23     24     25     26     27     28     29     30
 .........................................................................
   1  ****** ****** ****** ****** ****** ****** ****** ****** ****** ******
      ****** ****** ****** ****** ****** ****** ****** ****** ****** ******
      ****** ****** ****** ****** ****** ****** ****** ****** ****** ******
   2  ****** ****** ****** ****** ****** ****** ****** ****** ****** ******
      ****** ****** ****** ****** ****** ****** ****** ****** ****** ******
      ****** ****** ****** ****** ****** ****** ****** ****** ****** ******
   3  ****** ****** ****** ****** ****** ****** ****** ****** ****** ******
      ****** ****** ****** ****** ****** ****** ****** ****** ****** ******
      ****** ****** ****** ****** ****** ****** ****** ****** ****** ******
   4  ****** ****** ****** ****** ****** ****** ****** ****** ****** ******
      ****** ****** ****** ****** ****** ****** ****** ****** ****** ******
      ****** ****** ****** ****** ****** ****** ****** ****** ****** ******
   5  ****** ****** ****** ****** ****** ****** ****** ****** ****** ******
      ****** ****** ****** ****** ****** ****** ****** ****** ****** ******
      ****** ****** ****** ****** ****** ****** ****** ****** ****** ******
   6  ****** ****** ****** ****** ****** ****** ****** ****** ****** ******
      ****** ****** ****** ****** ****** ****** ****** ****** ****** ******
      ****** ****** ****** ****** ****** ****** ****** ****** ****** ******
   7  ****** ****** ****** ****** ****** ****** ****** ****** ****** ******
      ****** ****** ****** ****** ****** ****** ****** ****** ****** ******
      ****** ****** ****** ****** ****** ****** ****** ****** ****** ******
   8  ****** ****** ****** ****** ****** ****** ****** ****** ****** ******
      ****** ****** ****** ****** ****** ****** ****** ****** ****** ******
      ****** ****** ****** ****** ****** ****** ****** ****** ****** ******
   9  ****** ****** ****** ****** ****** ****** ****** ****** ****** ******
      ****** ****** ****** ****** ****** ****** ****** ****** ****** ******
      ****** ****** ****** ****** ****** ****** ****** ****** ****** ******
  10  ****** ****** ****** ****** ****** ****** ****** ****** ****** ******
      ****** ****** ****** ****** ****** ****** ****** ****** ****** ******
      ****** ****** ****** ****** ****** ****** ****** ****** ****** ******
  11  ****** ****** ****** ****** ****** ****** ****** ****** ****** ******
      ****** ****** ****** ****** ****** ****** ****** ****** ****** ******
      ****** ****** ****** ****** ****** ****** ****** ****** ****** ******
  12  ****** ****** ****** ****** ****** ****** ****** ****** ****** ******
      ****** ****** ****** ****** ****** ****** ****** ****** ****** ******
      ****** ****** ****** ****** ****** ****** ****** ****** ****** ******
  13  ****** ****** ****** ****** ****** ****** ****** ****** ****** ******
      ****** ****** ****** ****** ****** ****** ****** ****** ****** ******
      ****** ****** ****** ****** ****** ****** ****** ****** ****** ******
  14  ****** ****** ****** ****** ****** ****** ****** ****** ****** ******
      ****** ****** ****** ****** ****** ****** ****** ****** ****** ******
      ****** ****** ****** ****** ****** ****** ****** ****** ****** ******
  15  ****** ****** ****** ****** ****** ****** ****** ****** ****** ******
      ****** ****** ****** ****** ****** ****** ****** ****** ****** ******
      ****** ****** ****** ****** ****** ****** ****** ****** ****** ******
  16  ****** ****** ****** ****** ****** ****** ****** ****** ****** ******
      ****** ****** ****** ****** ****** ****** ****** ****** ****** ******
      ****** ****** ****** ****** ****** ****** ****** ****** ****** ******
  17  ****** ****** ****** ****** ****** ****** ****** ****** ****** ******
      ****** ****** ****** ****** ****** ****** ****** ****** ****** ******
      ****** ****** ****** ****** ****** ****** ****** ****** ****** ******
  18  ****** ****** ****** ****** ****** ****** ****** ****** ****** ******
      ****** ****** ****** ****** ****** ****** ****** ****** ****** ******
      ****** ****** ****** ****** ****** ****** ****** ****** ****** ******
  19  ****** ****** ****** ****** ****** ****** ****** ****** ****** ******
      ****** ****** ****** ****** ****** ****** ****** ****** ****** ******
      ****** ****** ****** ****** ****** ****** ****** ****** ****** ******
  20  ****** ****** ****** ****** ****** ****** ****** ****** ****** ******
      ****** ****** ****** ****** ****** ****** ****** ****** ****** ******
      ****** ****** ****** ****** ****** ****** ****** ****** ****** ******
  21  ****** ****** ****** ****** ****** ****** ****** ****** ****** ******
      ****** ****** ****** ****** ****** ****** ****** ****** ****** ******
      ****** ****** ****** ****** ****** ****** ****** ****** ****** ******
  22  ****** ****** ****** ****** ****** ****** ****** ****** ****** ******
      ****** ****** ****** ****** ****** ****** ****** ****** ****** ******
      ****** ****** ****** ****** ****** ****** ****** ****** ****** ******
  23  ****** ****** ****** ****** ****** ****** ****** ****** ****** ******
      ****** ****** ****** ****** ****** ****** ****** ****** ****** ******
      ****** ****** ****** ****** ****** ****** ****** ****** ****** ******
  24  ****** ****** ****** ****** ****** ****** ****** ****** ****** ******
      ****** ****** ****** ****** ****** ****** ****** ****** ****** ******
      ****** ****** ****** ****** ****** ****** ****** ****** ****** ******
  25  ****** ****** ****** ****** ****** ****** ****** ****** ****** ******
      ****** ****** ****** ****** ****** ****** ****** ****** ****** ******
      ****** ****** ****** ****** ****** ****** ****** ****** ****** ******

 HEAD WILL BE SAVED ON UNIT   51 AT END OF TIME STEP    1, STRESS PERIOD   10
1
  VOLUMETRIC BUDGET FOR ENTIRE MODEL AT END OF TIME STEP    1, STRESS PERIOD  10
  ------------------------------------------------------------------------------

     CUMULATIVE VOLUMES      L**3       RATES FOR THIS TIME STEP      L**3/T
     ------------------                 ------------------------

           IN:                                      IN:
           ---                                      ---
             STORAGE =    32843192.3829               STORAGE =           0.0000
       CONSTANT HEAD =    24100847.6253         CONSTANT HEAD =       29715.5131
               WELLS =           0.0000                 WELLS =           0.0000
            RECHARGE =    23901600.0000              RECHARGE =       55200.0000
      STREAM LEAKAGE =    30493868.9760        STREAM LEAKAGE =       36099.0261

            TOTAL IN =   111339508.9843              TOTAL IN =      121014.5392

          OUT:                                     OUT:
          ----                                     ----
             STORAGE =     2427145.7925               STORAGE =       15822.0849
       CONSTANT HEAD =           0.0000         CONSTANT HEAD =           0.0000
               WELLS =    50365984.1270                 WELLS =       55165.3714
            RECHARGE =           0.0000              RECHARGE =           0.0000
      STREAM LEAKAGE =    58546380.5947        STREAM LEAKAGE =       50027.0799

           TOTAL OUT =   111339510.5142             TOTAL OUT =      121014.5362

            IN - OUT =          -1.5299              IN - OUT =       2.9777E-03

 PERCENT DISCREPANCY =          -0.00     PERCENT DISCREPANCY =           0.00






         TIME SUMMARY AT END OF TIME STEP    1 IN STRESS PERIOD   10
                    SECONDS     MINUTES      HOURS       DAYS        YEARS
                    -----------------------------------------------------------
   TIME STEP LENGTH 7.86240E+06 1.31040E+05  2184.0      91.000     0.24914    
 STRESS PERIOD TIME 7.86240E+06 1.31040E+05  2184.0      91.000     0.24914    
         TOTAL TIME 7.88832E+07 1.31472E+06  21912.      913.00      2.4997    
1
1
                            STRESS PERIOD NO.   11, LENGTH =   91.00000    
                            -----------------------------------------------

                              NUMBER OF TIME STEPS =     1

                               MULTIPLIER FOR DELT =     1.500

                            INITIAL TIME STEP SIZE =   91.00000    

 WELL NO.  LAYER   ROW   COL   STRESS RATE         
 --------------------------------------------------
      1      1     10     29     -0.1299E+05
      2      1     15     21     -0.1317E+05
      3      1     19     29     -0.1184E+05
      4      1     17     29     -0.1716E+05

      4 WELLS

                 RECHARGE =   0.00000    

 REUSING STREAM SEGMENT DATA FROM LAST STRESS PERIOD
 
 SOLVING FOR HEAD 


     7 CALLS TO PCG ROUTINE FOR TIME STEP   1 IN STRESS PERIOD   11
    26 TOTAL ITERATIONS

 OUTPUT CONTROL FOR STRESS PERIOD   11   TIME STEP    1
    SAVE BUDGET
    SAVE HEAD FOR ALL LAYERS
    PRINT HEAD FOR ALL LAYERS
 UBDSV2 SAVING "STREAMFLOW OUT  " ON UNIT  50 AT TIME STEP  1, STRESS PERIOD  11



 STREAM LISTING     PERIOD     11   STEP        1

 LAYER ROW COL. STREAM  RCH.  FLOW INTO     FLOW TO   FLOW OUT OF   OVRLND.     DIRECT     STREAM       STREAM     STREAM     STREAM   STREAMBED  STREAMBED
                SEG.NO.  NO.  STRM. RCH.    AQUIFER    STRM. RCH.    RUNOFF     PRECIP       ET          HEAD       DEPTH      WIDTH   CONDCTNC.   GRADIENT

   1   13    1     1     1    1.0000E+05 -1.5845E+03   1.0158E+05  0.000E+00  0.000E+00  0.000E+00  4.84067E+01  1.453E-01  2.000E+01  2.000E+04 -7.923E-02
   1   13    2     1     2    1.0158E+05 -2.5181E+03   1.0410E+05  0.000E+00  0.000E+00  0.000E+00  4.79312E+01  1.471E-01  2.000E+01  2.000E+04 -1.259E-01
   1   14    3     1     3    1.0410E+05 -3.6759E+02   1.0447E+05  0.000E+00  0.000E+00  0.000E+00  4.74552E+01  1.483E-01  2.000E+01  2.000E+04 -1.838E-02
   1   15    4     1     4    1.0447E+05 -3.3817E+02   1.0481E+05  0.000E+00  0.000E+00  0.000E+00  4.69782E+01  1.486E-01  2.000E+01  2.000E+04 -1.691E-02
   1   16    5     1     5    1.0481E+05 -1.3835E+03   1.0619E+05  0.000E+00  0.000E+00  0.000E+00  4.65016E+01  1.494E-01  2.000E+01  2.000E+04 -6.918E-02
   1   16    6     1     6    1.0619E+05 -8.7772E+02   1.0707E+05  0.000E+00  0.000E+00  0.000E+00  4.60253E+01  1.503E-01  2.000E+01  2.000E+04 -4.389E-02
   1   16    7     1     7    1.0707E+05 -8.6281E+02   1.0793E+05  0.000E+00  0.000E+00  0.000E+00  4.55488E+01  1.511E-01  2.000E+01  2.000E+04 -4.314E-02
   1   16    8     1     8    1.0793E+05 -8.5730E+02   1.0879E+05  0.000E+00  0.000E+00  0.000E+00  4.50722E+01  1.518E-01  2.000E+01  2.000E+04 -4.287E-02
   1   16    9     1     9    1.0879E+05 -8.4546E+02   1.0964E+05  0.000E+00  0.000E+00  0.000E+00  4.45957E+01  1.525E-01  2.000E+01  2.000E+04 -4.227E-02
   1   16   10     1    10    1.0964E+05 -8.2571E+02   1.1046E+05  0.000E+00  0.000E+00  0.000E+00  4.41191E+01  1.532E-01  2.000E+01  2.000E+04 -4.129E-02
   1   16   11     1    11    1.1046E+05 -8.1067E+02   1.1127E+05  0.000E+00  0.000E+00  0.000E+00  4.36425E+01  1.539E-01  2.000E+01  2.000E+04 -4.053E-02
   1   16   12     1    12    1.1127E+05 -1.3155E+03   1.1259E+05  0.000E+00  0.000E+00  0.000E+00  4.31661E+01  1.548E-01  2.000E+01  2.000E+04 -6.578E-02
   1   15   13     1    13    1.1259E+05 -1.2026E+03   1.1379E+05  0.000E+00  0.000E+00  0.000E+00  4.26899E+01  1.558E-01  2.000E+01  2.000E+04 -6.013E-02
   1   14   14     1    14    1.1379E+05 -1.4441E+03   1.1523E+05  0.000E+00  0.000E+00  0.000E+00  4.22137E+01  1.569E-01  2.000E+01  2.000E+04 -7.221E-02
   1   13   15     1    15    1.1523E+05 -1.7615E+03   1.1700E+05  0.000E+00  0.000E+00  0.000E+00  4.17378E+01  1.582E-01  2.000E+01  2.000E+04 -8.807E-02
   1   12   16     1    16    1.1700E+05 -2.5562E+03   1.1955E+05  0.000E+00  0.000E+00  0.000E+00  4.12622E+01  1.600E-01  2.000E+01  2.000E+04 -1.278E-01
   1   12   17     1    17    1.1955E+05 -1.5358E+03   1.2109E+05  0.000E+00  0.000E+00  0.000E+00  4.07866E+01  1.616E-01  2.000E+01  2.000E+04 -7.679E-02
   1   12   18     1    18    1.2109E+05 -1.3945E+03   1.2248E+05  0.000E+00  0.000E+00  0.000E+00  4.03105E+01  1.628E-01  2.000E+01  2.000E+04 -6.972E-02
   1   12   19     1    19    1.2248E+05 -1.9057E+03   1.2439E+05  0.000E+00  0.000E+00  0.000E+00  3.98346E+01  1.641E-01  2.000E+01  2.000E+04 -9.528E-02
   1   13   20     1    20    1.2439E+05 -4.7160E+02   1.2486E+05  0.000E+00  0.000E+00  0.000E+00  3.93583E+01  1.651E-01  2.000E+01  2.000E+04 -2.358E-02
   1   14   21     1    21    1.2486E+05  4.3404E+03   1.2052E+05  0.000E+00  0.000E+00  0.000E+00  3.88794E+01  1.635E-01  2.000E+01  2.000E+04  2.170E-01
   1   14   22     1    22    1.2052E+05  5.8832E+03   1.1464E+05  0.000E+00  0.000E+00  0.000E+00  3.83980E+01  1.594E-01  2.000E+01  2.000E+04  2.942E-01
   1    9   30     2     1    5.0000E+04  2.2887E+03   4.7711E+04  0.000E+00  0.000E+00  0.000E+00  4.02393E+01  1.143E-01  2.000E+01  2.000E+04  1.144E-01
   1    9   29     2     2    4.7711E+04  4.2334E+03   4.3478E+04  0.000E+00  0.000E+00  0.000E+00  3.99846E+01  1.096E-01  2.000E+01  2.000E+04  2.117E-01
   1    9   28     2     3    4.3478E+04  1.0472E+03   4.2431E+04  0.000E+00  0.000E+00  0.000E+00  3.97308E+01  1.058E-01  2.000E+01  2.000E+04  5.236E-02
   1    9   27     2     4    4.2431E+04 -1.3906E+03   4.3821E+04  0.000E+00  0.000E+00  0.000E+00  3.94810E+01  1.060E-01  2.000E+01  2.000E+04 -6.953E-02
   1   10   26     2     5    4.3821E+04 -1.8965E+02   4.4011E+04  0.000E+00  0.000E+00  0.000E+00  3.92322E+01  1.072E-01  2.000E+01  2.000E+04 -9.482E-03
   1   11   25     2     6    4.4011E+04 -5.5037E+02   4.4561E+04  0.000E+00  0.000E+00  0.000E+00  3.89827E+01  1.077E-01  2.000E+01  2.000E+04 -2.752E-02
   1   12   24     2     7    4.4561E+04 -1.0853E+03   4.5647E+04  0.000E+00  0.000E+00  0.000E+00  3.87339E+01  1.089E-01  2.000E+01  2.000E+04 -5.427E-02
   1   13   23     2     8    4.5647E+04 -1.7257E+02   4.5819E+04  0.000E+00  0.000E+00  0.000E+00  3.84848E+01  1.098E-01  2.000E+01  2.000E+04 -8.629E-03
   1   14   22     2     9    4.5819E+04  2.5839E+03   4.3235E+04  0.000E+00  0.000E+00  0.000E+00  3.82331E+01  1.081E-01  2.000E+01  2.000E+04  1.292E-01
   1   14   22     3     1    1.5787E+05 -7.7630E+03   1.6563E+05  0.000E+00  0.000E+00  0.000E+00  3.77157E+01  1.602E-01  2.000E+01  2.000E+04 -3.881E-01
   1   15   23     3     2    1.6563E+05  1.4544E+02   1.6549E+05  0.000E+00  0.000E+00  0.000E+00  3.68291E+01  1.624E-01  2.000E+01  2.000E+04  7.272E-03
   1   15   24     3     3    1.6549E+05 -1.1387E+02   1.6560E+05  0.000E+00  0.000E+00  0.000E+00  3.59402E+01  1.624E-01  2.000E+01  2.000E+04 -5.694E-03
   1   15   25     3     4    1.6560E+05 -1.1709E+02   1.6572E+05  0.000E+00  0.000E+00  0.000E+00  3.50514E+01  1.625E-01  2.000E+01  2.000E+04 -5.854E-03
   1   15   26     3     5    1.6572E+05 -2.5531E+01   1.6574E+05  0.000E+00  0.000E+00  0.000E+00  3.41625E+01  1.625E-01  2.000E+01  2.000E+04 -1.277E-03
   1   16   27     3     6    1.6574E+05  2.8558E+02   1.6546E+05  0.000E+00  0.000E+00  0.000E+00  3.32736E+01  1.625E-01  2.000E+01  2.000E+04  1.428E-02
   1   17   28     3     7    1.6546E+05  7.3985E+03   1.5806E+05  0.000E+00  0.000E+00  0.000E+00  3.23824E+01  1.602E-01  2.000E+01  2.000E+04  3.699E-01
   1   18   29     3     8    1.5806E+05  9.3180E+03   1.4874E+05  0.000E+00  0.000E+00  0.000E+00  3.14885E+01  1.552E-01  2.000E+01  2.000E+04  4.659E-01
   1   18   30     3     9    1.4874E+05  3.0725E+03   1.4567E+05  0.000E+00  0.000E+00  0.000E+00  3.05958E+01  1.514E-01  2.000E+01  2.000E+04  1.536E-01



1
              HEAD IN LAYER   1 AT END OF TIME STEP   1 IN STRESS PERIOD   11
  ---------------------------------------------------------------------------

          1      2      3      4      5      6      7      8      9     10
         11     12     13     14     15     16     17     18     19     20
         21     22     23     24     25     26     27     28     29     30
 .........................................................................
   1  ****** ****** ****** ****** ****** ****** ****** ****** ****** ******
      ****** ****** ****** ****** ****** ****** ****** ****** ****** ******
      ****** ****** ****** ****** ****** ****** ****** ****** ****** ******
   2  ****** ****** ****** ****** ****** ****** ****** ****** ****** ******
      ****** ****** ****** ****** ****** ****** ****** ****** ****** ******
      ****** ****** ****** ****** ****** ****** ****** ****** ****** ******
   3  ****** ****** ****** ****** ****** ****** ****** ****** ****** ******
      ****** ****** ****** ****** ****** ****** ****** ****** ****** ******
      ****** ****** ****** ****** ****** ****** ****** ****** ****** ******
   4  ****** ****** ****** ****** ****** ****** ****** ****** ****** ******
      ****** ****** ****** ****** ****** ****** ****** ****** ****** ******
      ****** ****** ****** ****** ****** ****** ****** ****** ****** ******
   5  ****** ****** ****** ****** ****** ****** ****** ****** ****** ******
      ****** ****** ****** ****** ****** ****** ****** ****** ****** ******
      ****** ****** ****** ****** ****** ****** ****** ****** ****** ******
   6  ****** ****** ****** ****** ****** ****** ****** ****** ****** ******
      ****** ****** ****** ****** ****** ****** ****** ****** ****** ******
      ****** ****** ****** ****** ****** ****** ****** ****** ****** ******
   7  ****** ****** ****** ****** ****** ****** ****** ****** ****** ******
      ****** ****** ****** ****** ****** ****** ****** ****** ****** ******
      ****** ****** ****** ****** ****** ****** ****** ****** ****** ******
   8  ****** ****** ****** ****** ****** ****** ****** ****** ****** ******
      ****** ****** ****** ****** ****** ****** ****** ****** ****** ******
      ****** ****** ****** ****** ****** ****** ****** ****** ****** ******
   9  ****** ****** ****** ****** ****** ****** ****** ****** ****** ******
      ****** ****** ****** ****** ****** ****** ****** ****** ****** ******
      ****** ****** ****** ****** ****** ****** ****** ****** ****** ******
  10  ****** ****** ****** ****** ****** ****** ****** ****** ****** ******
      ****** ****** ****** ****** ****** ****** ****** ****** ****** ******
      ****** ****** ****** ****** ****** ****** ****** ****** ****** ******
  11  ****** ****** ****** ****** ****** ****** ****** ****** ****** ******
      ****** ****** ****** ****** ****** ****** ****** ****** ****** ******
      ****** ****** ****** ****** ****** ****** ****** ****** ****** ******
  12  ****** ****** ****** ****** ****** ****** ****** ****** ****** ******
      ****** ****** ****** ****** ****** ****** ****** ****** ****** ******
      ****** ****** ****** ****** ****** ****** ****** ****** ****** ******
  13  ****** ****** ****** ****** ****** ****** ****** ****** ****** ******
      ****** ****** ****** ****** ****** ****** ****** ****** ****** ******
      ****** ****** ****** ****** ****** ****** ****** ****** ****** ******
  14  ****** ****** ****** ****** ****** ****** ****** ****** ****** ******
      ****** ****** ****** ****** ****** ****** ****** ****** ****** ******
      ****** ****** ****** ****** ****** ****** ****** ****** ****** ******
  15  ****** ****** ****** ****** ****** ****** ****** ****** ****** ******
      ****** ****** ****** ****** ****** ****** ****** ****** ****** ******
      ****** ****** ****** ****** ****** ****** ****** ****** ****** ******
  16  ****** ****** ****** ****** ****** ****** ****** ****** ****** ******
      ****** ****** ****** ****** ****** ****** ****** ****** ****** ******
      ****** ****** ****** ****** ****** ****** ****** ****** ****** ******
  17  ****** ****** ****** ****** ****** ****** ****** ****** ****** ******
      ****** ****** ****** ****** ****** ****** ****** ****** ****** ******
      ****** ****** ****** ****** ****** ****** ****** ****** ****** ******
  18  ****** ****** ****** ****** ****** ****** ****** ****** ****** ******
      ****** ****** ****** ****** ****** ****** ****** ****** ****** ******
      ****** ****** ****** ****** ****** ****** ****** ****** ****** ******
  19  ****** ****** ****** ****** ****** ****** ****** ****** ****** ******
      ****** ****** ****** ****** ****** ****** ****** ****** ****** ******
      ****** ****** ****** ****** ****** ****** ****** ****** ****** ******
  20  ****** ****** ****** ****** ****** ****** ****** ****** ****** ******
      ****** ****** ****** ****** ****** ****** ****** ****** ****** ******
      ****** ****** ****** ****** ****** ****** ****** ****** ****** ******
  21  ****** ****** ****** ****** ****** ****** ****** ****** ****** ******
      ****** ****** ****** ****** ****** ****** ****** ****** ****** ******
      ****** ****** ****** ****** ****** ****** ****** ****** ****** ******
  22  ****** ****** ****** ****** ****** ****** ****** ****** ****** ******
      ****** ****** ****** ****** ****** ****** ****** ****** ****** ******
      ****** ****** ****** ****** ****** ****** ****** ****** ****** ******
  23  ****** ****** ****** ****** ****** ****** ****** ****** ****** ******
      ****** ****** ****** ****** ****** ****** ****** ****** ****** ******
      ****** ****** ****** ****** ****** ****** ****** ****** ****** ******
  24  ****** ****** ****** ****** ****** ****** ****** ****** ****** ******
      ****** ****** ****** ****** ****** ****** ****** ****** ****** ******
      ****** ****** ****** ****** ****** ****** ****** ****** ****** ******
  25  ****** ****** ****** ****** ****** ****** ****** ****** ****** ******
      ****** ****** ****** ****** ****** ****** ****** ****** ****** ******
      ****** ****** ****** ****** ****** ****** ****** ****** ****** ******

 HEAD WILL BE SAVED ON UNIT   51 AT END OF TIME STEP    1, STRESS PERIOD   11
1
  VOLUMETRIC BUDGET FOR ENTIRE MODEL AT END OF TIME STEP    1, STRESS PERIOD  11
  ------------------------------------------------------------------------------

     CUMULATIVE VOLUMES      L**3       RATES FOR THIS TIME STEP      L**3/T
     ------------------                 ------------------------

           IN:                                      IN:
           ---                                      ---
             STORAGE =    34467081.6911               STORAGE =       17844.9375
       CONSTANT HEAD =    27102996.4833         CONSTANT HEAD =       32990.6468
               WELLS =           0.0000                 WELLS =           0.0000
            RECHARGE =    23901600.0000              RECHARGE =           0.0000
      STREAM LEAKAGE =    34188183.4628        STREAM LEAKAGE =       40596.8625

            TOTAL IN =   119659861.6372              TOTAL IN =       91432.4467

          OUT:                                     OUT:
          ----                                     ----
             STORAGE =     2427145.7925               STORAGE =           0.0000
       CONSTANT HEAD =           0.0000         CONSTANT HEAD =           0.0000
               WELLS =    55386032.9283                 WELLS =       55165.3714
            RECHARGE =           0.0000              RECHARGE =           0.0000
      STREAM LEAKAGE =    61846684.8702        STREAM LEAKAGE =       36267.0800

           TOTAL OUT =   119659863.5910             TOTAL OUT =       91432.4514

            IN - OUT =          -1.9538              IN - OUT =      -4.6584E-03

 PERCENT DISCREPANCY =          -0.00     PERCENT DISCREPANCY =          -0.00






         TIME SUMMARY AT END OF TIME STEP    1 IN STRESS PERIOD   11
                    SECONDS     MINUTES      HOURS       DAYS        YEARS
                    -----------------------------------------------------------
   TIME STEP LENGTH 7.86240E+06 1.31040E+05  2184.0      91.000     0.24914    
 STRESS PERIOD TIME 7.86240E+06 1.31040E+05  2184.0      91.000     0.24914    
         TOTAL TIME 8.67456E+07 1.44576E+06  24096.      1004.0      2.7488    
1
1
                            STRESS PERIOD NO.   12, LENGTH =   91.00000    
                            -----------------------------------------------

                              NUMBER OF TIME STEPS =     1

                               MULTIPLIER FOR DELT =     1.500

                            INITIAL TIME STEP SIZE =   91.00000    

 WELL NO.  LAYER   ROW   COL   STRESS RATE         
 --------------------------------------------------
      1      1     10     29     -0.1299E+05
      2      1     15     21     -0.1317E+05
      3      1     19     29     -0.1184E+05
      4      1     17     29     -0.1716E+05

      4 WELLS

                 RECHARGE =  1.000000E-03

 REUSING STREAM SEGMENT DATA FROM LAST STRESS PERIOD
 
 SOLVING FOR HEAD 


     6 CALLS TO PCG ROUTINE FOR TIME STEP   1 IN STRESS PERIOD   12
    23 TOTAL ITERATIONS

 OUTPUT CONTROL FOR STRESS PERIOD   12   TIME STEP    1
    SAVE BUDGET
    SAVE HEAD FOR ALL LAYERS
    PRINT HEAD FOR ALL LAYERS
 UBDSV2 SAVING "STREAMFLOW OUT  " ON UNIT  50 AT TIME STEP  1, STRESS PERIOD  12



 STREAM LISTING     PERIOD     12   STEP        1

 LAYER ROW COL. STREAM  RCH.  FLOW INTO     FLOW TO   FLOW OUT OF   OVRLND.     DIRECT     STREAM       STREAM     STREAM     STREAM   STREAMBED  STREAMBED
                SEG.NO.  NO.  STRM. RCH.    AQUIFER    STRM. RCH.    RUNOFF     PRECIP       ET          HEAD       DEPTH      WIDTH   CONDCTNC.   GRADIENT

   1   13    1     1     1    1.0000E+05 -1.7308E+03   1.0173E+05  0.000E+00  0.000E+00  0.000E+00  4.84068E+01  1.454E-01  2.000E+01  2.000E+04 -8.654E-02
   1   13    2     1     2    1.0173E+05 -2.6756E+03   1.0441E+05  0.000E+00  0.000E+00  0.000E+00  4.79314E+01  1.473E-01  2.000E+01  2.000E+04 -1.338E-01
   1   14    3     1     3    1.0441E+05 -4.4652E+02   1.0485E+05  0.000E+00  0.000E+00  0.000E+00  4.74555E+01  1.486E-01  2.000E+01  2.000E+04 -2.233E-02
   1   15    4     1     4    1.0485E+05 -4.2084E+02   1.0527E+05  0.000E+00  0.000E+00  0.000E+00  4.69785E+01  1.490E-01  2.000E+01  2.000E+04 -2.104E-02
   1   16    5     1     5    1.0527E+05 -1.5936E+03   1.0687E+05  0.000E+00  0.000E+00  0.000E+00  4.65021E+01  1.499E-01  2.000E+01  2.000E+04 -7.968E-02
   1   16    6     1     6    1.0687E+05 -1.0084E+03   1.0788E+05  0.000E+00  0.000E+00  0.000E+00  4.60260E+01  1.510E-01  2.000E+01  2.000E+04 -5.042E-02
   1   16    7     1     7    1.0788E+05 -9.8849E+02   1.0886E+05  0.000E+00  0.000E+00  0.000E+00  4.55495E+01  1.518E-01  2.000E+01  2.000E+04 -4.942E-02
   1   16    8     1     8    1.0886E+05 -9.8193E+02   1.0985E+05  0.000E+00  0.000E+00  0.000E+00  4.50731E+01  1.526E-01  2.000E+01  2.000E+04 -4.910E-02
   1   16    9     1     9    1.0985E+05 -9.7048E+02   1.1082E+05  0.000E+00  0.000E+00  0.000E+00  4.45966E+01  1.534E-01  2.000E+01  2.000E+04 -4.852E-02
   1   16   10     1    10    1.1082E+05 -9.5198E+02   1.1177E+05  0.000E+00  0.000E+00  0.000E+00  4.41202E+01  1.542E-01  2.000E+01  2.000E+04 -4.760E-02
   1   16   11     1    11    1.1177E+05 -9.3907E+02   1.1271E+05  0.000E+00  0.000E+00  0.000E+00  4.36437E+01  1.550E-01  2.000E+01  2.000E+04 -4.695E-02
   1   16   12     1    12    1.1271E+05 -1.5175E+03   1.1423E+05  0.000E+00  0.000E+00  0.000E+00  4.31674E+01  1.560E-01  2.000E+01  2.000E+04 -7.587E-02
   1   15   13     1    13    1.1423E+05 -1.4203E+03   1.1565E+05  0.000E+00  0.000E+00  0.000E+00  4.26913E+01  1.573E-01  2.000E+01  2.000E+04 -7.101E-02
   1   14   14     1    14    1.1565E+05 -1.6628E+03   1.1731E+05  0.000E+00  0.000E+00  0.000E+00  4.22153E+01  1.585E-01  2.000E+01  2.000E+04 -8.314E-02
   1   13   15     1    15    1.1731E+05 -1.9731E+03   1.1928E+05  0.000E+00  0.000E+00  0.000E+00  4.17395E+01  1.600E-01  2.000E+01  2.000E+04 -9.866E-02
   1   12   16     1    16    1.1928E+05 -2.7419E+03   1.2202E+05  0.000E+00  0.000E+00  0.000E+00  4.12642E+01  1.619E-01  2.000E+01  2.000E+04 -1.371E-01
   1   12   17     1    17    1.2202E+05 -1.6903E+03   1.2371E+05  0.000E+00  0.000E+00  0.000E+00  4.07887E+01  1.637E-01  2.000E+01  2.000E+04 -8.452E-02
   1   12   18     1    18    1.2371E+05 -1.5511E+03   1.2526E+05  0.000E+00  0.000E+00  0.000E+00  4.03127E+01  1.650E-01  2.000E+01  2.000E+04 -7.755E-02
   1   12   19     1    19    1.2526E+05 -2.0993E+03   1.2736E+05  0.000E+00  0.000E+00  0.000E+00  3.98369E+01  1.664E-01  2.000E+01  2.000E+04 -1.050E-01
   1   13   20     1    20    1.2736E+05 -6.8247E+02   1.2805E+05  0.000E+00  0.000E+00  0.000E+00  3.93607E+01  1.675E-01  2.000E+01  2.000E+04 -3.412E-02
   1   14   21     1    21    1.2805E+05  4.1462E+03   1.2390E+05  0.000E+00  0.000E+00  0.000E+00  3.88821E+01  1.661E-01  2.000E+01  2.000E+04  2.073E-01
   1   14   22     1    22    1.2390E+05  5.8287E+03   1.1807E+05  0.000E+00  0.000E+00  0.000E+00  3.84008E+01  1.622E-01  2.000E+01  2.000E+04  2.914E-01
   1    9   30     2     1    5.0000E+04  2.1121E+03   4.7888E+04  0.000E+00  0.000E+00  0.000E+00  4.02394E+01  1.144E-01  2.000E+01  2.000E+04  1.056E-01
   1    9   29     2     2    4.7888E+04  4.0588E+03   4.3829E+04  0.000E+00  0.000E+00  0.000E+00  3.99850E+01  1.100E-01  2.000E+01  2.000E+04  2.029E-01
   1    9   28     2     3    4.3829E+04  8.7607E+02   4.2953E+04  0.000E+00  0.000E+00  0.000E+00  3.97314E+01  1.064E-01  2.000E+01  2.000E+04  4.380E-02
   1    9   27     2     4    4.2953E+04 -1.6003E+03   4.4553E+04  0.000E+00  0.000E+00  0.000E+00  3.94819E+01  1.069E-01  2.000E+01  2.000E+04 -8.002E-02
   1   10   26     2     5    4.4553E+04 -4.1996E+02   4.4973E+04  0.000E+00  0.000E+00  0.000E+00  3.92334E+01  1.084E-01  2.000E+01  2.000E+04 -2.100E-02
   1   11   25     2     6    4.4973E+04 -7.7674E+02   4.5750E+04  0.000E+00  0.000E+00  0.000E+00  3.89843E+01  1.093E-01  2.000E+01  2.000E+04 -3.884E-02
   1   12   24     2     7    4.5750E+04 -1.2920E+03   4.7042E+04  0.000E+00  0.000E+00  0.000E+00  3.87358E+01  1.108E-01  2.000E+01  2.000E+04 -6.460E-02
   1   13   23     2     8    4.7042E+04 -2.5026E+02   4.7292E+04  0.000E+00  0.000E+00  0.000E+00  3.84869E+01  1.119E-01  2.000E+01  2.000E+04 -1.251E-02
   1   14   22     2     9    4.7292E+04  2.5178E+03   4.4775E+04  0.000E+00  0.000E+00  0.000E+00  3.82353E+01  1.103E-01  2.000E+01  2.000E+04  1.259E-01
   1   14   22     3     1    1.6285E+05 -7.8136E+03   1.7066E+05  0.000E+00  0.000E+00  0.000E+00  3.77187E+01  1.631E-01  2.000E+01  2.000E+04 -3.907E-01
   1   15   23     3     2    1.7066E+05  7.3426E+01   1.7059E+05  0.000E+00  0.000E+00  0.000E+00  3.68321E+01  1.654E-01  2.000E+01  2.000E+04  3.671E-03
   1   15   24     3     3    1.7059E+05 -1.7894E+02   1.7077E+05  0.000E+00  0.000E+00  0.000E+00  3.59432E+01  1.654E-01  2.000E+01  2.000E+04 -8.947E-03
   1   15   25     3     4    1.7077E+05 -1.8343E+02   1.7095E+05  0.000E+00  0.000E+00  0.000E+00  3.50544E+01  1.655E-01  2.000E+01  2.000E+04 -9.172E-03
   1   15   26     3     5    1.7095E+05 -1.0300E+02   1.7105E+05  0.000E+00  0.000E+00  0.000E+00  3.41656E+01  1.656E-01  2.000E+01  2.000E+04 -5.150E-03
   1   16   27     3     6    1.7105E+05  1.9881E+02   1.7085E+05  0.000E+00  0.000E+00  0.000E+00  3.32767E+01  1.656E-01  2.000E+01  2.000E+04  9.940E-03
   1   17   28     3     7    1.7085E+05  7.1778E+03   1.6367E+05  0.000E+00  0.000E+00  0.000E+00  3.23857E+01  1.634E-01  2.000E+01  2.000E+04  3.589E-01
   1   18   29     3     8    1.6367E+05  9.1175E+03   1.5456E+05  0.000E+00  0.000E+00  0.000E+00  3.14919E+01  1.586E-01  2.000E+01  2.000E+04  4.559E-01
   1   18   30     3     9    1.5456E+05  2.9045E+03   1.5165E+05  0.000E+00  0.000E+00  0.000E+00  3.05994E+01  1.550E-01  2.000E+01  2.000E+04  1.452E-01



1
              HEAD IN LAYER   1 AT END OF TIME STEP   1 IN STRESS PERIOD   12
  ---------------------------------------------------------------------------

          1      2      3      4      5      6      7      8      9     10
         11     12     13     14     15     16     17     18     19     20
         21     22     23     24     25     26     27     28     29     30
 .........................................................................
   1  ****** ****** ****** ****** ****** ****** ****** ****** ****** ******
      ****** ****** ****** ****** ****** ****** ****** ****** ****** ******
      ****** ****** ****** ****** ****** ****** ****** ****** ****** ******
   2  ****** ****** ****** ****** ****** ****** ****** ****** ****** ******
      ****** ****** ****** ****** ****** ****** ****** ****** ****** ******
      ****** ****** ****** ****** ****** ****** ****** ****** ****** ******
   3  ****** ****** ****** ****** ****** ****** ****** ****** ****** ******
      ****** ****** ****** ****** ****** ****** ****** ****** ****** ******
      ****** ****** ****** ****** ****** ****** ****** ****** ****** ******
   4  ****** ****** ****** ****** ****** ****** ****** ****** ****** ******
      ****** ****** ****** ****** ****** ****** ****** ****** ****** ******
      ****** ****** ****** ****** ****** ****** ****** ****** ****** ******
   5  ****** ****** ****** ****** ****** ****** ****** ****** ****** ******
      ****** ****** ****** ****** ****** ****** ****** ****** ****** ******
      ****** ****** ****** ****** ****** ****** ****** ****** ****** ******
   6  ****** ****** ****** ****** ****** ****** ****** ****** ****** ******
      ****** ****** ****** ****** ****** ****** ****** ****** ****** ******
      ****** ****** ****** ****** ****** ****** ****** ****** ****** ******
   7  ****** ****** ****** ****** ****** ****** ****** ****** ****** ******
      ****** ****** ****** ****** ****** ****** ****** ****** ****** ******
      ****** ****** ****** ****** ****** ****** ****** ****** ****** ******
   8  ****** ****** ****** ****** ****** ****** ****** ****** ****** ******
      ****** ****** ****** ****** ****** ****** ****** ****** ****** ******
      ****** ****** ****** ****** ****** ****** ****** ****** ****** ******
   9  ****** ****** ****** ****** ****** ****** ****** ****** ****** ******
      ****** ****** ****** ****** ****** ****** ****** ****** ****** ******
      ****** ****** ****** ****** ****** ****** ****** ****** ****** ******
  10  ****** ****** ****** ****** ****** ****** ****** ****** ****** ******
      ****** ****** ****** ****** ****** ****** ****** ****** ****** ******
      ****** ****** ****** ****** ****** ****** ****** ****** ****** ******
  11  ****** ****** ****** ****** ****** ****** ****** ****** ****** ******
      ****** ****** ****** ****** ****** ****** ****** ****** ****** ******
      ****** ****** ****** ****** ****** ****** ****** ****** ****** ******
  12  ****** ****** ****** ****** ****** ****** ****** ****** ****** ******
      ****** ****** ****** ****** ****** ****** ****** ****** ****** ******
      ****** ****** ****** ****** ****** ****** ****** ****** ****** ******
  13  ****** ****** ****** ****** ****** ****** ****** ****** ****** ******
      ****** ****** ****** ****** ****** ****** ****** ****** ****** ******
      ****** ****** ****** ****** ****** ****** ****** ****** ****** ******
  14  ****** ****** ****** ****** ****** ****** ****** ****** ****** ******
      ****** ****** ****** ****** ****** ****** ****** ****** ****** ******
      ****** ****** ****** ****** ****** ****** ****** ****** ****** ******
  15  ****** ****** ****** ****** ****** ****** ****** ****** ****** ******
      ****** ****** ****** ****** ****** ****** ****** ****** ****** ******
      ****** ****** ****** ****** ****** ****** ****** ****** ****** ******
  16  ****** ****** ****** ****** ****** ****** ****** ****** ****** ******
      ****** ****** ****** ****** ****** ****** ****** ****** ****** ******
      ****** ****** ****** ****** ****** ****** ****** ****** ****** ******
  17  ****** ****** ****** ****** ****** ****** ****** ****** ****** ******
      ****** ****** ****** ****** ****** ****** ****** ****** ****** ******
      ****** ****** ****** ****** ****** ****** ****** ****** ****** ******
  18  ****** ****** ****** ****** ****** ****** ****** ****** ****** ******
      ****** ****** ****** ****** ****** ****** ****** ****** ****** ******
      ****** ****** ****** ****** ****** ****** ****** ****** ****** ******
  19  ****** ****** ****** ****** ****** ****** ****** ****** ****** ******
      ****** ****** ****** ****** ****** ****** ****** ****** ****** ******
      ****** ****** ****** ****** ****** ****** ****** ****** ****** ******
  20  ****** ****** ****** ****** ****** ****** ****** ****** ****** ******
      ****** ****** ****** ****** ****** ****** ****** ****** ****** ******
      ****** ****** ****** ****** ****** ****** ****** ****** ****** ******
  21  ****** ****** ****** ****** ****** ****** ****** ****** ****** ******
      ****** ****** ****** ****** ****** ****** ****** ****** ****** ******
      ****** ****** ****** ****** ****** ****** ****** ****** ****** ******
  22  ****** ****** ****** ****** ****** ****** ****** ****** ****** ******
      ****** ****** ****** ****** ****** ****** ****** ****** ****** ******
      ****** ****** ****** ****** ****** ****** ****** ****** ****** ******
  23  ****** ****** ****** ****** ****** ****** ****** ****** ****** ******
      ****** ****** ****** ****** ****** ****** ****** ****** ****** ******
      ****** ****** ****** ****** ****** ****** ****** ****** ****** ******
  24  ****** ****** ****** ****** ****** ****** ****** ****** ****** ******
      ****** ****** ****** ****** ****** ****** ****** ****** ****** ******
      ****** ****** ****** ****** ****** ****** ****** ****** ****** ******
  25  ****** ****** ****** ****** ****** ****** ****** ****** ****** ******
      ****** ****** ****** ****** ****** ****** ****** ****** ****** ******
      ****** ****** ****** ****** ****** ****** ****** ****** ****** ******

 HEAD WILL BE SAVED ON UNIT   51 AT END OF TIME STEP    1, STRESS PERIOD   12
1
  VOLUMETRIC BUDGET FOR ENTIRE MODEL AT END OF TIME STEP    1, STRESS PERIOD  12
  ------------------------------------------------------------------------------

     CUMULATIVE VOLUMES      L**3       RATES FOR THIS TIME STEP      L**3/T
     ------------------                 ------------------------

           IN:                                      IN:
           ---                                      ---
             STORAGE =    34467518.6466               STORAGE =           4.8017
       CONSTANT HEAD =    30041107.9054         CONSTANT HEAD =       32286.9387
               WELLS =           0.0000                 WELLS =           0.0000
            RECHARGE =    26413200.0000              RECHARGE =       27600.0000
      STREAM LEAKAGE =    37738249.2792        STREAM LEAKAGE =       39011.7123

            TOTAL IN =   128660075.8312              TOTAL IN =       98903.4527

          OUT:                                     OUT:
          ----                                     ----
             STORAGE =     2706827.6825               STORAGE =        3073.4274
       CONSTANT HEAD =           0.0000         CONSTANT HEAD =           0.0000
               WELLS =    60406081.7295                 WELLS =       55165.3714
            RECHARGE =           0.0000              RECHARGE =           0.0000
      STREAM LEAKAGE =    65547168.3162        STREAM LEAKAGE =       40664.6533

           TOTAL OUT =   128660077.7282             TOTAL OUT =       98903.4521

            IN - OUT =          -1.8970              IN - OUT =       6.2404E-04

 PERCENT DISCREPANCY =          -0.00     PERCENT DISCREPANCY =           0.00






         TIME SUMMARY AT END OF TIME STEP    1 IN STRESS PERIOD   12
                    SECONDS     MINUTES      HOURS       DAYS        YEARS
                    -----------------------------------------------------------
   TIME STEP LENGTH 7.86240E+06 1.31040E+05  2184.0      91.000     0.24914    
 STRESS PERIOD TIME 7.86240E+06 1.31040E+05  2184.0      91.000     0.24914    
         TOTAL TIME 9.46080E+07 1.57680E+06  26280.      1095.0      2.9979    
1

 Run end date and time (yyyy/mm/dd hh:mm:ss): 2018/11/13 23:33:07
 Elapsed run time:  0.059 Seconds

