                                  MODFLOW-2005     
      U.S. GEOLOGICAL SURVEY MODULAR FINITE-DIFFERENCE GROUND-WATER FLOW MODEL
                            VERSION 1.11.00 8/8/2013

 LIST FILE: supply2.lst
                         UNIT   10

 OPENING ..\data\supply.dis
 FILE TYPE:DIS   UNIT   11   STATUS:OLD    
 FORMAT:FORMATTED              ACCESS:SEQUENTIAL          

 OPENING ..\data\supply.ba6
 FILE TYPE:BAS6   UNIT   12   STATUS:OLD    
 FORMAT:FORMATTED              ACCESS:SEQUENTIAL          

 OPENING ..\data\supply_het.bc6
 FILE TYPE:BCF6   UNIT   13   STATUS:OLD    
 FORMAT:FORMATTED              ACCESS:SEQUENTIAL          

 OPENING ..\data\supply.rch
 FILE TYPE:RCH   UNIT   15   STATUS:OLD    
 FORMAT:FORMATTED              ACCESS:SEQUENTIAL          

 OPENING ..\data\supply2.sfr
 FILE TYPE:SFR   UNIT   16   STATUS:OLD    
 FORMAT:FORMATTED              ACCESS:SEQUENTIAL          

 OPENING ..\data\supply.oc
 FILE TYPE:OC   UNIT   17   STATUS:OLD    
 FORMAT:FORMATTED              ACCESS:SEQUENTIAL          

 OPENING ..\data\supply.pcg
 FILE TYPE:PCG   UNIT   18   STATUS:OLD    
 FORMAT:FORMATTED              ACCESS:SEQUENTIAL          

 OPENING supply2.wel
 FILE TYPE:WEL   UNIT   19   STATUS:OLD    
 FORMAT:FORMATTED              ACCESS:SEQUENTIAL          

 OPENING supply2sf.cbc
 FILE TYPE:DATA(BINARY)   UNIT   50   STATUS:UNKNOWN
 FORMAT:BINARY                 ACCESS:SEQUENTIAL          

 OPENING supply2hd.bhd
 FILE TYPE:DATA(BINARY)   UNIT   51   STATUS:UNKNOWN
 FORMAT:BINARY                 ACCESS:SEQUENTIAL          

 BAS -- BASIC PACKAGE, VERSION 7, 5/2/2005 INPUT READ FROM UNIT   12
 
 MODFLOW was compiled using uniform precision
 Precision of REAL and DOUBLE PRECISION variables:          15

 DISCRETIZATION INPUT DATA READ FROM UNIT   11
    1 LAYERS        25 ROWS        30 COLUMNS
   12 STRESS PERIOD(S) IN SIMULATION
 MODEL TIME UNIT IS DAYS
 MODEL LENGTH UNIT IS UNDEFINED
  Confining bed flag for each layer:
   0

                     DELR =   200.000    

                     DELC =   200.000    

 TOP ELEVATION OF LAYER 1 =  100.0000    

   MODEL LAYER BOTTOM EL. =   0.00000     FOR LAYER   1


 STRESS PERIOD     LENGTH       TIME STEPS     MULTIPLIER FOR DELT    SS FLAG
 ----------------------------------------------------------------------------
        1         92.00000          1                    1.500         TR
        2         91.00000          1                    1.500         TR
        3         91.00000          1                    1.500         TR
        4         91.00000          1                    1.500         TR
        5         92.00000          1                    1.500         TR
        6         91.00000          1                    1.500         TR
        7         91.00000          1                    1.500         TR
        8         91.00000          1                    1.500         TR
        9         92.00000          1                    1.500         TR
       10         91.00000          1                    1.500         TR
       11         91.00000          1                    1.500         TR
       12         91.00000          1                    1.500         TR

 TRANSIENT SIMULATION



 
 #MODOFC transient water supply sample problem                                   
 #                                                                               
 THE FREE FORMAT OPTION HAS BEEN SELECTED



                     BOUNDARY ARRAY FOR LAYER   1
 READING ON UNIT   12 WITH FORMAT: (20I4)              

 AQUIFER HEAD WILL BE SET TO   0.0000     AT ALL NO-FLOW NODES (IBOUND=0).



                       INITIAL HEAD FOR LAYER   1
 READING ON UNIT   12 WITH FORMAT: (10F13.0)           

 OUTPUT CONTROL IS SPECIFIED ONLY AT TIME STEPS FOR WHICH OUTPUT IS DESIRED
 COMPACT CELL-BY-CELL BUDGET FILES WILL BE WRITTEN
 HEAD PRINT FORMAT CODE IS  18    DRAWDOWN PRINT FORMAT CODE IS   0
 HEADS WILL BE SAVED ON UNIT   51    DRAWDOWNS WILL BE SAVED ON UNIT    0

 BCF -- BLOCK-CENTERED FLOW PACKAGE, VERSION 7, 5/2/2005
         INPUT READ FROM UNIT 13
 TRANSIENT SIMULATION
 HEAD AT CELLS THAT CONVERT TO DRY=   0.0000    
 WETTING CAPABILITY IS NOT ACTIVE
      LAYER  LAYER-TYPE CODE     INTERBLOCK T
      --------------------------------------------
         1            0          0 -- HARMONIC    

 COLUMN TO ROW ANISOTROPY =  1.000000    

     PRIMARY STORAGE COEF =  5.000000E-02 FOR LAYER   1



               TRANSMIS. ALONG ROWS FOR LAYER   1
 READING ON UNIT   13 WITH FORMAT: (FREE)              

 WEL -- WELL PACKAGE, VERSION 7, 5/2/2005 INPUT READ FROM UNIT   19
 # Well package input file written by MMProc
 No named parameters
 MAXIMUM OF      4 ACTIVE WELLS AT ONE TIME


     0 Well parameters

 RCH -- RECHARGE PACKAGE, VERSION 7, 5/2/2005 INPUT READ FROM UNIT   15
 No named parameters
 OPTION 1 -- RECHARGE TO TOP LAYER


     0 Recharge parameters

 SFR7 -- STREAMFLOW ROUTING PACKAGE, VERSION 1.0.7, 2013-01-15
         INPUT READ FROM UNIT  16
 #  Supply2 test problem for GWM-VI
 #  The eighth entry in the first data line is ISTCB2 -
 #    Setting this to a negative number indicates that
 #    streamflows out of the reach will be saved to a
 #    binary file.  The absolute value of ISTCB2 is the
 #    unit to which unformatted flows will be written.
 #
 No named parameters
 Segment information will not be 
 read by reach
 No named parameters
 No specifed inflow files


 NUMBER OF STREAM REACHES IS   40

 NUMBER OF STREAM SEGMENTS IS    3

 NUMBER OF STREAM PARAMETERS IS    0

 NUMBER OF STREAM SEGMENTS DEFINED USING PARAMETERS IS              0

 MAXIMUM ERROR FOR STREAM LEAKAGE RATES IS  1.00E-04

 CONSTANT FOR MANNINGS EQUATION IS  1.2839E+05





   STREAM NETWORK DESCRIPTION: 

   LAYER    ROW    COL   SEGMENT   REACH     LENGTH
                          NUMBER   NUMBER    IN CELL        
   --------------------------------------------------
      1     13      1       1        1    2.0000E+02
      1     13      2       1        2    2.0000E+02
      1     14      3       1        3    2.0000E+02
      1     15      4       1        4    2.0000E+02
      1     16      5       1        5    2.0000E+02
      1     16      6       1        6    2.0000E+02
      1     16      7       1        7    2.0000E+02
      1     16      8       1        8    2.0000E+02
      1     16      9       1        9    2.0000E+02
      1     16     10       1       10    2.0000E+02
      1     16     11       1       11    2.0000E+02
      1     16     12       1       12    2.0000E+02
      1     15     13       1       13    2.0000E+02
      1     14     14       1       14    2.0000E+02
      1     13     15       1       15    2.0000E+02
      1     12     16       1       16    2.0000E+02
      1     12     17       1       17    2.0000E+02
      1     12     18       1       18    2.0000E+02
      1     12     19       1       19    2.0000E+02
      1     13     20       1       20    2.0000E+02
      1     14     21       1       21    2.0000E+02
      1     14     22       1       22    2.0000E+02
      1      9     30       2        1    2.0000E+02
      1      9     29       2        2    2.0000E+02
      1      9     28       2        3    2.0000E+02
      1      9     27       2        4    2.0000E+02
      1     10     26       2        5    2.0000E+02
      1     11     25       2        6    2.0000E+02
      1     12     24       2        7    2.0000E+02
      1     13     23       2        8    2.0000E+02
      1     14     22       2        9    2.0000E+02
      1     14     22       3        1    2.0000E+02
      1     15     23       3        2    2.0000E+02
      1     15     24       3        3    2.0000E+02
      1     15     25       3        4    2.0000E+02
      1     15     26       3        5    2.0000E+02
      1     16     27       3        6    2.0000E+02
      1     17     28       3        7    2.0000E+02
      1     18     29       3        8    2.0000E+02
      1     18     30       3        9    2.0000E+02




 PCG -- CONJUGATE-GRADIENT SOLUTION PACKAGE, VERSION 7, 5/2/2005
 MAXIMUM OF    500 CALLS OF SOLUTION ROUTINE
 MAXIMUM OF      5 INTERNAL ITERATIONS PER CALL TO SOLUTION ROUTINE
 MATRIX PRECONDITIONING TYPE :    1



                                    SOLUTION BY THE CONJUGATE-GRADIENT METHOD
                                   -------------------------------------------
                    MAXIMUM NUMBER OF CALLS TO PCG ROUTINE =      500
                        MAXIMUM ITERATIONS PER CALL TO PCG =        5
                               MATRIX PRECONDITIONING TYPE =        1
        RELAXATION FACTOR (ONLY USED WITH PRECOND. TYPE 1) =    0.10000E+01
 PARAMETER OF POLYNOMIAL PRECOND. = 2 (2) OR IS CALCULATED :        0
                         HEAD CHANGE CRITERION FOR CLOSURE =    0.10000E-05
                     RESIDUAL CHANGE CRITERION FOR CLOSURE =    0.10000E+01
            PCG HEAD AND RESIDUAL CHANGE PRINTOUT INTERVAL =        1
     PRINTING FROM SOLVER IS LIMITED(1) OR SUPPRESSED (>1) =        1
                            STEADY-STATE DAMPING PARAMETER =    0.10000E+01
                               TRANSIENT DAMPING PARAMETER =    0.10000E+01
1
                            STRESS PERIOD NO.    1, LENGTH =   92.00000    
                            -----------------------------------------------

                              NUMBER OF TIME STEPS =     1

                               MULTIPLIER FOR DELT =     1.500

                            INITIAL TIME STEP SIZE =   92.00000    

 WELL NO.  LAYER   ROW   COL   STRESS RATE         
 --------------------------------------------------
      1      1     15     20     -0.1192E+05
      2      1     17     29     -0.1435E+05
      3      1     12     29      -6954.    
      4      1     12     26     -0.1129E+05

      4 WELLS

                 RECHARGE =  5.000000E-04



 CLASSIFICATION & COUNT OF STREAM SEGMENTS BASED ON SOURCE OF INFLOW:

                HEADWATER     DIVERSION     RECEIVES TRIBUTARY FLOW
                ---------     ---------     -----------------------
                     2              0               1



                    INPUT DATA FOR EACH STREAM SEGMENT
 ---------------------------------------------------------------------------------------------

 SEGMENT    SEG.     INFLOW   OVERLAND   STREAM    STREAM   ICALC  OUTFLOW  DIVERSION PRIORITY
    NO.    LENGTH     RATE     RUNOFF      ET       PPT.    METH.  TO SEG.  FROM SEG.    NO.

      1  4.400E+03 1.000E+05 0.000E+00 0.000E+00 0.000E+00    1        3        0        0
      2  1.800E+03 5.000E+04 0.000E+00 0.000E+00 0.000E+00    1        3        0        0
      3  1.800E+03 0.000E+00 0.000E+00 0.000E+00 0.000E+00    1        0        0        0


         STREAMBED PROPERTIES AND STREAM DIMENSIONS

 SEGMENT     BED HYD. COND.      BED THICKNESS     ELEV.-TOP OF BED     WIDTH OF STREAM     DEPTH OF STREAM    STREAM ROUGHNESS
    No.     UPPER     LOWER     UPPER     LOWER     UPPER     LOWER     UPPER     LOWER     UPPER     LOWER   CHANNEL      BANK

     1  5.000E+00 5.000E+00 1.000E+00 1.000E+00 4.850E+01 3.800E+01 2.000E+01 2.000E+01                     5.000E-02
     2  5.000E+00 5.000E+00 1.000E+00 1.000E+00 4.025E+01 3.800E+01 2.000E+01 2.000E+01                     5.000E-02
     3  5.000E+00 5.000E+00 1.000E+00 1.000E+00 3.800E+01 3.000E+01 2.000E+01 2.000E+01                     5.000E-02



 
 SOLVING FOR HEAD 


     9 CALLS TO PCG ROUTINE FOR TIME STEP   1 IN STRESS PERIOD    1
    36 TOTAL ITERATIONS

 OUTPUT CONTROL FOR STRESS PERIOD    1   TIME STEP    1
    SAVE BUDGET
    SAVE HEAD FOR ALL LAYERS
    PRINT HEAD FOR ALL LAYERS
 UBDSV2 SAVING "STREAMFLOW OUT  " ON UNIT  50 AT TIME STEP  1, STRESS PERIOD   1



 STREAM LISTING     PERIOD      1   STEP        1

 LAYER ROW COL. STREAM  RCH.  FLOW INTO     FLOW TO   FLOW OUT OF   OVRLND.     DIRECT     STREAM       STREAM     STREAM     STREAM   STREAMBED  STREAMBED
                SEG.NO.  NO.  STRM. RCH.    AQUIFER    STRM. RCH.    RUNOFF     PRECIP       ET          HEAD       DEPTH      WIDTH   CONDCTNC.   GRADIENT

   1   13    1     1     1    1.0000E+05 -6.1243E+03   1.0612E+05  0.000E+00  0.000E+00  0.000E+00  4.84087E+01  1.473E-01  2.000E+01  2.000E+04 -3.062E-01
   1   13    2     1     2    1.0612E+05 -7.5940E+03   1.1372E+05  0.000E+00  0.000E+00  0.000E+00  4.79372E+01  1.531E-01  2.000E+01  2.000E+04 -3.797E-01
   1   14    3     1     3    1.1372E+05 -2.1990E+03   1.1592E+05  0.000E+00  0.000E+00  0.000E+00  4.74640E+01  1.572E-01  2.000E+01  2.000E+04 -1.100E-01
   1   15    4     1     4    1.1592E+05 -2.2701E+03   1.1819E+05  0.000E+00  0.000E+00  0.000E+00  4.69885E+01  1.590E-01  2.000E+01  2.000E+04 -1.135E-01
   1   16    5     1     5    1.1819E+05 -7.1818E+03   1.2537E+05  0.000E+00  0.000E+00  0.000E+00  4.65151E+01  1.628E-01  2.000E+01  2.000E+04 -3.591E-01
   1   16    6     1     6    1.2537E+05 -4.3007E+03   1.2967E+05  0.000E+00  0.000E+00  0.000E+00  4.60424E+01  1.674E-01  2.000E+01  2.000E+04 -2.150E-01
   1   16    7     1     7    1.2967E+05 -4.1343E+03   1.3380E+05  0.000E+00  0.000E+00  0.000E+00  4.55684E+01  1.707E-01  2.000E+01  2.000E+04 -2.067E-01
   1   16    8     1     8    1.3380E+05 -4.0915E+03   1.3790E+05  0.000E+00  0.000E+00  0.000E+00  4.50943E+01  1.738E-01  2.000E+01  2.000E+04 -2.046E-01
   1   16    9     1     9    1.3790E+05 -4.0775E+03   1.4197E+05  0.000E+00  0.000E+00  0.000E+00  4.46201E+01  1.770E-01  2.000E+01  2.000E+04 -2.039E-01
   1   16   10     1    10    1.4197E+05 -4.0691E+03   1.4604E+05  0.000E+00  0.000E+00  0.000E+00  4.41459E+01  1.800E-01  2.000E+01  2.000E+04 -2.035E-01
   1   16   11     1    11    1.4604E+05 -4.0927E+03   1.5013E+05  0.000E+00  0.000E+00  0.000E+00  4.36717E+01  1.831E-01  2.000E+01  2.000E+04 -2.046E-01
   1   16   12     1    12    1.5013E+05 -6.8998E+03   1.5703E+05  0.000E+00  0.000E+00  0.000E+00  4.31985E+01  1.871E-01  2.000E+01  2.000E+04 -3.450E-01
   1   15   13     1    13    1.5703E+05 -7.1841E+03   1.6422E+05  0.000E+00  0.000E+00  0.000E+00  4.27263E+01  1.922E-01  2.000E+01  2.000E+04 -3.592E-01
   1   14   14     1    14    1.6422E+05 -7.6280E+03   1.7185E+05  0.000E+00  0.000E+00  0.000E+00  4.22543E+01  1.975E-01  2.000E+01  2.000E+04 -3.814E-01
   1   13   15     1    15    1.7185E+05 -7.9486E+03   1.7980E+05  0.000E+00  0.000E+00  0.000E+00  4.17825E+01  2.029E-01  2.000E+01  2.000E+04 -3.974E-01
   1   12   16     1    16    1.7980E+05 -8.7517E+03   1.8855E+05  0.000E+00  0.000E+00  0.000E+00  4.13109E+01  2.087E-01  2.000E+01  2.000E+04 -4.376E-01
   1   12   17     1    17    1.8855E+05 -6.0748E+03   1.9462E+05  0.000E+00  0.000E+00  0.000E+00  4.08387E+01  2.137E-01  2.000E+01  2.000E+04 -3.037E-01
   1   12   18     1    18    1.9462E+05 -5.8077E+03   2.0043E+05  0.000E+00  0.000E+00  0.000E+00  4.03653E+01  2.176E-01  2.000E+01  2.000E+04 -2.904E-01
   1   12   19     1    19    2.0043E+05 -7.3516E+03   2.0778E+05  0.000E+00  0.000E+00  0.000E+00  3.98924E+01  2.219E-01  2.000E+01  2.000E+04 -3.676E-01
   1   13   20     1    20    2.0778E+05 -4.9891E+03   2.1277E+05  0.000E+00  0.000E+00  0.000E+00  3.94191E+01  2.259E-01  2.000E+01  2.000E+04 -2.495E-01
   1   14   21     1    21    2.1277E+05 -3.2249E+03   2.1600E+05  0.000E+00  0.000E+00  0.000E+00  3.89445E+01  2.286E-01  2.000E+01  2.000E+04 -1.612E-01
   1   14   22     1    22    2.1600E+05  4.0896E+03   2.1191E+05  0.000E+00  0.000E+00  0.000E+00  3.84669E+01  2.283E-01  2.000E+01  2.000E+04  2.045E-01
   1    9   30     2     1    5.0000E+04 -3.6014E+03   5.3601E+04  0.000E+00  0.000E+00  0.000E+00  4.02434E+01  1.184E-01  2.000E+01  2.000E+04 -1.801E-01
   1    9   29     2     2    5.3601E+04 -3.8710E+03   5.7472E+04  0.000E+00  0.000E+00  0.000E+00  3.99984E+01  1.234E-01  2.000E+01  2.000E+04 -1.935E-01
   1    9   28     2     3    5.7472E+04 -4.3007E+03   6.1773E+04  0.000E+00  0.000E+00  0.000E+00  3.97538E+01  1.288E-01  2.000E+01  2.000E+04 -2.150E-01
   1    9   27     2     4    6.1773E+04 -7.4070E+03   6.9180E+04  0.000E+00  0.000E+00  0.000E+00  3.95112E+01  1.362E-01  2.000E+01  2.000E+04 -3.704E-01
   1   10   26     2     5    6.9180E+04 -4.4642E+03   7.3644E+04  0.000E+00  0.000E+00  0.000E+00  3.92685E+01  1.435E-01  2.000E+01  2.000E+04 -2.232E-01
   1   11   25     2     6    7.3644E+04 -2.8473E+03   7.6492E+04  0.000E+00  0.000E+00  0.000E+00  3.90229E+01  1.479E-01  2.000E+01  2.000E+04 -1.424E-01
   1   12   24     2     7    7.6492E+04 -4.2648E+03   8.0756E+04  0.000E+00  0.000E+00  0.000E+00  3.87770E+01  1.520E-01  2.000E+01  2.000E+04 -2.132E-01
   1   13   23     2     8    8.0756E+04 -1.6067E+03   8.2363E+04  0.000E+00  0.000E+00  0.000E+00  3.85304E+01  1.554E-01  2.000E+01  2.000E+04 -8.034E-02
   1   14   22     2     9    8.2363E+04  3.7297E+02   8.1990E+04  0.000E+00  0.000E+00  0.000E+00  3.82811E+01  1.561E-01  2.000E+01  2.000E+04  1.865E-02
   1   14   22     3     1    2.9390E+05 -9.5097E+03   3.0341E+05  0.000E+00  0.000E+00  0.000E+00  3.77870E+01  2.314E-01  2.000E+01  2.000E+04 -4.755E-01
   1   15   23     3     2    3.0341E+05 -1.7534E+03   3.0516E+05  0.000E+00  0.000E+00  0.000E+00  3.69007E+01  2.340E-01  2.000E+01  2.000E+04 -8.767E-02
   1   15   24     3     3    3.0516E+05 -1.4828E+03   3.0664E+05  0.000E+00  0.000E+00  0.000E+00  3.60126E+01  2.348E-01  2.000E+01  2.000E+04 -7.414E-02
   1   15   25     3     4    3.0664E+05 -1.4991E+03   3.0814E+05  0.000E+00  0.000E+00  0.000E+00  3.51243E+01  2.355E-01  2.000E+01  2.000E+04 -7.495E-02
   1   15   26     3     5    3.0814E+05 -1.6230E+03   3.0976E+05  0.000E+00  0.000E+00  0.000E+00  3.42362E+01  2.362E-01  2.000E+01  2.000E+04 -8.115E-02
   1   16   27     3     6    3.0976E+05 -1.7221E+03   3.1149E+05  0.000E+00  0.000E+00  0.000E+00  3.33481E+01  2.369E-01  2.000E+01  2.000E+04 -8.611E-02
   1   17   28     3     7    3.1149E+05 -2.1299E+02   3.1170E+05  0.000E+00  0.000E+00  0.000E+00  3.24596E+01  2.374E-01  2.000E+01  2.000E+04 -1.065E-02
   1   18   29     3     8    3.1170E+05 -3.1775E+03   3.1488E+05  0.000E+00  0.000E+00  0.000E+00  3.15715E+01  2.382E-01  2.000E+01  2.000E+04 -1.589E-01
   1   18   30     3     9    3.1488E+05 -4.5872E+03   3.1946E+05  0.000E+00  0.000E+00  0.000E+00  3.06844E+01  2.399E-01  2.000E+01  2.000E+04 -2.294E-01



1
              HEAD IN LAYER   1 AT END OF TIME STEP   1 IN STRESS PERIOD    1
  ---------------------------------------------------------------------------

          1      2      3      4      5      6      7      8      9     10
         11     12     13     14     15     16     17     18     19     20
         21     22     23     24     25     26     27     28     29     30
 .........................................................................
   1  ****** ****** ****** ****** ****** ****** ****** ****** ****** ******
      ****** ****** ****** ****** ****** ****** ****** ****** ****** ******
      ****** ****** ****** ****** ****** ****** ****** ****** ****** ******
   2  ****** ****** ****** ****** ****** ****** ****** ****** ****** ******
      ****** ****** ****** ****** ****** ****** ****** ****** ****** ******
      ****** ****** ****** ****** ****** ****** ****** ****** ****** ******
   3  ****** ****** ****** ****** ****** ****** ****** ****** ****** ******
      ****** ****** ****** ****** ****** ****** ****** ****** ****** ******
      ****** ****** ****** ****** ****** ****** ****** ****** ****** ******
   4  ****** ****** ****** ****** ****** ****** ****** ****** ****** ******
      ****** ****** ****** ****** ****** ****** ****** ****** ****** ******
      ****** ****** ****** ****** ****** ****** ****** ****** ****** ******
   5  ****** ****** ****** ****** ****** ****** ****** ****** ****** ******
      ****** ****** ****** ****** ****** ****** ****** ****** ****** ******
      ****** ****** ****** ****** ****** ****** ****** ****** ****** ******
   6  ****** ****** ****** ****** ****** ****** ****** ****** ****** ******
      ****** ****** ****** ****** ****** ****** ****** ****** ****** ******
      ****** ****** ****** ****** ****** ****** ****** ****** ****** ******
   7  ****** ****** ****** ****** ****** ****** ****** ****** ****** ******
      ****** ****** ****** ****** ****** ****** ****** ****** ****** ******
      ****** ****** ****** ****** ****** ****** ****** ****** ****** ******
   8  ****** ****** ****** ****** ****** ****** ****** ****** ****** ******
      ****** ****** ****** ****** ****** ****** ****** ****** ****** ******
      ****** ****** ****** ****** ****** ****** ****** ****** ****** ******
   9  ****** ****** ****** ****** ****** ****** ****** ****** ****** ******
      ****** ****** ****** ****** ****** ****** ****** ****** ****** ******
      ****** ****** ****** ****** ****** ****** ****** ****** ****** ******
  10  ****** ****** ****** ****** ****** ****** ****** ****** ****** ******
      ****** ****** ****** ****** ****** ****** ****** ****** ****** ******
      ****** ****** ****** ****** ****** ****** ****** ****** ****** ******
  11  ****** ****** ****** ****** ****** ****** ****** ****** ****** ******
      ****** ****** ****** ****** ****** ****** ****** ****** ****** ******
      ****** ****** ****** ****** ****** ****** ****** ****** ****** ******
  12  ****** ****** ****** ****** ****** ****** ****** ****** ****** ******
      ****** ****** ****** ****** ****** ****** ****** ****** ****** ******
      ****** ****** ****** ****** ****** ****** ****** ****** ****** ******
  13  ****** ****** ****** ****** ****** ****** ****** ****** ****** ******
      ****** ****** ****** ****** ****** ****** ****** ****** ****** ******
      ****** ****** ****** ****** ****** ****** ****** ****** ****** ******
  14  ****** ****** ****** ****** ****** ****** ****** ****** ****** ******
      ****** ****** ****** ****** ****** ****** ****** ****** ****** ******
      ****** ****** ****** ****** ****** ****** ****** ****** ****** ******
  15  ****** ****** ****** ****** ****** ****** ****** ****** ****** ******
      ****** ****** ****** ****** ****** ****** ****** ****** ****** ******
      ****** ****** ****** ****** ****** ****** ****** ****** ****** ******
  16  ****** ****** ****** ****** ****** ****** ****** ****** ****** ******
      ****** ****** ****** ****** ****** ****** ****** ****** ****** ******
      ****** ****** ****** ****** ****** ****** ****** ****** ****** ******
  17  ****** ****** ****** ****** ****** ****** ****** ****** ****** ******
      ****** ****** ****** ****** ****** ****** ****** ****** ****** ******
      ****** ****** ****** ****** ****** ****** ****** ****** ****** ******
  18  ****** ****** ****** ****** ****** ****** ****** ****** ****** ******
      ****** ****** ****** ****** ****** ****** ****** ****** ****** ******
      ****** ****** ****** ****** ****** ****** ****** ****** ****** ******
  19  ****** ****** ****** ****** ****** ****** ****** ****** ****** ******
      ****** ****** ****** ****** ****** ****** ****** ****** ****** ******
      ****** ****** ****** ****** ****** ****** ****** ****** ****** ******
  20  ****** ****** ****** ****** ****** ****** ****** ****** ****** ******
      ****** ****** ****** ****** ****** ****** ****** ****** ****** ******
      ****** ****** ****** ****** ****** ****** ****** ****** ****** ******
  21  ****** ****** ****** ****** ****** ****** ****** ****** ****** ******
      ****** ****** ****** ****** ****** ****** ****** ****** ****** ******
      ****** ****** ****** ****** ****** ****** ****** ****** ****** ******
  22  ****** ****** ****** ****** ****** ****** ****** ****** ****** ******
      ****** ****** ****** ****** ****** ****** ****** ****** ****** ******
      ****** ****** ****** ****** ****** ****** ****** ****** ****** ******
  23  ****** ****** ****** ****** ****** ****** ****** ****** ****** ******
      ****** ****** ****** ****** ****** ****** ****** ****** ****** ******
      ****** ****** ****** ****** ****** ****** ****** ****** ****** ******
  24  ****** ****** ****** ****** ****** ****** ****** ****** ****** ******
      ****** ****** ****** ****** ****** ****** ****** ****** ****** ******
      ****** ****** ****** ****** ****** ****** ****** ****** ****** ******
  25  ****** ****** ****** ****** ****** ****** ****** ****** ****** ******
      ****** ****** ****** ****** ****** ****** ****** ****** ****** ******
      ****** ****** ****** ****** ****** ****** ****** ****** ****** ******

 HEAD WILL BE SAVED ON UNIT   51 AT END OF TIME STEP    1, STRESS PERIOD    1
1
  VOLUMETRIC BUDGET FOR ENTIRE MODEL AT END OF TIME STEP    1, STRESS PERIOD   1
  ------------------------------------------------------------------------------

     CUMULATIVE VOLUMES      L**3       RATES FOR THIS TIME STEP      L**3/T
     ------------------                 ------------------------

           IN:                                      IN:
           ---                                      ---
             STORAGE =    17318916.1568               STORAGE =      188249.0887
       CONSTANT HEAD =     1097923.3551         CONSTANT HEAD =       11933.9495
               WELLS =           0.0000                 WELLS =           0.0000
            RECHARGE =     1269600.0000              RECHARGE =       13800.0000
      STREAM LEAKAGE =      410558.9486        STREAM LEAKAGE =        4462.5973

            TOTAL IN =    20096998.4604              TOTAL IN =      218445.6354

          OUT:                                     OUT:
          ----                                     ----
             STORAGE =           0.0000               STORAGE =           0.0000
       CONSTANT HEAD =           0.0000         CONSTANT HEAD =           0.0000
               WELLS =     4095824.6617                 WELLS =       44519.8333
            RECHARGE =           0.0000              RECHARGE =           0.0000
      STREAM LEAKAGE =    16001174.0890        STREAM LEAKAGE =      173925.8053

           TOTAL OUT =    20096998.7507             TOTAL OUT =      218445.6386

            IN - OUT =          -0.2903              IN - OUT =      -3.1554E-03

 PERCENT DISCREPANCY =          -0.00     PERCENT DISCREPANCY =          -0.00






         TIME SUMMARY AT END OF TIME STEP    1 IN STRESS PERIOD    1
                    SECONDS     MINUTES      HOURS       DAYS        YEARS
                    -----------------------------------------------------------
   TIME STEP LENGTH 7.94880E+06 1.32480E+05  2208.0      92.000     0.25188    
 STRESS PERIOD TIME 7.94880E+06 1.32480E+05  2208.0      92.000     0.25188    
         TOTAL TIME 7.94880E+06 1.32480E+05  2208.0      92.000     0.25188    
1
1
                            STRESS PERIOD NO.    2, LENGTH =   91.00000    
                            -----------------------------------------------

                              NUMBER OF TIME STEPS =     1

                               MULTIPLIER FOR DELT =     1.500

                            INITIAL TIME STEP SIZE =   91.00000    

 WELL NO.  LAYER   ROW   COL   STRESS RATE         
 --------------------------------------------------
      1      1     15     20     -0.1192E+05
      2      1     17     29     -0.1435E+05
      3      1     12     29      -6954.    
      4      1     12     26     -0.1129E+05

      4 WELLS

                 RECHARGE =  2.000000E-03

 REUSING STREAM SEGMENT DATA FROM LAST STRESS PERIOD
 
 SOLVING FOR HEAD 


     7 CALLS TO PCG ROUTINE FOR TIME STEP   1 IN STRESS PERIOD    2
    27 TOTAL ITERATIONS

 OUTPUT CONTROL FOR STRESS PERIOD    2   TIME STEP    1
    SAVE BUDGET
    SAVE HEAD FOR ALL LAYERS
    PRINT HEAD FOR ALL LAYERS
 UBDSV2 SAVING "STREAMFLOW OUT  " ON UNIT  50 AT TIME STEP  1, STRESS PERIOD   2



 STREAM LISTING     PERIOD      2   STEP        1

 LAYER ROW COL. STREAM  RCH.  FLOW INTO     FLOW TO   FLOW OUT OF   OVRLND.     DIRECT     STREAM       STREAM     STREAM     STREAM   STREAMBED  STREAMBED
                SEG.NO.  NO.  STRM. RCH.    AQUIFER    STRM. RCH.    RUNOFF     PRECIP       ET          HEAD       DEPTH      WIDTH   CONDCTNC.   GRADIENT

   1   13    1     1     1    1.0000E+05 -4.0153E+03   1.0402E+05  0.000E+00  0.000E+00  0.000E+00  4.84078E+01  1.464E-01  2.000E+01  2.000E+04 -2.008E-01
   1   13    2     1     2    1.0402E+05 -5.2781E+03   1.0929E+05  0.000E+00  0.000E+00  0.000E+00  4.79344E+01  1.504E-01  2.000E+01  2.000E+04 -2.639E-01
   1   14    3     1     3    1.0929E+05 -1.1167E+03   1.1041E+05  0.000E+00  0.000E+00  0.000E+00  4.74599E+01  1.530E-01  2.000E+01  2.000E+04 -5.583E-02
   1   15    4     1     4    1.1041E+05 -1.1440E+03   1.1155E+05  0.000E+00  0.000E+00  0.000E+00  4.69835E+01  1.540E-01  2.000E+01  2.000E+04 -5.720E-02
   1   16    5     1     5    1.1155E+05 -4.2474E+03   1.1580E+05  0.000E+00  0.000E+00  0.000E+00  4.65085E+01  1.562E-01  2.000E+01  2.000E+04 -2.124E-01
   1   16    6     1     6    1.1580E+05 -2.5022E+03   1.1830E+05  0.000E+00  0.000E+00  0.000E+00  4.60340E+01  1.590E-01  2.000E+01  2.000E+04 -1.251E-01
   1   16    7     1     7    1.1830E+05 -2.4058E+03   1.2071E+05  0.000E+00  0.000E+00  0.000E+00  4.55587E+01  1.610E-01  2.000E+01  2.000E+04 -1.203E-01
   1   16    8     1     8    1.2071E+05 -2.3731E+03   1.2308E+05  0.000E+00  0.000E+00  0.000E+00  4.50834E+01  1.629E-01  2.000E+01  2.000E+04 -1.187E-01
   1   16    9     1     9    1.2308E+05 -2.3468E+03   1.2543E+05  0.000E+00  0.000E+00  0.000E+00  4.46080E+01  1.648E-01  2.000E+01  2.000E+04 -1.173E-01
   1   16   10     1    10    1.2543E+05 -2.3130E+03   1.2774E+05  0.000E+00  0.000E+00  0.000E+00  4.41325E+01  1.666E-01  2.000E+01  2.000E+04 -1.156E-01
   1   16   11     1    11    1.2774E+05 -2.3003E+03   1.3004E+05  0.000E+00  0.000E+00  0.000E+00  4.36571E+01  1.684E-01  2.000E+01  2.000E+04 -1.150E-01
   1   16   12     1    12    1.3004E+05 -3.9714E+03   1.3401E+05  0.000E+00  0.000E+00  0.000E+00  4.31823E+01  1.709E-01  2.000E+01  2.000E+04 -1.986E-01
   1   15   13     1    13    1.3401E+05 -3.9194E+03   1.3793E+05  0.000E+00  0.000E+00  0.000E+00  4.27080E+01  1.739E-01  2.000E+01  2.000E+04 -1.960E-01
   1   14   14     1    14    1.3793E+05 -4.2516E+03   1.4219E+05  0.000E+00  0.000E+00  0.000E+00  4.22339E+01  1.771E-01  2.000E+01  2.000E+04 -2.126E-01
   1   13   15     1    15    1.4219E+05 -4.5958E+03   1.4678E+05  0.000E+00  0.000E+00  0.000E+00  4.17599E+01  1.804E-01  2.000E+01  2.000E+04 -2.298E-01
   1   12   16     1    16    1.4678E+05 -5.6606E+03   1.5244E+05  0.000E+00  0.000E+00  0.000E+00  4.12865E+01  1.842E-01  2.000E+01  2.000E+04 -2.830E-01
   1   12   17     1    17    1.5244E+05 -3.5834E+03   1.5602E+05  0.000E+00  0.000E+00  0.000E+00  4.08126E+01  1.876E-01  2.000E+01  2.000E+04 -1.792E-01
   1   12   18     1    18    1.5602E+05 -3.2991E+03   1.5932E+05  0.000E+00  0.000E+00  0.000E+00  4.03378E+01  1.901E-01  2.000E+01  2.000E+04 -1.650E-01
   1   12   19     1    19    1.5932E+05 -4.2532E+03   1.6358E+05  0.000E+00  0.000E+00  0.000E+00  3.98633E+01  1.928E-01  2.000E+01  2.000E+04 -2.127E-01
   1   13   20     1    20    1.6358E+05 -1.7510E+03   1.6533E+05  0.000E+00  0.000E+00  0.000E+00  3.93881E+01  1.950E-01  2.000E+01  2.000E+04 -8.755E-02
   1   14   21     1    21    1.6533E+05 -2.2694E+02   1.6556E+05  0.000E+00  0.000E+00  0.000E+00  3.89116E+01  1.957E-01  2.000E+01  2.000E+04 -1.135E-02
   1   14   22     1    22    1.6556E+05  4.9228E+03   1.6063E+05  0.000E+00  0.000E+00  0.000E+00  3.84326E+01  1.940E-01  2.000E+01  2.000E+04  2.461E-01
   1    9   30     2     1    5.0000E+04 -6.0221E+02   5.0602E+04  0.000E+00  0.000E+00  0.000E+00  4.02413E+01  1.163E-01  2.000E+01  2.000E+04 -3.011E-02
   1    9   29     2     2    5.0602E+04 -9.0087E+02   5.1503E+04  0.000E+00  0.000E+00  0.000E+00  3.99923E+01  1.173E-01  2.000E+01  2.000E+04 -4.504E-02
   1    9   28     2     3    5.1503E+04 -1.3908E+03   5.2894E+04  0.000E+00  0.000E+00  0.000E+00  3.97439E+01  1.189E-01  2.000E+01  2.000E+04 -6.954E-02
   1    9   27     2     4    5.2894E+04 -3.8231E+03   5.6717E+04  0.000E+00  0.000E+00  0.000E+00  3.94974E+01  1.224E-01  2.000E+01  2.000E+04 -1.912E-01
   1   10   26     2     5    5.6717E+04 -5.2881E+02   5.7246E+04  0.000E+00  0.000E+00  0.000E+00  3.92503E+01  1.253E-01  2.000E+01  2.000E+04 -2.644E-02
   1   11   25     2     6    5.7246E+04  9.5187E+02   5.6294E+04  0.000E+00  0.000E+00  0.000E+00  3.90000E+01  1.250E-01  2.000E+01  2.000E+04  4.759E-02
   1   12   24     2     7    5.6294E+04 -1.0128E+03   5.7307E+04  0.000E+00  0.000E+00  0.000E+00  3.87501E+01  1.251E-01  2.000E+01  2.000E+04 -5.064E-02
   1   13   23     2     8    5.7307E+04 -5.5438E+02   5.7861E+04  0.000E+00  0.000E+00  0.000E+00  3.85011E+01  1.261E-01  2.000E+01  2.000E+04 -2.772E-02
   1   14   22     2     9    5.7861E+04  1.2829E+03   5.6578E+04  0.000E+00  0.000E+00  0.000E+00  3.82506E+01  1.256E-01  2.000E+01  2.000E+04  6.414E-02
   1   14   22     3     1    2.1721E+05 -8.7491E+03   2.2596E+05  0.000E+00  0.000E+00  0.000E+00  3.77490E+01  1.935E-01  2.000E+01  2.000E+04 -4.375E-01
   1   15   23     3     2    2.2596E+05 -7.6268E+02   2.2672E+05  0.000E+00  0.000E+00  0.000E+00  3.68626E+01  1.960E-01  2.000E+01  2.000E+04 -3.813E-02
   1   15   24     3     3    2.2672E+05 -5.9024E+02   2.2731E+05  0.000E+00  0.000E+00  0.000E+00  3.59741E+01  1.963E-01  2.000E+01  2.000E+04 -2.951E-02
   1   15   25     3     4    2.2731E+05 -5.5009E+02   2.2786E+05  0.000E+00  0.000E+00  0.000E+00  3.50855E+01  1.966E-01  2.000E+01  2.000E+04 -2.750E-02
   1   15   26     3     5    2.2786E+05 -4.0572E+02   2.2827E+05  0.000E+00  0.000E+00  0.000E+00  3.41969E+01  1.969E-01  2.000E+01  2.000E+04 -2.029E-02
   1   16   27     3     6    2.2827E+05 -3.3403E+02   2.2860E+05  0.000E+00  0.000E+00  0.000E+00  3.33082E+01  1.970E-01  2.000E+01  2.000E+04 -1.670E-02
   1   17   28     3     7    2.2860E+05  3.7273E+03   2.2488E+05  0.000E+00  0.000E+00  0.000E+00  3.24184E+01  1.962E-01  2.000E+01  2.000E+04  1.864E-01
   1   18   29     3     8    2.2488E+05  6.6045E+01   2.2481E+05  0.000E+00  0.000E+00  0.000E+00  3.15285E+01  1.952E-01  2.000E+01  2.000E+04  3.302E-03
   1   18   30     3     9    2.2481E+05 -1.7795E+03   2.2659E+05  0.000E+00  0.000E+00  0.000E+00  3.06401E+01  1.956E-01  2.000E+01  2.000E+04 -8.898E-02



1
              HEAD IN LAYER   1 AT END OF TIME STEP   1 IN STRESS PERIOD    2
  ---------------------------------------------------------------------------

          1      2      3      4      5      6      7      8      9     10
         11     12     13     14     15     16     17     18     19     20
         21     22     23     24     25     26     27     28     29     30
 .........................................................................
   1  ****** ****** ****** ****** ****** ****** ****** ****** ****** ******
      ****** ****** ****** ****** ****** ****** ****** ****** ****** ******
      ****** ****** ****** ****** ****** ****** ****** ****** ****** ******
   2  ****** ****** ****** ****** ****** ****** ****** ****** ****** ******
      ****** ****** ****** ****** ****** ****** ****** ****** ****** ******
      ****** ****** ****** ****** ****** ****** ****** ****** ****** ******
   3  ****** ****** ****** ****** ****** ****** ****** ****** ****** ******
      ****** ****** ****** ****** ****** ****** ****** ****** ****** ******
      ****** ****** ****** ****** ****** ****** ****** ****** ****** ******
   4  ****** ****** ****** ****** ****** ****** ****** ****** ****** ******
      ****** ****** ****** ****** ****** ****** ****** ****** ****** ******
      ****** ****** ****** ****** ****** ****** ****** ****** ****** ******
   5  ****** ****** ****** ****** ****** ****** ****** ****** ****** ******
      ****** ****** ****** ****** ****** ****** ****** ****** ****** ******
      ****** ****** ****** ****** ****** ****** ****** ****** ****** ******
   6  ****** ****** ****** ****** ****** ****** ****** ****** ****** ******
      ****** ****** ****** ****** ****** ****** ****** ****** ****** ******
      ****** ****** ****** ****** ****** ****** ****** ****** ****** ******
   7  ****** ****** ****** ****** ****** ****** ****** ****** ****** ******
      ****** ****** ****** ****** ****** ****** ****** ****** ****** ******
      ****** ****** ****** ****** ****** ****** ****** ****** ****** ******
   8  ****** ****** ****** ****** ****** ****** ****** ****** ****** ******
      ****** ****** ****** ****** ****** ****** ****** ****** ****** ******
      ****** ****** ****** ****** ****** ****** ****** ****** ****** ******
   9  ****** ****** ****** ****** ****** ****** ****** ****** ****** ******
      ****** ****** ****** ****** ****** ****** ****** ****** ****** ******
      ****** ****** ****** ****** ****** ****** ****** ****** ****** ******
  10  ****** ****** ****** ****** ****** ****** ****** ****** ****** ******
      ****** ****** ****** ****** ****** ****** ****** ****** ****** ******
      ****** ****** ****** ****** ****** ****** ****** ****** ****** ******
  11  ****** ****** ****** ****** ****** ****** ****** ****** ****** ******
      ****** ****** ****** ****** ****** ****** ****** ****** ****** ******
      ****** ****** ****** ****** ****** ****** ****** ****** ****** ******
  12  ****** ****** ****** ****** ****** ****** ****** ****** ****** ******
      ****** ****** ****** ****** ****** ****** ****** ****** ****** ******
      ****** ****** ****** ****** ****** ****** ****** ****** ****** ******
  13  ****** ****** ****** ****** ****** ****** ****** ****** ****** ******
      ****** ****** ****** ****** ****** ****** ****** ****** ****** ******
      ****** ****** ****** ****** ****** ****** ****** ****** ****** ******
  14  ****** ****** ****** ****** ****** ****** ****** ****** ****** ******
      ****** ****** ****** ****** ****** ****** ****** ****** ****** ******
      ****** ****** ****** ****** ****** ****** ****** ****** ****** ******
  15  ****** ****** ****** ****** ****** ****** ****** ****** ****** ******
      ****** ****** ****** ****** ****** ****** ****** ****** ****** ******
      ****** ****** ****** ****** ****** ****** ****** ****** ****** ******
  16  ****** ****** ****** ****** ****** ****** ****** ****** ****** ******
      ****** ****** ****** ****** ****** ****** ****** ****** ****** ******
      ****** ****** ****** ****** ****** ****** ****** ****** ****** ******
  17  ****** ****** ****** ****** ****** ****** ****** ****** ****** ******
      ****** ****** ****** ****** ****** ****** ****** ****** ****** ******
      ****** ****** ****** ****** ****** ****** ****** ****** ****** ******
  18  ****** ****** ****** ****** ****** ****** ****** ****** ****** ******
      ****** ****** ****** ****** ****** ****** ****** ****** ****** ******
      ****** ****** ****** ****** ****** ****** ****** ****** ****** ******
  19  ****** ****** ****** ****** ****** ****** ****** ****** ****** ******
      ****** ****** ****** ****** ****** ****** ****** ****** ****** ******
      ****** ****** ****** ****** ****** ****** ****** ****** ****** ******
  20  ****** ****** ****** ****** ****** ****** ****** ****** ****** ******
      ****** ****** ****** ****** ****** ****** ****** ****** ****** ******
      ****** ****** ****** ****** ****** ****** ****** ****** ****** ******
  21  ****** ****** ****** ****** ****** ****** ****** ****** ****** ******
      ****** ****** ****** ****** ****** ****** ****** ****** ****** ******
      ****** ****** ****** ****** ****** ****** ****** ****** ****** ******
  22  ****** ****** ****** ****** ****** ****** ****** ****** ****** ******
      ****** ****** ****** ****** ****** ****** ****** ****** ****** ******
      ****** ****** ****** ****** ****** ****** ****** ****** ****** ******
  23  ****** ****** ****** ****** ****** ****** ****** ****** ****** ******
      ****** ****** ****** ****** ****** ****** ****** ****** ****** ******
      ****** ****** ****** ****** ****** ****** ****** ****** ****** ******
  24  ****** ****** ****** ****** ****** ****** ****** ****** ****** ******
      ****** ****** ****** ****** ****** ****** ****** ****** ****** ******
      ****** ****** ****** ****** ****** ****** ****** ****** ****** ******
  25  ****** ****** ****** ****** ****** ****** ****** ****** ****** ******
      ****** ****** ****** ****** ****** ****** ****** ****** ****** ******
      ****** ****** ****** ****** ****** ****** ****** ****** ****** ******

 HEAD WILL BE SAVED ON UNIT   51 AT END OF TIME STEP    1, STRESS PERIOD    2
1
  VOLUMETRIC BUDGET FOR ENTIRE MODEL AT END OF TIME STEP    1, STRESS PERIOD   2
  ------------------------------------------------------------------------------

     CUMULATIVE VOLUMES      L**3       RATES FOR THIS TIME STEP      L**3/T
     ------------------                 ------------------------

           IN:                                      IN:
           ---                                      ---
             STORAGE =    21871199.7695               STORAGE =       50025.0946
       CONSTANT HEAD =     2543304.6144         CONSTANT HEAD =       15883.3105
               WELLS =           0.0000                 WELLS =           0.0000
            RECHARGE =     6292800.0000              RECHARGE =       55200.0000
      STREAM LEAKAGE =     1407093.4214        STREAM LEAKAGE =       10950.9283

            TOTAL IN =    32114397.8052              TOTAL IN =      132059.3335

          OUT:                                     OUT:
          ----                                     ----
             STORAGE =           0.0000               STORAGE =           0.0000
       CONSTANT HEAD =           0.0000         CONSTANT HEAD =           0.0000
               WELLS =     8147129.4902                 WELLS =       44519.8333
            RECHARGE =           0.0000              RECHARGE =           0.0000
      STREAM LEAKAGE =    23967269.5461        STREAM LEAKAGE =       87539.5105

           TOTAL OUT =    32114399.0363             TOTAL OUT =      132059.3438

            IN - OUT =          -1.2310              IN - OUT =      -1.0338E-02

 PERCENT DISCREPANCY =          -0.00     PERCENT DISCREPANCY =          -0.00






         TIME SUMMARY AT END OF TIME STEP    1 IN STRESS PERIOD    2
                    SECONDS     MINUTES      HOURS       DAYS        YEARS
                    -----------------------------------------------------------
   TIME STEP LENGTH 7.86240E+06 1.31040E+05  2184.0      91.000     0.24914    
 STRESS PERIOD TIME 7.86240E+06 1.31040E+05  2184.0      91.000     0.24914    
         TOTAL TIME 1.58112E+07 2.63520E+05  4392.0      183.00     0.50103    
1
1
                            STRESS PERIOD NO.    3, LENGTH =   91.00000    
                            -----------------------------------------------

                              NUMBER OF TIME STEPS =     1

                               MULTIPLIER FOR DELT =     1.500

                            INITIAL TIME STEP SIZE =   91.00000    

 WELL NO.  LAYER   ROW   COL   STRESS RATE         
 --------------------------------------------------
      1      1     15     20     -0.1192E+05
      2      1     17     29     -0.1435E+05
      3      1     12     29      -6954.    
      4      1     12     26     -0.1129E+05

      4 WELLS

                 RECHARGE =   0.00000    

 REUSING STREAM SEGMENT DATA FROM LAST STRESS PERIOD
 
 SOLVING FOR HEAD 


     7 CALLS TO PCG ROUTINE FOR TIME STEP   1 IN STRESS PERIOD    3
    27 TOTAL ITERATIONS

 OUTPUT CONTROL FOR STRESS PERIOD    3   TIME STEP    1
    SAVE BUDGET
    SAVE HEAD FOR ALL LAYERS
    PRINT HEAD FOR ALL LAYERS
 UBDSV2 SAVING "STREAMFLOW OUT  " ON UNIT  50 AT TIME STEP  1, STRESS PERIOD   3



 STREAM LISTING     PERIOD      3   STEP        1

 LAYER ROW COL. STREAM  RCH.  FLOW INTO     FLOW TO   FLOW OUT OF   OVRLND.     DIRECT     STREAM       STREAM     STREAM     STREAM   STREAMBED  STREAMBED
                SEG.NO.  NO.  STRM. RCH.    AQUIFER    STRM. RCH.    RUNOFF     PRECIP       ET          HEAD       DEPTH      WIDTH   CONDCTNC.   GRADIENT

   1   13    1     1     1    1.0000E+05 -2.7776E+03   1.0278E+05  0.000E+00  0.000E+00  0.000E+00  4.84072E+01  1.459E-01  2.000E+01  2.000E+04 -1.389E-01
   1   13    2     1     2    1.0278E+05 -3.8879E+03   1.0667E+05  0.000E+00  0.000E+00  0.000E+00  4.79328E+01  1.487E-01  2.000E+01  2.000E+04 -1.944E-01
   1   14    3     1     3    1.0667E+05 -6.5705E+02   1.0732E+05  0.000E+00  0.000E+00  0.000E+00  4.74575E+01  1.506E-01  2.000E+01  2.000E+04 -3.285E-02
   1   15    4     1     4    1.0732E+05 -6.3974E+02   1.0796E+05  0.000E+00  0.000E+00  0.000E+00  4.69807E+01  1.512E-01  2.000E+01  2.000E+04 -3.199E-02
   1   16    5     1     5    1.0796E+05 -2.4522E+03   1.1041E+05  0.000E+00  0.000E+00  0.000E+00  4.65048E+01  1.525E-01  2.000E+01  2.000E+04 -1.226E-01
   1   16    6     1     6    1.1041E+05 -1.4989E+03   1.1191E+05  0.000E+00  0.000E+00  0.000E+00  4.60291E+01  1.541E-01  2.000E+01  2.000E+04 -7.494E-02
   1   16    7     1     7    1.1191E+05 -1.4602E+03   1.1337E+05  0.000E+00  0.000E+00  0.000E+00  4.55531E+01  1.554E-01  2.000E+01  2.000E+04 -7.301E-02
   1   16    8     1     8    1.1337E+05 -1.4448E+03   1.1482E+05  0.000E+00  0.000E+00  0.000E+00  4.50770E+01  1.566E-01  2.000E+01  2.000E+04 -7.224E-02
   1   16    9     1     9    1.1482E+05 -1.4218E+03   1.1624E+05  0.000E+00  0.000E+00  0.000E+00  4.46009E+01  1.577E-01  2.000E+01  2.000E+04 -7.109E-02
   1   16   10     1    10    1.1624E+05 -1.3867E+03   1.1763E+05  0.000E+00  0.000E+00  0.000E+00  4.41248E+01  1.589E-01  2.000E+01  2.000E+04 -6.933E-02
   1   16   11     1    11    1.1763E+05 -1.3653E+03   1.1899E+05  0.000E+00  0.000E+00  0.000E+00  4.36486E+01  1.600E-01  2.000E+01  2.000E+04 -6.826E-02
   1   16   12     1    12    1.1899E+05 -2.3426E+03   1.2133E+05  0.000E+00  0.000E+00  0.000E+00  4.31729E+01  1.615E-01  2.000E+01  2.000E+04 -1.171E-01
   1   15   13     1    13    1.2133E+05 -2.2628E+03   1.2360E+05  0.000E+00  0.000E+00  0.000E+00  4.26974E+01  1.634E-01  2.000E+01  2.000E+04 -1.131E-01
   1   14   14     1    14    1.2360E+05 -2.5576E+03   1.2616E+05  0.000E+00  0.000E+00  0.000E+00  4.22221E+01  1.653E-01  2.000E+01  2.000E+04 -1.279E-01
   1   13   15     1    15    1.2616E+05 -2.9098E+03   1.2907E+05  0.000E+00  0.000E+00  0.000E+00  4.17470E+01  1.674E-01  2.000E+01  2.000E+04 -1.455E-01
   1   12   16     1    16    1.2907E+05 -3.9420E+03   1.3301E+05  0.000E+00  0.000E+00  0.000E+00  4.12724E+01  1.701E-01  2.000E+01  2.000E+04 -1.971E-01
   1   12   17     1    17    1.3301E+05 -2.3289E+03   1.3534E+05  0.000E+00  0.000E+00  0.000E+00  4.07976E+01  1.726E-01  2.000E+01  2.000E+04 -1.164E-01
   1   12   18     1    18    1.3534E+05 -2.0606E+03   1.3740E+05  0.000E+00  0.000E+00  0.000E+00  4.03220E+01  1.742E-01  2.000E+01  2.000E+04 -1.030E-01
   1   12   19     1    19    1.3740E+05 -2.7061E+03   1.4010E+05  0.000E+00  0.000E+00  0.000E+00  3.98465E+01  1.761E-01  2.000E+01  2.000E+04 -1.353E-01
   1   13   20     1    20    1.4010E+05 -2.9666E+02   1.4040E+05  0.000E+00  0.000E+00  0.000E+00  3.93704E+01  1.772E-01  2.000E+01  2.000E+04 -1.483E-02
   1   14   21     1    21    1.4040E+05  1.2853E+03   1.3911E+05  0.000E+00  0.000E+00  0.000E+00  3.88927E+01  1.768E-01  2.000E+01  2.000E+04  6.426E-02
   1   14   22     1    22    1.3911E+05  5.2982E+03   1.3382E+05  0.000E+00  0.000E+00  0.000E+00  3.84130E+01  1.743E-01  2.000E+01  2.000E+04  2.649E-01
   1    9   30     2     1    5.0000E+04  6.4751E+02   4.9352E+04  0.000E+00  0.000E+00  0.000E+00  4.02404E+01  1.154E-01  2.000E+01  2.000E+04  3.238E-02
   1    9   29     2     2    4.9352E+04  3.4208E+02   4.9010E+04  0.000E+00  0.000E+00  0.000E+00  3.99897E+01  1.147E-01  2.000E+01  2.000E+04  1.710E-02
   1    9   28     2     3    4.9010E+04 -1.4653E+02   4.9157E+04  0.000E+00  0.000E+00  0.000E+00  3.97396E+01  1.146E-01  2.000E+01  2.000E+04 -7.327E-03
   1    9   27     2     4    4.9157E+04 -2.0810E+03   5.1238E+04  0.000E+00  0.000E+00  0.000E+00  3.94911E+01  1.161E-01  2.000E+01  2.000E+04 -1.040E-01
   1   10   26     2     5    5.1238E+04  1.1377E+03   5.0100E+04  0.000E+00  0.000E+00  0.000E+00  3.92418E+01  1.168E-01  2.000E+01  2.000E+04  5.689E-02
   1   11   25     2     6    5.0100E+04  2.5073E+03   4.7593E+04  0.000E+00  0.000E+00  0.000E+00  3.89893E+01  1.143E-01  2.000E+01  2.000E+04  1.254E-01
   1   12   24     2     7    4.7593E+04  3.5329E+02   4.7240E+04  0.000E+00  0.000E+00  0.000E+00  3.87372E+01  1.122E-01  2.000E+01  2.000E+04  1.766E-02
   1   13   23     2     8    4.7240E+04 -2.1732E+02   4.7457E+04  0.000E+00  0.000E+00  0.000E+00  3.84871E+01  1.121E-01  2.000E+01  2.000E+04 -1.087E-02
   1   14   22     2     9    4.7457E+04  1.7599E+03   4.5697E+04  0.000E+00  0.000E+00  0.000E+00  3.82360E+01  1.110E-01  2.000E+01  2.000E+04  8.800E-02
   1   14   22     3     1    1.7951E+05 -8.3919E+03   1.8790E+05  0.000E+00  0.000E+00  0.000E+00  3.77284E+01  1.729E-01  2.000E+01  2.000E+04 -4.196E-01
   1   15   23     3     2    1.8790E+05 -3.5825E+02   1.8826E+05  0.000E+00  0.000E+00  0.000E+00  3.68420E+01  1.754E-01  2.000E+01  2.000E+04 -1.791E-02
   1   15   24     3     3    1.8826E+05 -2.5779E+02   1.8852E+05  0.000E+00  0.000E+00  0.000E+00  3.59533E+01  1.755E-01  2.000E+01  2.000E+04 -1.289E-02
   1   15   25     3     4    1.8852E+05 -1.9688E+02   1.8872E+05  0.000E+00  0.000E+00  0.000E+00  3.50645E+01  1.757E-01  2.000E+01  2.000E+04 -9.844E-03
   1   15   26     3     5    1.8872E+05  3.0561E+01   1.8869E+05  0.000E+00  0.000E+00  0.000E+00  3.41757E+01  1.757E-01  2.000E+01  2.000E+04  1.528E-03
   1   16   27     3     6    1.8869E+05  1.6312E+02   1.8852E+05  0.000E+00  0.000E+00  0.000E+00  3.32868E+01  1.756E-01  2.000E+01  2.000E+04  8.156E-03
   1   17   28     3     7    1.8852E+05  5.2673E+03   1.8326E+05  0.000E+00  0.000E+00  0.000E+00  3.23963E+01  1.741E-01  2.000E+01  2.000E+04  2.634E-01
   1   18   29     3     8    1.8326E+05  1.6474E+03   1.8161E+05  0.000E+00  0.000E+00  0.000E+00  3.15055E+01  1.722E-01  2.000E+01  2.000E+04  8.237E-02
   1   18   30     3     9    1.8161E+05 -5.7709E+02   1.8219E+05  0.000E+00  0.000E+00  0.000E+00  3.06163E+01  1.719E-01  2.000E+01  2.000E+04 -2.885E-02



1
              HEAD IN LAYER   1 AT END OF TIME STEP   1 IN STRESS PERIOD    3
  ---------------------------------------------------------------------------

          1      2      3      4      5      6      7      8      9     10
         11     12     13     14     15     16     17     18     19     20
         21     22     23     24     25     26     27     28     29     30
 .........................................................................
   1  ****** ****** ****** ****** ****** ****** ****** ****** ****** ******
      ****** ****** ****** ****** ****** ****** ****** ****** ****** ******
      ****** ****** ****** ****** ****** ****** ****** ****** ****** ******
   2  ****** ****** ****** ****** ****** ****** ****** ****** ****** ******
      ****** ****** ****** ****** ****** ****** ****** ****** ****** ******
      ****** ****** ****** ****** ****** ****** ****** ****** ****** ******
   3  ****** ****** ****** ****** ****** ****** ****** ****** ****** ******
      ****** ****** ****** ****** ****** ****** ****** ****** ****** ******
      ****** ****** ****** ****** ****** ****** ****** ****** ****** ******
   4  ****** ****** ****** ****** ****** ****** ****** ****** ****** ******
      ****** ****** ****** ****** ****** ****** ****** ****** ****** ******
      ****** ****** ****** ****** ****** ****** ****** ****** ****** ******
   5  ****** ****** ****** ****** ****** ****** ****** ****** ****** ******
      ****** ****** ****** ****** ****** ****** ****** ****** ****** ******
      ****** ****** ****** ****** ****** ****** ****** ****** ****** ******
   6  ****** ****** ****** ****** ****** ****** ****** ****** ****** ******
      ****** ****** ****** ****** ****** ****** ****** ****** ****** ******
      ****** ****** ****** ****** ****** ****** ****** ****** ****** ******
   7  ****** ****** ****** ****** ****** ****** ****** ****** ****** ******
      ****** ****** ****** ****** ****** ****** ****** ****** ****** ******
      ****** ****** ****** ****** ****** ****** ****** ****** ****** ******
   8  ****** ****** ****** ****** ****** ****** ****** ****** ****** ******
      ****** ****** ****** ****** ****** ****** ****** ****** ****** ******
      ****** ****** ****** ****** ****** ****** ****** ****** ****** ******
   9  ****** ****** ****** ****** ****** ****** ****** ****** ****** ******
      ****** ****** ****** ****** ****** ****** ****** ****** ****** ******
      ****** ****** ****** ****** ****** ****** ****** ****** ****** ******
  10  ****** ****** ****** ****** ****** ****** ****** ****** ****** ******
      ****** ****** ****** ****** ****** ****** ****** ****** ****** ******
      ****** ****** ****** ****** ****** ****** ****** ****** ****** ******
  11  ****** ****** ****** ****** ****** ****** ****** ****** ****** ******
      ****** ****** ****** ****** ****** ****** ****** ****** ****** ******
      ****** ****** ****** ****** ****** ****** ****** ****** ****** ******
  12  ****** ****** ****** ****** ****** ****** ****** ****** ****** ******
      ****** ****** ****** ****** ****** ****** ****** ****** ****** ******
      ****** ****** ****** ****** ****** ****** ****** ****** ****** ******
  13  ****** ****** ****** ****** ****** ****** ****** ****** ****** ******
      ****** ****** ****** ****** ****** ****** ****** ****** ****** ******
      ****** ****** ****** ****** ****** ****** ****** ****** ****** ******
  14  ****** ****** ****** ****** ****** ****** ****** ****** ****** ******
      ****** ****** ****** ****** ****** ****** ****** ****** ****** ******
      ****** ****** ****** ****** ****** ****** ****** ****** ****** ******
  15  ****** ****** ****** ****** ****** ****** ****** ****** ****** ******
      ****** ****** ****** ****** ****** ****** ****** ****** ****** ******
      ****** ****** ****** ****** ****** ****** ****** ****** ****** ******
  16  ****** ****** ****** ****** ****** ****** ****** ****** ****** ******
      ****** ****** ****** ****** ****** ****** ****** ****** ****** ******
      ****** ****** ****** ****** ****** ****** ****** ****** ****** ******
  17  ****** ****** ****** ****** ****** ****** ****** ****** ****** ******
      ****** ****** ****** ****** ****** ****** ****** ****** ****** ******
      ****** ****** ****** ****** ****** ****** ****** ****** ****** ******
  18  ****** ****** ****** ****** ****** ****** ****** ****** ****** ******
      ****** ****** ****** ****** ****** ****** ****** ****** ****** ******
      ****** ****** ****** ****** ****** ****** ****** ****** ****** ******
  19  ****** ****** ****** ****** ****** ****** ****** ****** ****** ******
      ****** ****** ****** ****** ****** ****** ****** ****** ****** ******
      ****** ****** ****** ****** ****** ****** ****** ****** ****** ******
  20  ****** ****** ****** ****** ****** ****** ****** ****** ****** ******
      ****** ****** ****** ****** ****** ****** ****** ****** ****** ******
      ****** ****** ****** ****** ****** ****** ****** ****** ****** ******
  21  ****** ****** ****** ****** ****** ****** ****** ****** ****** ******
      ****** ****** ****** ****** ****** ****** ****** ****** ****** ******
      ****** ****** ****** ****** ****** ****** ****** ****** ****** ******
  22  ****** ****** ****** ****** ****** ****** ****** ****** ****** ******
      ****** ****** ****** ****** ****** ****** ****** ****** ****** ******
      ****** ****** ****** ****** ****** ****** ****** ****** ****** ******
  23  ****** ****** ****** ****** ****** ****** ****** ****** ****** ******
      ****** ****** ****** ****** ****** ****** ****** ****** ****** ******
      ****** ****** ****** ****** ****** ****** ****** ****** ****** ******
  24  ****** ****** ****** ****** ****** ****** ****** ****** ****** ******
      ****** ****** ****** ****** ****** ****** ****** ****** ****** ******
      ****** ****** ****** ****** ****** ****** ****** ****** ****** ******
  25  ****** ****** ****** ****** ****** ****** ****** ****** ****** ******
      ****** ****** ****** ****** ****** ****** ****** ****** ****** ******
      ****** ****** ****** ****** ****** ****** ****** ****** ****** ******

 HEAD WILL BE SAVED ON UNIT   51 AT END OF TIME STEP    1, STRESS PERIOD    3
1
  VOLUMETRIC BUDGET FOR ENTIRE MODEL AT END OF TIME STEP    1, STRESS PERIOD   3
  ------------------------------------------------------------------------------

     CUMULATIVE VOLUMES      L**3       RATES FOR THIS TIME STEP      L**3/T
     ------------------                 ------------------------

           IN:                                      IN:
           ---                                      ---
             STORAGE =    26662289.5055               STORAGE =       52649.3378
       CONSTANT HEAD =     4732485.5199         CONSTANT HEAD =       24056.9330
               WELLS =           0.0000                 WELLS =           0.0000
            RECHARGE =     6292800.0000              RECHARGE =           0.0000
      STREAM LEAKAGE =     3267114.4392        STREAM LEAKAGE =       20439.7914

            TOTAL IN =    40954689.4646              TOTAL IN =       97146.0622

          OUT:                                     OUT:
          ----                                     ----
             STORAGE =           0.0000               STORAGE =           0.0000
       CONSTANT HEAD =           0.0000         CONSTANT HEAD =           0.0000
               WELLS =    12198434.3186                 WELLS =       44519.8333
            RECHARGE =           0.0000              RECHARGE =           0.0000
      STREAM LEAKAGE =    28756257.0532        STREAM LEAKAGE =       52626.2363

           TOTAL OUT =    40954691.3718             TOTAL OUT =       97146.0696

            IN - OUT =          -1.9073              IN - OUT =      -7.4311E-03

 PERCENT DISCREPANCY =          -0.00     PERCENT DISCREPANCY =          -0.00






         TIME SUMMARY AT END OF TIME STEP    1 IN STRESS PERIOD    3
                    SECONDS     MINUTES      HOURS       DAYS        YEARS
                    -----------------------------------------------------------
   TIME STEP LENGTH 7.86240E+06 1.31040E+05  2184.0      91.000     0.24914    
 STRESS PERIOD TIME 7.86240E+06 1.31040E+05  2184.0      91.000     0.24914    
         TOTAL TIME 2.36736E+07 3.94560E+05  6576.0      274.00     0.75017    
1
1
                            STRESS PERIOD NO.    4, LENGTH =   91.00000    
                            -----------------------------------------------

                              NUMBER OF TIME STEPS =     1

                               MULTIPLIER FOR DELT =     1.500

                            INITIAL TIME STEP SIZE =   91.00000    

 WELL NO.  LAYER   ROW   COL   STRESS RATE         
 --------------------------------------------------
      1      1     15     20     -0.1192E+05
      2      1     17     29     -0.1435E+05
      3      1     12     29      -6954.    
      4      1     12     26     -0.1129E+05

      4 WELLS

                 RECHARGE =  1.000000E-03

 REUSING STREAM SEGMENT DATA FROM LAST STRESS PERIOD
 
 SOLVING FOR HEAD 


     7 CALLS TO PCG ROUTINE FOR TIME STEP   1 IN STRESS PERIOD    4
    24 TOTAL ITERATIONS

 OUTPUT CONTROL FOR STRESS PERIOD    4   TIME STEP    1
    SAVE BUDGET
    SAVE HEAD FOR ALL LAYERS
    PRINT HEAD FOR ALL LAYERS
 UBDSV2 SAVING "STREAMFLOW OUT  " ON UNIT  50 AT TIME STEP  1, STRESS PERIOD   4



 STREAM LISTING     PERIOD      4   STEP        1

 LAYER ROW COL. STREAM  RCH.  FLOW INTO     FLOW TO   FLOW OUT OF   OVRLND.     DIRECT     STREAM       STREAM     STREAM     STREAM   STREAMBED  STREAMBED
                SEG.NO.  NO.  STRM. RCH.    AQUIFER    STRM. RCH.    RUNOFF     PRECIP       ET          HEAD       DEPTH      WIDTH   CONDCTNC.   GRADIENT

   1   13    1     1     1    1.0000E+05 -2.5562E+03   1.0256E+05  0.000E+00  0.000E+00  0.000E+00  4.84071E+01  1.458E-01  2.000E+01  2.000E+04 -1.278E-01
   1   13    2     1     2    1.0256E+05 -3.6299E+03   1.0619E+05  0.000E+00  0.000E+00  0.000E+00  4.79325E+01  1.484E-01  2.000E+01  2.000E+04 -1.815E-01
   1   14    3     1     3    1.0619E+05 -6.3025E+02   1.0682E+05  0.000E+00  0.000E+00  0.000E+00  4.74570E+01  1.502E-01  2.000E+01  2.000E+04 -3.151E-02
   1   15    4     1     4    1.0682E+05 -6.0276E+02   1.0742E+05  0.000E+00  0.000E+00  0.000E+00  4.69803E+01  1.507E-01  2.000E+01  2.000E+04 -3.014E-02
   1   16    5     1     5    1.0742E+05 -2.1524E+03   1.0957E+05  0.000E+00  0.000E+00  0.000E+00  4.65042E+01  1.519E-01  2.000E+01  2.000E+04 -1.076E-01
   1   16    6     1     6    1.0957E+05 -1.3521E+03   1.1092E+05  0.000E+00  0.000E+00  0.000E+00  4.60284E+01  1.534E-01  2.000E+01  2.000E+04 -6.761E-02
   1   16    7     1     7    1.1092E+05 -1.3248E+03   1.1225E+05  0.000E+00  0.000E+00  0.000E+00  4.55522E+01  1.545E-01  2.000E+01  2.000E+04 -6.624E-02
   1   16    8     1     8    1.1225E+05 -1.3137E+03   1.1356E+05  0.000E+00  0.000E+00  0.000E+00  4.50760E+01  1.556E-01  2.000E+01  2.000E+04 -6.568E-02
   1   16    9     1     9    1.1356E+05 -1.2934E+03   1.1486E+05  0.000E+00  0.000E+00  0.000E+00  4.45998E+01  1.567E-01  2.000E+01  2.000E+04 -6.467E-02
   1   16   10     1    10    1.1486E+05 -1.2613E+03   1.1612E+05  0.000E+00  0.000E+00  0.000E+00  4.41236E+01  1.577E-01  2.000E+01  2.000E+04 -6.306E-02
   1   16   11     1    11    1.1612E+05 -1.2393E+03   1.1736E+05  0.000E+00  0.000E+00  0.000E+00  4.36474E+01  1.587E-01  2.000E+01  2.000E+04 -6.196E-02
   1   16   12     1    12    1.1736E+05 -2.0785E+03   1.1943E+05  0.000E+00  0.000E+00  0.000E+00  4.31714E+01  1.601E-01  2.000E+01  2.000E+04 -1.039E-01
   1   15   13     1    13    1.1943E+05 -2.0258E+03   1.2146E+05  0.000E+00  0.000E+00  0.000E+00  4.26958E+01  1.617E-01  2.000E+01  2.000E+04 -1.013E-01
   1   14   14     1    14    1.2146E+05 -2.3054E+03   1.2377E+05  0.000E+00  0.000E+00  0.000E+00  4.22203E+01  1.635E-01  2.000E+01  2.000E+04 -1.153E-01
   1   13   15     1    15    1.2377E+05 -2.6402E+03   1.2641E+05  0.000E+00  0.000E+00  0.000E+00  4.17450E+01  1.654E-01  2.000E+01  2.000E+04 -1.320E-01
   1   12   16     1    16    1.2641E+05 -3.5912E+03   1.3000E+05  0.000E+00  0.000E+00  0.000E+00  4.12702E+01  1.679E-01  2.000E+01  2.000E+04 -1.796E-01
   1   12   17     1    17    1.3000E+05 -2.1183E+03   1.3212E+05  0.000E+00  0.000E+00  0.000E+00  4.07951E+01  1.701E-01  2.000E+01  2.000E+04 -1.059E-01
   1   12   18     1    18    1.3212E+05 -1.8648E+03   1.3398E+05  0.000E+00  0.000E+00  0.000E+00  4.03194E+01  1.717E-01  2.000E+01  2.000E+04 -9.324E-02
   1   12   19     1    19    1.3398E+05 -2.4657E+03   1.3645E+05  0.000E+00  0.000E+00  0.000E+00  3.98438E+01  1.734E-01  2.000E+01  2.000E+04 -1.233E-01
   1   13   20     1    20    1.3645E+05 -1.3600E+02   1.3658E+05  0.000E+00  0.000E+00  0.000E+00  3.93675E+01  1.744E-01  2.000E+01  2.000E+04 -6.800E-03
   1   14   21     1    21    1.3658E+05  1.5178E+03   1.3506E+05  0.000E+00  0.000E+00  0.000E+00  3.88897E+01  1.738E-01  2.000E+01  2.000E+04  7.589E-02
   1   14   22     1    22    1.3506E+05  5.3351E+03   1.2973E+05  0.000E+00  0.000E+00  0.000E+00  3.84098E+01  1.712E-01  2.000E+01  2.000E+04  2.668E-01
   1    9   30     2     1    5.0000E+04  7.4019E+02   4.9260E+04  0.000E+00  0.000E+00  0.000E+00  4.02404E+01  1.154E-01  2.000E+01  2.000E+04  3.701E-02
   1    9   29     2     2    4.9260E+04  4.4029E+02   4.8820E+04  0.000E+00  0.000E+00  0.000E+00  3.99895E+01  1.145E-01  2.000E+01  2.000E+04  2.201E-02
   1    9   28     2     3    4.8820E+04 -3.1618E+01   4.8851E+04  0.000E+00  0.000E+00  0.000E+00  3.97392E+01  1.142E-01  2.000E+01  2.000E+04 -1.581E-03
   1    9   27     2     4    4.8851E+04 -1.8299E+03   5.0681E+04  0.000E+00  0.000E+00  0.000E+00  3.94905E+01  1.155E-01  2.000E+01  2.000E+04 -9.149E-02
   1   10   26     2     5    5.0681E+04  1.2896E+03   4.9391E+04  0.000E+00  0.000E+00  0.000E+00  3.92409E+01  1.159E-01  2.000E+01  2.000E+04  6.448E-02
   1   11   25     2     6    4.9391E+04  2.6207E+03   4.6771E+04  0.000E+00  0.000E+00  0.000E+00  3.89882E+01  1.132E-01  2.000E+01  2.000E+04  1.310E-01
   1   12   24     2     7    4.6771E+04  4.4469E+02   4.6326E+04  0.000E+00  0.000E+00  0.000E+00  3.87360E+01  1.110E-01  2.000E+01  2.000E+04  2.223E-02
   1   13   23     2     8    4.6326E+04 -2.4368E+02   4.6570E+04  0.000E+00  0.000E+00  0.000E+00  3.84859E+01  1.109E-01  2.000E+01  2.000E+04 -1.218E-02
   1   14   22     2     9    4.6570E+04  1.8331E+03   4.4737E+04  0.000E+00  0.000E+00  0.000E+00  3.82347E+01  1.097E-01  2.000E+01  2.000E+04  9.165E-02
   1   14   22     3     1    1.7447E+05 -8.3498E+03   1.8282E+05  0.000E+00  0.000E+00  0.000E+00  3.77256E+01  1.700E-01  2.000E+01  2.000E+04 -4.175E-01
   1   15   23     3     2    1.8282E+05 -3.3185E+02   1.8315E+05  0.000E+00  0.000E+00  0.000E+00  3.68391E+01  1.725E-01  2.000E+01  2.000E+04 -1.659E-02
   1   15   24     3     3    1.8315E+05 -2.5402E+02   1.8340E+05  0.000E+00  0.000E+00  0.000E+00  3.59504E+01  1.726E-01  2.000E+01  2.000E+04 -1.270E-02
   1   15   25     3     4    1.8340E+05 -1.9175E+02   1.8359E+05  0.000E+00  0.000E+00  0.000E+00  3.50617E+01  1.728E-01  2.000E+01  2.000E+04 -9.587E-03
   1   15   26     3     5    1.8359E+05  3.0322E+01   1.8356E+05  0.000E+00  0.000E+00  0.000E+00  3.41728E+01  1.728E-01  2.000E+01  2.000E+04  1.516E-03
   1   16   27     3     6    1.8356E+05  1.7081E+02   1.8339E+05  0.000E+00  0.000E+00  0.000E+00  3.32839E+01  1.728E-01  2.000E+01  2.000E+04  8.540E-03
   1   17   28     3     7    1.8339E+05  5.3605E+03   1.7803E+05  0.000E+00  0.000E+00  0.000E+00  3.23934E+01  1.712E-01  2.000E+01  2.000E+04  2.680E-01
   1   18   29     3     8    1.7803E+05  1.8810E+03   1.7615E+05  0.000E+00  0.000E+00  0.000E+00  3.15025E+01  1.691E-01  2.000E+01  2.000E+04  9.405E-02
   1   18   30     3     9    1.7615E+05 -4.5359E+02   1.7660E+05  0.000E+00  0.000E+00  0.000E+00  3.06132E+01  1.687E-01  2.000E+01  2.000E+04 -2.268E-02



1
              HEAD IN LAYER   1 AT END OF TIME STEP   1 IN STRESS PERIOD    4
  ---------------------------------------------------------------------------

          1      2      3      4      5      6      7      8      9     10
         11     12     13     14     15     16     17     18     19     20
         21     22     23     24     25     26     27     28     29     30
 .........................................................................
   1  ****** ****** ****** ****** ****** ****** ****** ****** ****** ******
      ****** ****** ****** ****** ****** ****** ****** ****** ****** ******
      ****** ****** ****** ****** ****** ****** ****** ****** ****** ******
   2  ****** ****** ****** ****** ****** ****** ****** ****** ****** ******
      ****** ****** ****** ****** ****** ****** ****** ****** ****** ******
      ****** ****** ****** ****** ****** ****** ****** ****** ****** ******
   3  ****** ****** ****** ****** ****** ****** ****** ****** ****** ******
      ****** ****** ****** ****** ****** ****** ****** ****** ****** ******
      ****** ****** ****** ****** ****** ****** ****** ****** ****** ******
   4  ****** ****** ****** ****** ****** ****** ****** ****** ****** ******
      ****** ****** ****** ****** ****** ****** ****** ****** ****** ******
      ****** ****** ****** ****** ****** ****** ****** ****** ****** ******
   5  ****** ****** ****** ****** ****** ****** ****** ****** ****** ******
      ****** ****** ****** ****** ****** ****** ****** ****** ****** ******
      ****** ****** ****** ****** ****** ****** ****** ****** ****** ******
   6  ****** ****** ****** ****** ****** ****** ****** ****** ****** ******
      ****** ****** ****** ****** ****** ****** ****** ****** ****** ******
      ****** ****** ****** ****** ****** ****** ****** ****** ****** ******
   7  ****** ****** ****** ****** ****** ****** ****** ****** ****** ******
      ****** ****** ****** ****** ****** ****** ****** ****** ****** ******
      ****** ****** ****** ****** ****** ****** ****** ****** ****** ******
   8  ****** ****** ****** ****** ****** ****** ****** ****** ****** ******
      ****** ****** ****** ****** ****** ****** ****** ****** ****** ******
      ****** ****** ****** ****** ****** ****** ****** ****** ****** ******
   9  ****** ****** ****** ****** ****** ****** ****** ****** ****** ******
      ****** ****** ****** ****** ****** ****** ****** ****** ****** ******
      ****** ****** ****** ****** ****** ****** ****** ****** ****** ******
  10  ****** ****** ****** ****** ****** ****** ****** ****** ****** ******
      ****** ****** ****** ****** ****** ****** ****** ****** ****** ******
      ****** ****** ****** ****** ****** ****** ****** ****** ****** ******
  11  ****** ****** ****** ****** ****** ****** ****** ****** ****** ******
      ****** ****** ****** ****** ****** ****** ****** ****** ****** ******
      ****** ****** ****** ****** ****** ****** ****** ****** ****** ******
  12  ****** ****** ****** ****** ****** ****** ****** ****** ****** ******
      ****** ****** ****** ****** ****** ****** ****** ****** ****** ******
      ****** ****** ****** ****** ****** ****** ****** ****** ****** ******
  13  ****** ****** ****** ****** ****** ****** ****** ****** ****** ******
      ****** ****** ****** ****** ****** ****** ****** ****** ****** ******
      ****** ****** ****** ****** ****** ****** ****** ****** ****** ******
  14  ****** ****** ****** ****** ****** ****** ****** ****** ****** ******
      ****** ****** ****** ****** ****** ****** ****** ****** ****** ******
      ****** ****** ****** ****** ****** ****** ****** ****** ****** ******
  15  ****** ****** ****** ****** ****** ****** ****** ****** ****** ******
      ****** ****** ****** ****** ****** ****** ****** ****** ****** ******
      ****** ****** ****** ****** ****** ****** ****** ****** ****** ******
  16  ****** ****** ****** ****** ****** ****** ****** ****** ****** ******
      ****** ****** ****** ****** ****** ****** ****** ****** ****** ******
      ****** ****** ****** ****** ****** ****** ****** ****** ****** ******
  17  ****** ****** ****** ****** ****** ****** ****** ****** ****** ******
      ****** ****** ****** ****** ****** ****** ****** ****** ****** ******
      ****** ****** ****** ****** ****** ****** ****** ****** ****** ******
  18  ****** ****** ****** ****** ****** ****** ****** ****** ****** ******
      ****** ****** ****** ****** ****** ****** ****** ****** ****** ******
      ****** ****** ****** ****** ****** ****** ****** ****** ****** ******
  19  ****** ****** ****** ****** ****** ****** ****** ****** ****** ******
      ****** ****** ****** ****** ****** ****** ****** ****** ****** ******
      ****** ****** ****** ****** ****** ****** ****** ****** ****** ******
  20  ****** ****** ****** ****** ****** ****** ****** ****** ****** ******
      ****** ****** ****** ****** ****** ****** ****** ****** ****** ******
      ****** ****** ****** ****** ****** ****** ****** ****** ****** ******
  21  ****** ****** ****** ****** ****** ****** ****** ****** ****** ******
      ****** ****** ****** ****** ****** ****** ****** ****** ****** ******
      ****** ****** ****** ****** ****** ****** ****** ****** ****** ******
  22  ****** ****** ****** ****** ****** ****** ****** ****** ****** ******
      ****** ****** ****** ****** ****** ****** ****** ****** ****** ******
      ****** ****** ****** ****** ****** ****** ****** ****** ****** ******
  23  ****** ****** ****** ****** ****** ****** ****** ****** ****** ******
      ****** ****** ****** ****** ****** ****** ****** ****** ****** ******
      ****** ****** ****** ****** ****** ****** ****** ****** ****** ******
  24  ****** ****** ****** ****** ****** ****** ****** ****** ****** ******
      ****** ****** ****** ****** ****** ****** ****** ****** ****** ******
      ****** ****** ****** ****** ****** ****** ****** ****** ****** ******
  25  ****** ****** ****** ****** ****** ****** ****** ****** ****** ******
      ****** ****** ****** ****** ****** ****** ****** ****** ****** ******
      ****** ****** ****** ****** ****** ****** ****** ****** ****** ******

 HEAD WILL BE SAVED ON UNIT   51 AT END OF TIME STEP    1, STRESS PERIOD    4
1
  VOLUMETRIC BUDGET FOR ENTIRE MODEL AT END OF TIME STEP    1, STRESS PERIOD   4
  ------------------------------------------------------------------------------

     CUMULATIVE VOLUMES      L**3       RATES FOR THIS TIME STEP      L**3/T
     ------------------                 ------------------------

           IN:                                      IN:
           ---                                      ---
             STORAGE =    28217804.1217               STORAGE =       17093.5672
       CONSTANT HEAD =     7137935.7028         CONSTANT HEAD =       26433.5185
               WELLS =           0.0000                 WELLS =           0.0000
            RECHARGE =     8804400.0000              RECHARGE =       27600.0000
      STREAM LEAKAGE =     5238548.1178        STREAM LEAKAGE =       21664.1064

            TOTAL IN =    49398687.9424              TOTAL IN =       92791.1921

          OUT:                                     OUT:
          ----                                     ----
             STORAGE =         292.8112               STORAGE =           3.2177
       CONSTANT HEAD =           0.0000         CONSTANT HEAD =           0.0000
               WELLS =    16249739.1470                 WELLS =       44519.8333
            RECHARGE =           0.0000              RECHARGE =           0.0000
      STREAM LEAKAGE =    33148657.9948        STREAM LEAKAGE =       48268.1422

           TOTAL OUT =    49398689.9530             TOTAL OUT =       92791.1932

            IN - OUT =          -2.0106              IN - OUT =      -1.1352E-03

 PERCENT DISCREPANCY =          -0.00     PERCENT DISCREPANCY =          -0.00






         TIME SUMMARY AT END OF TIME STEP    1 IN STRESS PERIOD    4
                    SECONDS     MINUTES      HOURS       DAYS        YEARS
                    -----------------------------------------------------------
   TIME STEP LENGTH 7.86240E+06 1.31040E+05  2184.0      91.000     0.24914    
 STRESS PERIOD TIME 7.86240E+06 1.31040E+05  2184.0      91.000     0.24914    
         TOTAL TIME 3.15360E+07 5.25600E+05  8760.0      365.00     0.99932    
1
1
                            STRESS PERIOD NO.    5, LENGTH =   92.00000    
                            -----------------------------------------------

                              NUMBER OF TIME STEPS =     1

                               MULTIPLIER FOR DELT =     1.500

                            INITIAL TIME STEP SIZE =   92.00000    

 WELL NO.  LAYER   ROW   COL   STRESS RATE         
 --------------------------------------------------
      1      1     15     20     -0.1192E+05
      2      1     17     29     -0.1435E+05
      3      1     12     29      -6954.    
      4      1     12     26     -0.1129E+05

      4 WELLS

                 RECHARGE =  5.000000E-04

 REUSING STREAM SEGMENT DATA FROM LAST STRESS PERIOD
 
 SOLVING FOR HEAD 


     7 CALLS TO PCG ROUTINE FOR TIME STEP   1 IN STRESS PERIOD    5
    26 TOTAL ITERATIONS

 OUTPUT CONTROL FOR STRESS PERIOD    5   TIME STEP    1
    SAVE BUDGET
    SAVE HEAD FOR ALL LAYERS
    PRINT HEAD FOR ALL LAYERS
 UBDSV2 SAVING "STREAMFLOW OUT  " ON UNIT  50 AT TIME STEP  1, STRESS PERIOD   5



 STREAM LISTING     PERIOD      5   STEP        1

 LAYER ROW COL. STREAM  RCH.  FLOW INTO     FLOW TO   FLOW OUT OF   OVRLND.     DIRECT     STREAM       STREAM     STREAM     STREAM   STREAMBED  STREAMBED
                SEG.NO.  NO.  STRM. RCH.    AQUIFER    STRM. RCH.    RUNOFF     PRECIP       ET          HEAD       DEPTH      WIDTH   CONDCTNC.   GRADIENT

   1   13    1     1     1    1.0000E+05 -2.1538E+03   1.0215E+05  0.000E+00  0.000E+00  0.000E+00  4.84069E+01  1.456E-01  2.000E+01  2.000E+04 -1.077E-01
   1   13    2     1     2    1.0215E+05 -3.1750E+03   1.0533E+05  0.000E+00  0.000E+00  0.000E+00  4.79320E+01  1.479E-01  2.000E+01  2.000E+04 -1.587E-01
   1   14    3     1     3    1.0533E+05 -5.0976E+02   1.0584E+05  0.000E+00  0.000E+00  0.000E+00  4.74563E+01  1.494E-01  2.000E+01  2.000E+04 -2.549E-02
   1   15    4     1     4    1.0584E+05 -4.7540E+02   1.0631E+05  0.000E+00  0.000E+00  0.000E+00  4.69794E+01  1.499E-01  2.000E+01  2.000E+04 -2.377E-02
   1   16    5     1     5    1.0631E+05 -1.7239E+03   1.0804E+05  0.000E+00  0.000E+00  0.000E+00  4.65031E+01  1.508E-01  2.000E+01  2.000E+04 -8.620E-02
   1   16    6     1     6    1.0804E+05 -1.1018E+03   1.0914E+05  0.000E+00  0.000E+00  0.000E+00  4.60270E+01  1.520E-01  2.000E+01  2.000E+04 -5.509E-02
   1   16    7     1     7    1.0914E+05 -1.0851E+03   1.1022E+05  0.000E+00  0.000E+00  0.000E+00  4.55506E+01  1.529E-01  2.000E+01  2.000E+04 -5.425E-02
   1   16    8     1     8    1.1022E+05 -1.0776E+03   1.1130E+05  0.000E+00  0.000E+00  0.000E+00  4.50743E+01  1.538E-01  2.000E+01  2.000E+04 -5.388E-02
   1   16    9     1     9    1.1130E+05 -1.0603E+03   1.1236E+05  0.000E+00  0.000E+00  0.000E+00  4.45979E+01  1.547E-01  2.000E+01  2.000E+04 -5.301E-02
   1   16   10     1    10    1.1236E+05 -1.0315E+03   1.1339E+05  0.000E+00  0.000E+00  0.000E+00  4.41215E+01  1.556E-01  2.000E+01  2.000E+04 -5.157E-02
   1   16   11     1    11    1.1339E+05 -1.0087E+03   1.1440E+05  0.000E+00  0.000E+00  0.000E+00  4.36450E+01  1.564E-01  2.000E+01  2.000E+04 -5.043E-02
   1   16   12     1    12    1.1440E+05 -1.6668E+03   1.1607E+05  0.000E+00  0.000E+00  0.000E+00  4.31689E+01  1.575E-01  2.000E+01  2.000E+04 -8.334E-02
   1   15   13     1    13    1.1607E+05 -1.5972E+03   1.1767E+05  0.000E+00  0.000E+00  0.000E+00  4.26929E+01  1.588E-01  2.000E+01  2.000E+04 -7.986E-02
   1   14   14     1    14    1.1767E+05 -1.8535E+03   1.1952E+05  0.000E+00  0.000E+00  0.000E+00  4.22171E+01  1.602E-01  2.000E+01  2.000E+04 -9.267E-02
   1   13   15     1    15    1.1952E+05 -2.1751E+03   1.2170E+05  0.000E+00  0.000E+00  0.000E+00  4.17414E+01  1.619E-01  2.000E+01  2.000E+04 -1.088E-01
   1   12   16     1    16    1.2170E+05 -3.0882E+03   1.2478E+05  0.000E+00  0.000E+00  0.000E+00  4.12662E+01  1.640E-01  2.000E+01  2.000E+04 -1.544E-01
   1   12   17     1    17    1.2478E+05 -1.7782E+03   1.2656E+05  0.000E+00  0.000E+00  0.000E+00  4.07909E+01  1.659E-01  2.000E+01  2.000E+04 -8.891E-02
   1   12   18     1    18    1.2656E+05 -1.5405E+03   1.2810E+05  0.000E+00  0.000E+00  0.000E+00  4.03149E+01  1.672E-01  2.000E+01  2.000E+04 -7.703E-02
   1   12   19     1    19    1.2810E+05 -2.0740E+03   1.3018E+05  0.000E+00  0.000E+00  0.000E+00  3.98391E+01  1.686E-01  2.000E+01  2.000E+04 -1.037E-01
   1   13   20     1    20    1.3018E+05  2.1207E+02   1.2996E+05  0.000E+00  0.000E+00  0.000E+00  3.93625E+01  1.694E-01  2.000E+01  2.000E+04  1.060E-02
   1   14   21     1    21    1.2996E+05  1.8954E+03   1.2807E+05  0.000E+00  0.000E+00  0.000E+00  3.88845E+01  1.685E-01  2.000E+01  2.000E+04  9.477E-02
   1   14   22     1    22    1.2807E+05  5.4168E+03   1.2265E+05  0.000E+00  0.000E+00  0.000E+00  3.84043E+01  1.657E-01  2.000E+01  2.000E+04  2.708E-01
   1    9   30     2     1    5.0000E+04  9.6860E+02   4.9031E+04  0.000E+00  0.000E+00  0.000E+00  4.02402E+01  1.152E-01  2.000E+01  2.000E+04  4.843E-02
   1    9   29     2     2    4.9031E+04  6.7168E+02   4.8360E+04  0.000E+00  0.000E+00  0.000E+00  3.99890E+01  1.140E-01  2.000E+01  2.000E+04  3.358E-02
   1    9   28     2     3    4.8360E+04  2.1019E+02   4.8150E+04  0.000E+00  0.000E+00  0.000E+00  3.97384E+01  1.134E-01  2.000E+01  2.000E+04  1.051E-02
   1    9   27     2     4    4.8150E+04 -1.4538E+03   4.9603E+04  0.000E+00  0.000E+00  0.000E+00  3.94893E+01  1.143E-01  2.000E+01  2.000E+04 -7.269E-02
   1   10   26     2     5    4.9603E+04  1.6209E+03   4.7982E+04  0.000E+00  0.000E+00  0.000E+00  3.92392E+01  1.142E-01  2.000E+01  2.000E+04  8.104E-02
   1   11   25     2     6    4.7982E+04  2.9253E+03   4.5057E+04  0.000E+00  0.000E+00  0.000E+00  3.89860E+01  1.110E-01  2.000E+01  2.000E+04  1.463E-01
   1   12   24     2     7    4.5057E+04  7.2166E+02   4.4335E+04  0.000E+00  0.000E+00  0.000E+00  3.87333E+01  1.083E-01  2.000E+01  2.000E+04  3.608E-02
   1   13   23     2     8    4.4335E+04 -1.7624E+02   4.4512E+04  0.000E+00  0.000E+00  0.000E+00  3.84829E+01  1.079E-01  2.000E+01  2.000E+04 -8.812E-03
   1   14   22     2     9    4.4512E+04  1.9633E+03   4.2548E+04  0.000E+00  0.000E+00  0.000E+00  3.82316E+01  1.066E-01  2.000E+01  2.000E+04  9.817E-02
   1   14   22     3     1    1.6520E+05 -8.2651E+03   1.7347E+05  0.000E+00  0.000E+00  0.000E+00  3.77202E+01  1.646E-01  2.000E+01  2.000E+04 -4.133E-01
   1   15   23     3     2    1.7347E+05 -2.3212E+02   1.7370E+05  0.000E+00  0.000E+00  0.000E+00  3.68338E+01  1.671E-01  2.000E+01  2.000E+04 -1.161E-02
   1   15   24     3     3    1.7370E+05 -1.8063E+02   1.7388E+05  0.000E+00  0.000E+00  0.000E+00  3.59450E+01  1.672E-01  2.000E+01  2.000E+04 -9.031E-03
   1   15   25     3     4    1.7388E+05 -1.1869E+02   1.7400E+05  0.000E+00  0.000E+00  0.000E+00  3.50562E+01  1.673E-01  2.000E+01  2.000E+04 -5.934E-03
   1   15   26     3     5    1.7400E+05  1.0507E+02   1.7389E+05  0.000E+00  0.000E+00  0.000E+00  3.41673E+01  1.673E-01  2.000E+01  2.000E+04  5.253E-03
   1   16   27     3     6    1.7389E+05  2.6397E+02   1.7363E+05  0.000E+00  0.000E+00  0.000E+00  3.32783E+01  1.672E-01  2.000E+01  2.000E+04  1.320E-02
   1   17   28     3     7    1.7363E+05  5.6376E+03   1.6799E+05  0.000E+00  0.000E+00  0.000E+00  3.23877E+01  1.655E-01  2.000E+01  2.000E+04  2.819E-01
   1   18   29     3     8    1.6799E+05  2.2638E+03   1.6573E+05  0.000E+00  0.000E+00  0.000E+00  3.14965E+01  1.632E-01  2.000E+01  2.000E+04  1.132E-01
   1   18   30     3     9    1.6573E+05 -1.8952E+02   1.6592E+05  0.000E+00  0.000E+00  0.000E+00  3.06070E+01  1.626E-01  2.000E+01  2.000E+04 -9.476E-03



1
              HEAD IN LAYER   1 AT END OF TIME STEP   1 IN STRESS PERIOD    5
  ---------------------------------------------------------------------------

          1      2      3      4      5      6      7      8      9     10
         11     12     13     14     15     16     17     18     19     20
         21     22     23     24     25     26     27     28     29     30
 .........................................................................
   1  ****** ****** ****** ****** ****** ****** ****** ****** ****** ******
      ****** ****** ****** ****** ****** ****** ****** ****** ****** ******
      ****** ****** ****** ****** ****** ****** ****** ****** ****** ******
   2  ****** ****** ****** ****** ****** ****** ****** ****** ****** ******
      ****** ****** ****** ****** ****** ****** ****** ****** ****** ******
      ****** ****** ****** ****** ****** ****** ****** ****** ****** ******
   3  ****** ****** ****** ****** ****** ****** ****** ****** ****** ******
      ****** ****** ****** ****** ****** ****** ****** ****** ****** ******
      ****** ****** ****** ****** ****** ****** ****** ****** ****** ******
   4  ****** ****** ****** ****** ****** ****** ****** ****** ****** ******
      ****** ****** ****** ****** ****** ****** ****** ****** ****** ******
      ****** ****** ****** ****** ****** ****** ****** ****** ****** ******
   5  ****** ****** ****** ****** ****** ****** ****** ****** ****** ******
      ****** ****** ****** ****** ****** ****** ****** ****** ****** ******
      ****** ****** ****** ****** ****** ****** ****** ****** ****** ******
   6  ****** ****** ****** ****** ****** ****** ****** ****** ****** ******
      ****** ****** ****** ****** ****** ****** ****** ****** ****** ******
      ****** ****** ****** ****** ****** ****** ****** ****** ****** ******
   7  ****** ****** ****** ****** ****** ****** ****** ****** ****** ******
      ****** ****** ****** ****** ****** ****** ****** ****** ****** ******
      ****** ****** ****** ****** ****** ****** ****** ****** ****** ******
   8  ****** ****** ****** ****** ****** ****** ****** ****** ****** ******
      ****** ****** ****** ****** ****** ****** ****** ****** ****** ******
      ****** ****** ****** ****** ****** ****** ****** ****** ****** ******
   9  ****** ****** ****** ****** ****** ****** ****** ****** ****** ******
      ****** ****** ****** ****** ****** ****** ****** ****** ****** ******
      ****** ****** ****** ****** ****** ****** ****** ****** ****** ******
  10  ****** ****** ****** ****** ****** ****** ****** ****** ****** ******
      ****** ****** ****** ****** ****** ****** ****** ****** ****** ******
      ****** ****** ****** ****** ****** ****** ****** ****** ****** ******
  11  ****** ****** ****** ****** ****** ****** ****** ****** ****** ******
      ****** ****** ****** ****** ****** ****** ****** ****** ****** ******
      ****** ****** ****** ****** ****** ****** ****** ****** ****** ******
  12  ****** ****** ****** ****** ****** ****** ****** ****** ****** ******
      ****** ****** ****** ****** ****** ****** ****** ****** ****** ******
      ****** ****** ****** ****** ****** ****** ****** ****** ****** ******
  13  ****** ****** ****** ****** ****** ****** ****** ****** ****** ******
      ****** ****** ****** ****** ****** ****** ****** ****** ****** ******
      ****** ****** ****** ****** ****** ****** ****** ****** ****** ******
  14  ****** ****** ****** ****** ****** ****** ****** ****** ****** ******
      ****** ****** ****** ****** ****** ****** ****** ****** ****** ******
      ****** ****** ****** ****** ****** ****** ****** ****** ****** ******
  15  ****** ****** ****** ****** ****** ****** ****** ****** ****** ******
      ****** ****** ****** ****** ****** ****** ****** ****** ****** ******
      ****** ****** ****** ****** ****** ****** ****** ****** ****** ******
  16  ****** ****** ****** ****** ****** ****** ****** ****** ****** ******
      ****** ****** ****** ****** ****** ****** ****** ****** ****** ******
      ****** ****** ****** ****** ****** ****** ****** ****** ****** ******
  17  ****** ****** ****** ****** ****** ****** ****** ****** ****** ******
      ****** ****** ****** ****** ****** ****** ****** ****** ****** ******
      ****** ****** ****** ****** ****** ****** ****** ****** ****** ******
  18  ****** ****** ****** ****** ****** ****** ****** ****** ****** ******
      ****** ****** ****** ****** ****** ****** ****** ****** ****** ******
      ****** ****** ****** ****** ****** ****** ****** ****** ****** ******
  19  ****** ****** ****** ****** ****** ****** ****** ****** ****** ******
      ****** ****** ****** ****** ****** ****** ****** ****** ****** ******
      ****** ****** ****** ****** ****** ****** ****** ****** ****** ******
  20  ****** ****** ****** ****** ****** ****** ****** ****** ****** ******
      ****** ****** ****** ****** ****** ****** ****** ****** ****** ******
      ****** ****** ****** ****** ****** ****** ****** ****** ****** ******
  21  ****** ****** ****** ****** ****** ****** ****** ****** ****** ******
      ****** ****** ****** ****** ****** ****** ****** ****** ****** ******
      ****** ****** ****** ****** ****** ****** ****** ****** ****** ******
  22  ****** ****** ****** ****** ****** ****** ****** ****** ****** ******
      ****** ****** ****** ****** ****** ****** ****** ****** ****** ******
      ****** ****** ****** ****** ****** ****** ****** ****** ****** ******
  23  ****** ****** ****** ****** ****** ****** ****** ****** ****** ******
      ****** ****** ****** ****** ****** ****** ****** ****** ****** ******
      ****** ****** ****** ****** ****** ****** ****** ****** ****** ******
  24  ****** ****** ****** ****** ****** ****** ****** ****** ****** ******
      ****** ****** ****** ****** ****** ****** ****** ****** ****** ******
      ****** ****** ****** ****** ****** ****** ****** ****** ****** ******
  25  ****** ****** ****** ****** ****** ****** ****** ****** ****** ******
      ****** ****** ****** ****** ****** ****** ****** ****** ****** ******
      ****** ****** ****** ****** ****** ****** ****** ****** ****** ******

 HEAD WILL BE SAVED ON UNIT   51 AT END OF TIME STEP    1, STRESS PERIOD    5
1
  VOLUMETRIC BUDGET FOR ENTIRE MODEL AT END OF TIME STEP    1, STRESS PERIOD   5
  ------------------------------------------------------------------------------

     CUMULATIVE VOLUMES      L**3       RATES FOR THIS TIME STEP      L**3/T
     ------------------                 ------------------------

           IN:                                      IN:
           ---                                      ---
             STORAGE =    29820004.3487               STORAGE =       17415.2199
       CONSTANT HEAD =     9826231.0409         CONSTANT HEAD =       29220.6015
               WELLS =           0.0000                 WELLS =           0.0000
            RECHARGE =    10074000.0000              RECHARGE =       13800.0000
      STREAM LEAKAGE =     7527179.7919        STREAM LEAKAGE =       24876.4312

            TOTAL IN =    57247415.1815              TOTAL IN =       85312.2526

          OUT:                                     OUT:
          ----                                     ----
             STORAGE =         292.8112               STORAGE =           0.0000
       CONSTANT HEAD =           0.0000         CONSTANT HEAD =           0.0000
               WELLS =    20345563.8087                 WELLS =       44519.8333
            RECHARGE =           0.0000              RECHARGE =           0.0000
      STREAM LEAKAGE =    36901560.8425        STREAM LEAKAGE =       40792.4223

           TOTAL OUT =    57247417.4624             TOTAL OUT =       85312.2555

            IN - OUT =          -2.2809              IN - OUT =      -2.9387E-03

 PERCENT DISCREPANCY =          -0.00     PERCENT DISCREPANCY =          -0.00






         TIME SUMMARY AT END OF TIME STEP    1 IN STRESS PERIOD    5
                    SECONDS     MINUTES      HOURS       DAYS        YEARS
                    -----------------------------------------------------------
   TIME STEP LENGTH 7.94880E+06 1.32480E+05  2208.0      92.000     0.25188    
 STRESS PERIOD TIME 7.94880E+06 1.32480E+05  2208.0      92.000     0.25188    
         TOTAL TIME 3.94848E+07 6.58080E+05  10968.      457.00      1.2512    
1
1
                            STRESS PERIOD NO.    6, LENGTH =   91.00000    
                            -----------------------------------------------

                              NUMBER OF TIME STEPS =     1

                               MULTIPLIER FOR DELT =     1.500

                            INITIAL TIME STEP SIZE =   91.00000    

 WELL NO.  LAYER   ROW   COL   STRESS RATE         
 --------------------------------------------------
      1      1     15     20     -0.1192E+05
      2      1     17     29     -0.1435E+05
      3      1     12     29      -6954.    
      4      1     12     26     -0.1129E+05

      4 WELLS

                 RECHARGE =  2.000000E-03

 REUSING STREAM SEGMENT DATA FROM LAST STRESS PERIOD
 
 SOLVING FOR HEAD 


     7 CALLS TO PCG ROUTINE FOR TIME STEP   1 IN STRESS PERIOD    6
    26 TOTAL ITERATIONS

 OUTPUT CONTROL FOR STRESS PERIOD    6   TIME STEP    1
    SAVE BUDGET
    SAVE HEAD FOR ALL LAYERS
    PRINT HEAD FOR ALL LAYERS
 UBDSV2 SAVING "STREAMFLOW OUT  " ON UNIT  50 AT TIME STEP  1, STRESS PERIOD   6



 STREAM LISTING     PERIOD      6   STEP        1

 LAYER ROW COL. STREAM  RCH.  FLOW INTO     FLOW TO   FLOW OUT OF   OVRLND.     DIRECT     STREAM       STREAM     STREAM     STREAM   STREAMBED  STREAMBED
                SEG.NO.  NO.  STRM. RCH.    AQUIFER    STRM. RCH.    RUNOFF     PRECIP       ET          HEAD       DEPTH      WIDTH   CONDCTNC.   GRADIENT

   1   13    1     1     1    1.0000E+05 -2.4793E+03   1.0248E+05  0.000E+00  0.000E+00  0.000E+00  4.84071E+01  1.457E-01  2.000E+01  2.000E+04 -1.240E-01
   1   13    2     1     2    1.0248E+05 -3.5319E+03   1.0601E+05  0.000E+00  0.000E+00  0.000E+00  4.79324E+01  1.483E-01  2.000E+01  2.000E+04 -1.766E-01
   1   14    3     1     3    1.0601E+05 -6.6624E+02   1.0668E+05  0.000E+00  0.000E+00  0.000E+00  4.74569E+01  1.501E-01  2.000E+01  2.000E+04 -3.331E-02
   1   15    4     1     4    1.0668E+05 -6.4303E+02   1.0732E+05  0.000E+00  0.000E+00  0.000E+00  4.69802E+01  1.506E-01  2.000E+01  2.000E+04 -3.215E-02
   1   16    5     1     5    1.0732E+05 -2.2222E+03   1.0954E+05  0.000E+00  0.000E+00  0.000E+00  4.65041E+01  1.519E-01  2.000E+01  2.000E+04 -1.111E-01
   1   16    6     1     6    1.0954E+05 -1.3947E+03   1.1094E+05  0.000E+00  0.000E+00  0.000E+00  4.60284E+01  1.534E-01  2.000E+01  2.000E+04 -6.973E-02
   1   16    7     1     7    1.1094E+05 -1.3627E+03   1.1230E+05  0.000E+00  0.000E+00  0.000E+00  4.55522E+01  1.545E-01  2.000E+01  2.000E+04 -6.814E-02
   1   16    8     1     8    1.1230E+05 -1.3508E+03   1.1365E+05  0.000E+00  0.000E+00  0.000E+00  4.50761E+01  1.556E-01  2.000E+01  2.000E+04 -6.754E-02
   1   16    9     1     9    1.1365E+05 -1.3330E+03   1.1498E+05  0.000E+00  0.000E+00  0.000E+00  4.45999E+01  1.567E-01  2.000E+01  2.000E+04 -6.665E-02
   1   16   10     1    10    1.1498E+05 -1.3056E+03   1.1629E+05  0.000E+00  0.000E+00  0.000E+00  4.41237E+01  1.578E-01  2.000E+01  2.000E+04 -6.528E-02
   1   16   11     1    11    1.1629E+05 -1.2859E+03   1.1758E+05  0.000E+00  0.000E+00  0.000E+00  4.36475E+01  1.589E-01  2.000E+01  2.000E+04 -6.429E-02
   1   16   12     1    12    1.1758E+05 -2.1155E+03   1.1969E+05  0.000E+00  0.000E+00  0.000E+00  4.31716E+01  1.603E-01  2.000E+01  2.000E+04 -1.058E-01
   1   15   13     1    13    1.1969E+05 -2.0591E+03   1.2175E+05  0.000E+00  0.000E+00  0.000E+00  4.26960E+01  1.620E-01  2.000E+01  2.000E+04 -1.030E-01
   1   14   14     1    14    1.2175E+05 -2.3131E+03   1.2406E+05  0.000E+00  0.000E+00  0.000E+00  4.22205E+01  1.637E-01  2.000E+01  2.000E+04 -1.157E-01
   1   13   15     1    15    1.2406E+05 -2.6179E+03   1.2668E+05  0.000E+00  0.000E+00  0.000E+00  4.17452E+01  1.657E-01  2.000E+01  2.000E+04 -1.309E-01
   1   12   16     1    16    1.2668E+05 -3.4896E+03   1.3017E+05  0.000E+00  0.000E+00  0.000E+00  4.12704E+01  1.681E-01  2.000E+01  2.000E+04 -1.745E-01
   1   12   17     1    17    1.3017E+05 -2.1013E+03   1.3227E+05  0.000E+00  0.000E+00  0.000E+00  4.07953E+01  1.703E-01  2.000E+01  2.000E+04 -1.051E-01
   1   12   18     1    18    1.3227E+05 -1.8665E+03   1.3414E+05  0.000E+00  0.000E+00  0.000E+00  4.03195E+01  1.718E-01  2.000E+01  2.000E+04 -9.332E-02
   1   12   19     1    19    1.3414E+05 -2.4792E+03   1.3662E+05  0.000E+00  0.000E+00  0.000E+00  3.98439E+01  1.735E-01  2.000E+01  2.000E+04 -1.240E-01
   1   13   20     1    20    1.3662E+05 -2.1528E+02   1.3683E+05  0.000E+00  0.000E+00  0.000E+00  3.93677E+01  1.745E-01  2.000E+01  2.000E+04 -1.076E-02
   1   14   21     1    21    1.3683E+05  1.4813E+03   1.3535E+05  0.000E+00  0.000E+00  0.000E+00  3.88899E+01  1.740E-01  2.000E+01  2.000E+04  7.407E-02
   1   14   22     1    22    1.3535E+05  5.3054E+03   1.3005E+05  0.000E+00  0.000E+00  0.000E+00  3.84100E+01  1.714E-01  2.000E+01  2.000E+04  2.653E-01
   1    9   30     2     1    5.0000E+04  6.0179E+02   4.9398E+04  0.000E+00  0.000E+00  0.000E+00  4.02404E+01  1.154E-01  2.000E+01  2.000E+04  3.009E-02
   1    9   29     2     2    4.9398E+04  3.0896E+02   4.9089E+04  0.000E+00  0.000E+00  0.000E+00  3.99898E+01  1.148E-01  2.000E+01  2.000E+04  1.545E-02
   1    9   28     2     3    4.9089E+04 -1.4648E+02   4.9236E+04  0.000E+00  0.000E+00  0.000E+00  3.97397E+01  1.147E-01  2.000E+01  2.000E+04 -7.324E-03
   1    9   27     2     4    4.9236E+04 -1.9082E+03   5.1144E+04  0.000E+00  0.000E+00  0.000E+00  3.94911E+01  1.161E-01  2.000E+01  2.000E+04 -9.541E-02
   1   10   26     2     5    5.1144E+04  1.1445E+03   5.0000E+04  0.000E+00  0.000E+00  0.000E+00  3.92417E+01  1.167E-01  2.000E+01  2.000E+04  5.722E-02
   1   11   25     2     6    5.0000E+04  2.4643E+03   4.7535E+04  0.000E+00  0.000E+00  0.000E+00  3.89891E+01  1.141E-01  2.000E+01  2.000E+04  1.232E-01
   1   12   24     2     7    4.7535E+04  3.0571E+02   4.7229E+04  0.000E+00  0.000E+00  0.000E+00  3.87372E+01  1.122E-01  2.000E+01  2.000E+04  1.529E-02
   1   13   23     2     8    4.7229E+04 -3.1494E+02   4.7544E+04  0.000E+00  0.000E+00  0.000E+00  3.84872E+01  1.122E-01  2.000E+01  2.000E+04 -1.575E-02
   1   14   22     2     9    4.7544E+04  1.8267E+03   4.5718E+04  0.000E+00  0.000E+00  0.000E+00  3.82361E+01  1.111E-01  2.000E+01  2.000E+04  9.133E-02
   1   14   22     3     1    1.7576E+05 -8.3693E+03   1.8413E+05  0.000E+00  0.000E+00  0.000E+00  3.77263E+01  1.708E-01  2.000E+01  2.000E+04 -4.185E-01
   1   15   23     3     2    1.8413E+05 -3.6940E+02   1.8450E+05  0.000E+00  0.000E+00  0.000E+00  3.68399E+01  1.732E-01  2.000E+01  2.000E+04 -1.847E-02
   1   15   24     3     3    1.8450E+05 -3.0240E+02   1.8481E+05  0.000E+00  0.000E+00  0.000E+00  3.59512E+01  1.734E-01  2.000E+01  2.000E+04 -1.512E-02
   1   15   25     3     4    1.8481E+05 -2.4484E+02   1.8505E+05  0.000E+00  0.000E+00  0.000E+00  3.50625E+01  1.736E-01  2.000E+01  2.000E+04 -1.224E-02
   1   15   26     3     5    1.8505E+05 -4.5813E+01   1.8510E+05  0.000E+00  0.000E+00  0.000E+00  3.41737E+01  1.737E-01  2.000E+01  2.000E+04 -2.291E-03
   1   16   27     3     6    1.8510E+05  9.5636E+01   1.8500E+05  0.000E+00  0.000E+00  0.000E+00  3.32848E+01  1.736E-01  2.000E+01  2.000E+04  4.782E-03
   1   17   28     3     7    1.8500E+05  5.1759E+03   1.7982E+05  0.000E+00  0.000E+00  0.000E+00  3.23944E+01  1.722E-01  2.000E+01  2.000E+04  2.588E-01
   1   18   29     3     8    1.7982E+05  1.8240E+03   1.7800E+05  0.000E+00  0.000E+00  0.000E+00  3.15035E+01  1.702E-01  2.000E+01  2.000E+04  9.120E-02
   1   18   30     3     9    1.7800E+05 -5.4562E+02   1.7855E+05  0.000E+00  0.000E+00  0.000E+00  3.06142E+01  1.698E-01  2.000E+01  2.000E+04 -2.728E-02



1
              HEAD IN LAYER   1 AT END OF TIME STEP   1 IN STRESS PERIOD    6
  ---------------------------------------------------------------------------

          1      2      3      4      5      6      7      8      9     10
         11     12     13     14     15     16     17     18     19     20
         21     22     23     24     25     26     27     28     29     30
 .........................................................................
   1  ****** ****** ****** ****** ****** ****** ****** ****** ****** ******
      ****** ****** ****** ****** ****** ****** ****** ****** ****** ******
      ****** ****** ****** ****** ****** ****** ****** ****** ****** ******
   2  ****** ****** ****** ****** ****** ****** ****** ****** ****** ******
      ****** ****** ****** ****** ****** ****** ****** ****** ****** ******
      ****** ****** ****** ****** ****** ****** ****** ****** ****** ******
   3  ****** ****** ****** ****** ****** ****** ****** ****** ****** ******
      ****** ****** ****** ****** ****** ****** ****** ****** ****** ******
      ****** ****** ****** ****** ****** ****** ****** ****** ****** ******
   4  ****** ****** ****** ****** ****** ****** ****** ****** ****** ******
      ****** ****** ****** ****** ****** ****** ****** ****** ****** ******
      ****** ****** ****** ****** ****** ****** ****** ****** ****** ******
   5  ****** ****** ****** ****** ****** ****** ****** ****** ****** ******
      ****** ****** ****** ****** ****** ****** ****** ****** ****** ******
      ****** ****** ****** ****** ****** ****** ****** ****** ****** ******
   6  ****** ****** ****** ****** ****** ****** ****** ****** ****** ******
      ****** ****** ****** ****** ****** ****** ****** ****** ****** ******
      ****** ****** ****** ****** ****** ****** ****** ****** ****** ******
   7  ****** ****** ****** ****** ****** ****** ****** ****** ****** ******
      ****** ****** ****** ****** ****** ****** ****** ****** ****** ******
      ****** ****** ****** ****** ****** ****** ****** ****** ****** ******
   8  ****** ****** ****** ****** ****** ****** ****** ****** ****** ******
      ****** ****** ****** ****** ****** ****** ****** ****** ****** ******
      ****** ****** ****** ****** ****** ****** ****** ****** ****** ******
   9  ****** ****** ****** ****** ****** ****** ****** ****** ****** ******
      ****** ****** ****** ****** ****** ****** ****** ****** ****** ******
      ****** ****** ****** ****** ****** ****** ****** ****** ****** ******
  10  ****** ****** ****** ****** ****** ****** ****** ****** ****** ******
      ****** ****** ****** ****** ****** ****** ****** ****** ****** ******
      ****** ****** ****** ****** ****** ****** ****** ****** ****** ******
  11  ****** ****** ****** ****** ****** ****** ****** ****** ****** ******
      ****** ****** ****** ****** ****** ****** ****** ****** ****** ******
      ****** ****** ****** ****** ****** ****** ****** ****** ****** ******
  12  ****** ****** ****** ****** ****** ****** ****** ****** ****** ******
      ****** ****** ****** ****** ****** ****** ****** ****** ****** ******
      ****** ****** ****** ****** ****** ****** ****** ****** ****** ******
  13  ****** ****** ****** ****** ****** ****** ****** ****** ****** ******
      ****** ****** ****** ****** ****** ****** ****** ****** ****** ******
      ****** ****** ****** ****** ****** ****** ****** ****** ****** ******
  14  ****** ****** ****** ****** ****** ****** ****** ****** ****** ******
      ****** ****** ****** ****** ****** ****** ****** ****** ****** ******
      ****** ****** ****** ****** ****** ****** ****** ****** ****** ******
  15  ****** ****** ****** ****** ****** ****** ****** ****** ****** ******
      ****** ****** ****** ****** ****** ****** ****** ****** ****** ******
      ****** ****** ****** ****** ****** ****** ****** ****** ****** ******
  16  ****** ****** ****** ****** ****** ****** ****** ****** ****** ******
      ****** ****** ****** ****** ****** ****** ****** ****** ****** ******
      ****** ****** ****** ****** ****** ****** ****** ****** ****** ******
  17  ****** ****** ****** ****** ****** ****** ****** ****** ****** ******
      ****** ****** ****** ****** ****** ****** ****** ****** ****** ******
      ****** ****** ****** ****** ****** ****** ****** ****** ****** ******
  18  ****** ****** ****** ****** ****** ****** ****** ****** ****** ******
      ****** ****** ****** ****** ****** ****** ****** ****** ****** ******
      ****** ****** ****** ****** ****** ****** ****** ****** ****** ******
  19  ****** ****** ****** ****** ****** ****** ****** ****** ****** ******
      ****** ****** ****** ****** ****** ****** ****** ****** ****** ******
      ****** ****** ****** ****** ****** ****** ****** ****** ****** ******
  20  ****** ****** ****** ****** ****** ****** ****** ****** ****** ******
      ****** ****** ****** ****** ****** ****** ****** ****** ****** ******
      ****** ****** ****** ****** ****** ****** ****** ****** ****** ******
  21  ****** ****** ****** ****** ****** ****** ****** ****** ****** ******
      ****** ****** ****** ****** ****** ****** ****** ****** ****** ******
      ****** ****** ****** ****** ****** ****** ****** ****** ****** ******
  22  ****** ****** ****** ****** ****** ****** ****** ****** ****** ******
      ****** ****** ****** ****** ****** ****** ****** ****** ****** ******
      ****** ****** ****** ****** ****** ****** ****** ****** ****** ******
  23  ****** ****** ****** ****** ****** ****** ****** ****** ****** ******
      ****** ****** ****** ****** ****** ****** ****** ****** ****** ******
      ****** ****** ****** ****** ****** ****** ****** ****** ****** ******
  24  ****** ****** ****** ****** ****** ****** ****** ****** ****** ******
      ****** ****** ****** ****** ****** ****** ****** ****** ****** ******
      ****** ****** ****** ****** ****** ****** ****** ****** ****** ******
  25  ****** ****** ****** ****** ****** ****** ****** ****** ****** ******
      ****** ****** ****** ****** ****** ****** ****** ****** ****** ******
      ****** ****** ****** ****** ****** ****** ****** ****** ****** ******

 HEAD WILL BE SAVED ON UNIT   51 AT END OF TIME STEP    1, STRESS PERIOD    6
1
  VOLUMETRIC BUDGET FOR ENTIRE MODEL AT END OF TIME STEP    1, STRESS PERIOD   6
  ------------------------------------------------------------------------------

     CUMULATIVE VOLUMES      L**3       RATES FOR THIS TIME STEP      L**3/T
     ------------------                 ------------------------

           IN:                                      IN:
           ---                                      ---
             STORAGE =    29820004.3487               STORAGE =           0.0000
       CONSTANT HEAD =    12304249.0462         CONSTANT HEAD =       27230.9671
               WELLS =           0.0000                 WELLS =           0.0000
            RECHARGE =    15097200.0000              RECHARGE =       55200.0000
      STREAM LEAKAGE =     9395785.0406        STREAM LEAKAGE =       20534.1236

            TOTAL IN =    66617238.4355              TOTAL IN =      102965.0907

          OUT:                                     OUT:
          ----                                     ----
             STORAGE =      852535.2081               STORAGE =        9365.3011
       CONSTANT HEAD =           0.0000         CONSTANT HEAD =           0.0000
               WELLS =    24396868.6372                 WELLS =       44519.8333
            RECHARGE =           0.0000              RECHARGE =           0.0000
      STREAM LEAKAGE =    41367836.6093        STREAM LEAKAGE =       49079.9535

           TOTAL OUT =    66617240.4546             TOTAL OUT =      102965.0878

            IN - OUT =          -2.0191              IN - OUT =       2.8779E-03

 PERCENT DISCREPANCY =          -0.00     PERCENT DISCREPANCY =           0.00






         TIME SUMMARY AT END OF TIME STEP    1 IN STRESS PERIOD    6
                    SECONDS     MINUTES      HOURS       DAYS        YEARS
                    -----------------------------------------------------------
   TIME STEP LENGTH 7.86240E+06 1.31040E+05  2184.0      91.000     0.24914    
 STRESS PERIOD TIME 7.86240E+06 1.31040E+05  2184.0      91.000     0.24914    
         TOTAL TIME 4.73472E+07 7.89120E+05  13152.      548.00      1.5003    
1
1
                            STRESS PERIOD NO.    7, LENGTH =   91.00000    
                            -----------------------------------------------

                              NUMBER OF TIME STEPS =     1

                               MULTIPLIER FOR DELT =     1.500

                            INITIAL TIME STEP SIZE =   91.00000    

 WELL NO.  LAYER   ROW   COL   STRESS RATE         
 --------------------------------------------------
      1      1     15     20     -0.1192E+05
      2      1     17     29     -0.1435E+05
      3      1     12     29      -6954.    
      4      1     12     26     -0.1129E+05

      4 WELLS

                 RECHARGE =   0.00000    

 REUSING STREAM SEGMENT DATA FROM LAST STRESS PERIOD
 
 SOLVING FOR HEAD 


     7 CALLS TO PCG ROUTINE FOR TIME STEP   1 IN STRESS PERIOD    7
    26 TOTAL ITERATIONS

 OUTPUT CONTROL FOR STRESS PERIOD    7   TIME STEP    1
    SAVE BUDGET
    SAVE HEAD FOR ALL LAYERS
    PRINT HEAD FOR ALL LAYERS
 UBDSV2 SAVING "STREAMFLOW OUT  " ON UNIT  50 AT TIME STEP  1, STRESS PERIOD   7



 STREAM LISTING     PERIOD      7   STEP        1

 LAYER ROW COL. STREAM  RCH.  FLOW INTO     FLOW TO   FLOW OUT OF   OVRLND.     DIRECT     STREAM       STREAM     STREAM     STREAM   STREAMBED  STREAMBED
                SEG.NO.  NO.  STRM. RCH.    AQUIFER    STRM. RCH.    RUNOFF     PRECIP       ET          HEAD       DEPTH      WIDTH   CONDCTNC.   GRADIENT

   1   13    1     1     1    1.0000E+05 -1.8221E+03   1.0182E+05  0.000E+00  0.000E+00  0.000E+00  4.84068E+01  1.454E-01  2.000E+01  2.000E+04 -9.110E-02
   1   13    2     1     2    1.0182E+05 -2.7968E+03   1.0462E+05  0.000E+00  0.000E+00  0.000E+00  4.79315E+01  1.474E-01  2.000E+01  2.000E+04 -1.398E-01
   1   14    3     1     3    1.0462E+05 -4.1568E+02   1.0503E+05  0.000E+00  0.000E+00  0.000E+00  4.74556E+01  1.488E-01  2.000E+01  2.000E+04 -2.078E-02
   1   15    4     1     4    1.0503E+05 -3.8144E+02   1.0542E+05  0.000E+00  0.000E+00  0.000E+00  4.69787E+01  1.491E-01  2.000E+01  2.000E+04 -1.907E-02
   1   16    5     1     5    1.0542E+05 -1.4703E+03   1.0689E+05  0.000E+00  0.000E+00  0.000E+00  4.65022E+01  1.499E-01  2.000E+01  2.000E+04 -7.352E-02
   1   16    6     1     6    1.0689E+05 -9.4152E+02   1.0783E+05  0.000E+00  0.000E+00  0.000E+00  4.60259E+01  1.509E-01  2.000E+01  2.000E+04 -4.708E-02
   1   16    7     1     7    1.0783E+05 -9.2809E+02   1.0876E+05  0.000E+00  0.000E+00  0.000E+00  4.55495E+01  1.517E-01  2.000E+01  2.000E+04 -4.640E-02
   1   16    8     1     8    1.0876E+05 -9.2212E+02   1.0968E+05  0.000E+00  0.000E+00  0.000E+00  4.50730E+01  1.525E-01  2.000E+01  2.000E+04 -4.611E-02
   1   16    9     1     9    1.0968E+05 -9.0730E+02   1.1059E+05  0.000E+00  0.000E+00  0.000E+00  4.45965E+01  1.533E-01  2.000E+01  2.000E+04 -4.536E-02
   1   16   10     1    10    1.1059E+05 -8.8223E+02   1.1147E+05  0.000E+00  0.000E+00  0.000E+00  4.41199E+01  1.540E-01  2.000E+01  2.000E+04 -4.411E-02
   1   16   11     1    11    1.1147E+05 -8.6107E+02   1.1233E+05  0.000E+00  0.000E+00  0.000E+00  4.36434E+01  1.547E-01  2.000E+01  2.000E+04 -4.305E-02
   1   16   12     1    12    1.1233E+05 -1.4022E+03   1.1373E+05  0.000E+00  0.000E+00  0.000E+00  4.31670E+01  1.557E-01  2.000E+01  2.000E+04 -7.011E-02
   1   15   13     1    13    1.1373E+05 -1.2962E+03   1.1503E+05  0.000E+00  0.000E+00  0.000E+00  4.26909E+01  1.568E-01  2.000E+01  2.000E+04 -6.481E-02
   1   14   14     1    14    1.1503E+05 -1.5244E+03   1.1655E+05  0.000E+00  0.000E+00  0.000E+00  4.22148E+01  1.580E-01  2.000E+01  2.000E+04 -7.622E-02
   1   13   15     1    15    1.1655E+05 -1.8288E+03   1.1838E+05  0.000E+00  0.000E+00  0.000E+00  4.17389E+01  1.593E-01  2.000E+01  2.000E+04 -9.144E-02
   1   12   16     1    16    1.1838E+05 -2.7100E+03   1.2109E+05  0.000E+00  0.000E+00  0.000E+00  4.12634E+01  1.612E-01  2.000E+01  2.000E+04 -1.355E-01
   1   12   17     1    17    1.2109E+05 -1.5320E+03   1.2262E+05  0.000E+00  0.000E+00  0.000E+00  4.07879E+01  1.629E-01  2.000E+01  2.000E+04 -7.660E-02
   1   12   18     1    18    1.2262E+05 -1.3104E+03   1.2393E+05  0.000E+00  0.000E+00  0.000E+00  4.03117E+01  1.640E-01  2.000E+01  2.000E+04 -6.552E-02
   1   12   19     1    19    1.2393E+05 -1.7999E+03   1.2573E+05  0.000E+00  0.000E+00  0.000E+00  3.98357E+01  1.652E-01  2.000E+01  2.000E+04 -8.999E-02
   1   13   20     1    20    1.2573E+05  4.5027E+02   1.2528E+05  0.000E+00  0.000E+00  0.000E+00  3.93590E+01  1.658E-01  2.000E+01  2.000E+04  2.251E-02
   1   14   21     1    21    1.2528E+05  2.1401E+03   1.2314E+05  0.000E+00  0.000E+00  0.000E+00  3.88807E+01  1.647E-01  2.000E+01  2.000E+04  1.070E-01
   1   14   22     1    22    1.2314E+05  5.4687E+03   1.1767E+05  0.000E+00  0.000E+00  0.000E+00  3.84003E+01  1.617E-01  2.000E+01  2.000E+04  2.734E-01
   1    9   30     2     1    5.0000E+04  1.1133E+03   4.8887E+04  0.000E+00  0.000E+00  0.000E+00  4.02401E+01  1.151E-01  2.000E+01  2.000E+04  5.566E-02
   1    9   29     2     2    4.8887E+04  8.1852E+02   4.8068E+04  0.000E+00  0.000E+00  0.000E+00  3.99887E+01  1.137E-01  2.000E+01  2.000E+04  4.093E-02
   1    9   28     2     3    4.8068E+04  3.6400E+02   4.7704E+04  0.000E+00  0.000E+00  0.000E+00  3.97379E+01  1.129E-01  2.000E+01  2.000E+04  1.820E-02
   1    9   27     2     4    4.7704E+04 -1.2165E+03   4.8921E+04  0.000E+00  0.000E+00  0.000E+00  3.94885E+01  1.135E-01  2.000E+01  2.000E+04 -6.083E-02
   1   10   26     2     5    4.8921E+04  1.8392E+03   4.7082E+04  0.000E+00  0.000E+00  0.000E+00  3.92381E+01  1.131E-01  2.000E+01  2.000E+04  9.196E-02
   1   11   25     2     6    4.7082E+04  3.1307E+03   4.3951E+04  0.000E+00  0.000E+00  0.000E+00  3.89845E+01  1.095E-01  2.000E+01  2.000E+04  1.565E-01
   1   12   24     2     7    4.3951E+04  9.1281E+02   4.3038E+04  0.000E+00  0.000E+00  0.000E+00  3.87316E+01  1.066E-01  2.000E+01  2.000E+04  4.564E-02
   1   13   23     2     8    4.3038E+04 -1.2380E+02   4.3162E+04  0.000E+00  0.000E+00  0.000E+00  3.84810E+01  1.060E-01  2.000E+01  2.000E+04 -6.190E-03
   1   14   22     2     9    4.3162E+04  2.0531E+03   4.1109E+04  0.000E+00  0.000E+00  0.000E+00  3.82296E+01  1.046E-01  2.000E+01  2.000E+04  1.027E-01
   1   14   22     3     1    1.5878E+05 -8.2098E+03   1.6699E+05  0.000E+00  0.000E+00  0.000E+00  3.77164E+01  1.609E-01  2.000E+01  2.000E+04 -4.105E-01
   1   15   23     3     2    1.6699E+05 -1.6348E+02   1.6716E+05  0.000E+00  0.000E+00  0.000E+00  3.68300E+01  1.633E-01  2.000E+01  2.000E+04 -8.174E-03
   1   15   24     3     3    1.6716E+05 -1.2903E+02   1.6728E+05  0.000E+00  0.000E+00  0.000E+00  3.59412E+01  1.634E-01  2.000E+01  2.000E+04 -6.451E-03
   1   15   25     3     4    1.6728E+05 -6.8339E+01   1.6735E+05  0.000E+00  0.000E+00  0.000E+00  3.50524E+01  1.635E-01  2.000E+01  2.000E+04 -3.417E-03
   1   15   26     3     5    1.6735E+05  1.5531E+02   1.6720E+05  0.000E+00  0.000E+00  0.000E+00  3.41634E+01  1.634E-01  2.000E+01  2.000E+04  7.766E-03
   1   16   27     3     6    1.6720E+05  3.2773E+02   1.6687E+05  0.000E+00  0.000E+00  0.000E+00  3.32744E+01  1.633E-01  2.000E+01  2.000E+04  1.639E-02
   1   17   28     3     7    1.6687E+05  5.8165E+03   1.6105E+05  0.000E+00  0.000E+00  0.000E+00  3.23837E+01  1.615E-01  2.000E+01  2.000E+04  2.908E-01
   1   18   29     3     8    1.6105E+05  2.5076E+03   1.5855E+05  0.000E+00  0.000E+00  0.000E+00  3.14924E+01  1.590E-01  2.000E+01  2.000E+04  1.254E-01
   1   18   30     3     9    1.5855E+05 -1.8699E+01   1.5856E+05  0.000E+00  0.000E+00  0.000E+00  3.06027E+01  1.583E-01  2.000E+01  2.000E+04 -9.350E-04



1
              HEAD IN LAYER   1 AT END OF TIME STEP   1 IN STRESS PERIOD    7
  ---------------------------------------------------------------------------

          1      2      3      4      5      6      7      8      9     10
         11     12     13     14     15     16     17     18     19     20
         21     22     23     24     25     26     27     28     29     30
 .........................................................................
   1  ****** ****** ****** ****** ****** ****** ****** ****** ****** ******
      ****** ****** ****** ****** ****** ****** ****** ****** ****** ******
      ****** ****** ****** ****** ****** ****** ****** ****** ****** ******
   2  ****** ****** ****** ****** ****** ****** ****** ****** ****** ******
      ****** ****** ****** ****** ****** ****** ****** ****** ****** ******
      ****** ****** ****** ****** ****** ****** ****** ****** ****** ******
   3  ****** ****** ****** ****** ****** ****** ****** ****** ****** ******
      ****** ****** ****** ****** ****** ****** ****** ****** ****** ******
      ****** ****** ****** ****** ****** ****** ****** ****** ****** ******
   4  ****** ****** ****** ****** ****** ****** ****** ****** ****** ******
      ****** ****** ****** ****** ****** ****** ****** ****** ****** ******
      ****** ****** ****** ****** ****** ****** ****** ****** ****** ******
   5  ****** ****** ****** ****** ****** ****** ****** ****** ****** ******
      ****** ****** ****** ****** ****** ****** ****** ****** ****** ******
      ****** ****** ****** ****** ****** ****** ****** ****** ****** ******
   6  ****** ****** ****** ****** ****** ****** ****** ****** ****** ******
      ****** ****** ****** ****** ****** ****** ****** ****** ****** ******
      ****** ****** ****** ****** ****** ****** ****** ****** ****** ******
   7  ****** ****** ****** ****** ****** ****** ****** ****** ****** ******
      ****** ****** ****** ****** ****** ****** ****** ****** ****** ******
      ****** ****** ****** ****** ****** ****** ****** ****** ****** ******
   8  ****** ****** ****** ****** ****** ****** ****** ****** ****** ******
      ****** ****** ****** ****** ****** ****** ****** ****** ****** ******
      ****** ****** ****** ****** ****** ****** ****** ****** ****** ******
   9  ****** ****** ****** ****** ****** ****** ****** ****** ****** ******
      ****** ****** ****** ****** ****** ****** ****** ****** ****** ******
      ****** ****** ****** ****** ****** ****** ****** ****** ****** ******
  10  ****** ****** ****** ****** ****** ****** ****** ****** ****** ******
      ****** ****** ****** ****** ****** ****** ****** ****** ****** ******
      ****** ****** ****** ****** ****** ****** ****** ****** ****** ******
  11  ****** ****** ****** ****** ****** ****** ****** ****** ****** ******
      ****** ****** ****** ****** ****** ****** ****** ****** ****** ******
      ****** ****** ****** ****** ****** ****** ****** ****** ****** ******
  12  ****** ****** ****** ****** ****** ****** ****** ****** ****** ******
      ****** ****** ****** ****** ****** ****** ****** ****** ****** ******
      ****** ****** ****** ****** ****** ****** ****** ****** ****** ******
  13  ****** ****** ****** ****** ****** ****** ****** ****** ****** ******
      ****** ****** ****** ****** ****** ****** ****** ****** ****** ******
      ****** ****** ****** ****** ****** ****** ****** ****** ****** ******
  14  ****** ****** ****** ****** ****** ****** ****** ****** ****** ******
      ****** ****** ****** ****** ****** ****** ****** ****** ****** ******
      ****** ****** ****** ****** ****** ****** ****** ****** ****** ******
  15  ****** ****** ****** ****** ****** ****** ****** ****** ****** ******
      ****** ****** ****** ****** ****** ****** ****** ****** ****** ******
      ****** ****** ****** ****** ****** ****** ****** ****** ****** ******
  16  ****** ****** ****** ****** ****** ****** ****** ****** ****** ******
      ****** ****** ****** ****** ****** ****** ****** ****** ****** ******
      ****** ****** ****** ****** ****** ****** ****** ****** ****** ******
  17  ****** ****** ****** ****** ****** ****** ****** ****** ****** ******
      ****** ****** ****** ****** ****** ****** ****** ****** ****** ******
      ****** ****** ****** ****** ****** ****** ****** ****** ****** ******
  18  ****** ****** ****** ****** ****** ****** ****** ****** ****** ******
      ****** ****** ****** ****** ****** ****** ****** ****** ****** ******
      ****** ****** ****** ****** ****** ****** ****** ****** ****** ******
  19  ****** ****** ****** ****** ****** ****** ****** ****** ****** ******
      ****** ****** ****** ****** ****** ****** ****** ****** ****** ******
      ****** ****** ****** ****** ****** ****** ****** ****** ****** ******
  20  ****** ****** ****** ****** ****** ****** ****** ****** ****** ******
      ****** ****** ****** ****** ****** ****** ****** ****** ****** ******
      ****** ****** ****** ****** ****** ****** ****** ****** ****** ******
  21  ****** ****** ****** ****** ****** ****** ****** ****** ****** ******
      ****** ****** ****** ****** ****** ****** ****** ****** ****** ******
      ****** ****** ****** ****** ****** ****** ****** ****** ****** ******
  22  ****** ****** ****** ****** ****** ****** ****** ****** ****** ******
      ****** ****** ****** ****** ****** ****** ****** ****** ****** ******
      ****** ****** ****** ****** ****** ****** ****** ****** ****** ******
  23  ****** ****** ****** ****** ****** ****** ****** ****** ****** ******
      ****** ****** ****** ****** ****** ****** ****** ****** ****** ******
      ****** ****** ****** ****** ****** ****** ****** ****** ****** ******
  24  ****** ****** ****** ****** ****** ****** ****** ****** ****** ******
      ****** ****** ****** ****** ****** ****** ****** ****** ****** ******
      ****** ****** ****** ****** ****** ****** ****** ****** ****** ******
  25  ****** ****** ****** ****** ****** ****** ****** ****** ****** ******
      ****** ****** ****** ****** ****** ****** ****** ****** ****** ******
      ****** ****** ****** ****** ****** ****** ****** ****** ****** ******

 HEAD WILL BE SAVED ON UNIT   51 AT END OF TIME STEP    1, STRESS PERIOD    7
1
  VOLUMETRIC BUDGET FOR ENTIRE MODEL AT END OF TIME STEP    1, STRESS PERIOD   7
  ------------------------------------------------------------------------------

     CUMULATIVE VOLUMES      L**3       RATES FOR THIS TIME STEP      L**3/T
     ------------------                 ------------------------

           IN:                                      IN:
           ---                                      ---
             STORAGE =    31820135.1744               STORAGE =       21979.4596
       CONSTANT HEAD =    15134772.5886         CONSTANT HEAD =       31104.6543
               WELLS =           0.0000                 WELLS =           0.0000
            RECHARGE =    15097200.0000              RECHARGE =           0.0000
      STREAM LEAKAGE =    11861697.4494        STREAM LEAKAGE =       27097.9386

            TOTAL IN =    73913805.2123              TOTAL IN =       80182.0525

          OUT:                                     OUT:
          ----                                     ----
             STORAGE =      852535.2081               STORAGE =           0.0000
       CONSTANT HEAD =           0.0000         CONSTANT HEAD =           0.0000
               WELLS =    28448173.4656                 WELLS =       44519.8333
            RECHARGE =           0.0000              RECHARGE =           0.0000
      STREAM LEAKAGE =    44613099.0422        STREAM LEAKAGE =       35662.2245

           TOTAL OUT =    73913807.7159             TOTAL OUT =       80182.0578

            IN - OUT =          -2.5036              IN - OUT =      -5.3250E-03

 PERCENT DISCREPANCY =          -0.00     PERCENT DISCREPANCY =          -0.00






         TIME SUMMARY AT END OF TIME STEP    1 IN STRESS PERIOD    7
                    SECONDS     MINUTES      HOURS       DAYS        YEARS
                    -----------------------------------------------------------
   TIME STEP LENGTH 7.86240E+06 1.31040E+05  2184.0      91.000     0.24914    
 STRESS PERIOD TIME 7.86240E+06 1.31040E+05  2184.0      91.000     0.24914    
         TOTAL TIME 5.52096E+07 9.20160E+05  15336.      639.00      1.7495    
1
1
                            STRESS PERIOD NO.    8, LENGTH =   91.00000    
                            -----------------------------------------------

                              NUMBER OF TIME STEPS =     1

                               MULTIPLIER FOR DELT =     1.500

                            INITIAL TIME STEP SIZE =   91.00000    

 WELL NO.  LAYER   ROW   COL   STRESS RATE         
 --------------------------------------------------
      1      1     15     20     -0.1192E+05
      2      1     17     29     -0.1435E+05
      3      1     12     29      -6954.    
      4      1     12     26     -0.1129E+05

      4 WELLS

                 RECHARGE =  1.000000E-03

 REUSING STREAM SEGMENT DATA FROM LAST STRESS PERIOD
 
 SOLVING FOR HEAD 


     6 CALLS TO PCG ROUTINE FOR TIME STEP   1 IN STRESS PERIOD    8
    22 TOTAL ITERATIONS

 OUTPUT CONTROL FOR STRESS PERIOD    8   TIME STEP    1
    SAVE BUDGET
    SAVE HEAD FOR ALL LAYERS
    PRINT HEAD FOR ALL LAYERS
 UBDSV2 SAVING "STREAMFLOW OUT  " ON UNIT  50 AT TIME STEP  1, STRESS PERIOD   8



 STREAM LISTING     PERIOD      8   STEP        1

 LAYER ROW COL. STREAM  RCH.  FLOW INTO     FLOW TO   FLOW OUT OF   OVRLND.     DIRECT     STREAM       STREAM     STREAM     STREAM   STREAMBED  STREAMBED
                SEG.NO.  NO.  STRM. RCH.    AQUIFER    STRM. RCH.    RUNOFF     PRECIP       ET          HEAD       DEPTH      WIDTH   CONDCTNC.   GRADIENT

   1   13    1     1     1    1.0000E+05 -1.9024E+03   1.0190E+05  0.000E+00  0.000E+00  0.000E+00  4.84068E+01  1.455E-01  2.000E+01  2.000E+04 -9.512E-02
   1   13    2     1     2    1.0190E+05 -2.8778E+03   1.0478E+05  0.000E+00  0.000E+00  0.000E+00  4.79316E+01  1.475E-01  2.000E+01  2.000E+04 -1.439E-01
   1   14    3     1     3    1.0478E+05 -4.8083E+02   1.0526E+05  0.000E+00  0.000E+00  0.000E+00  4.74558E+01  1.490E-01  2.000E+01  2.000E+04 -2.404E-02
   1   15    4     1     4    1.0526E+05 -4.5101E+02   1.0571E+05  0.000E+00  0.000E+00  0.000E+00  4.69789E+01  1.494E-01  2.000E+01  2.000E+04 -2.255E-02
   1   16    5     1     5    1.0571E+05 -1.6452E+03   1.0736E+05  0.000E+00  0.000E+00  0.000E+00  4.65025E+01  1.503E-01  2.000E+01  2.000E+04 -8.226E-02
   1   16    6     1     6    1.0736E+05 -1.0494E+03   1.0841E+05  0.000E+00  0.000E+00  0.000E+00  4.60264E+01  1.514E-01  2.000E+01  2.000E+04 -5.247E-02
   1   16    7     1     7    1.0841E+05 -1.0311E+03   1.0944E+05  0.000E+00  0.000E+00  0.000E+00  4.55500E+01  1.523E-01  2.000E+01  2.000E+04 -5.155E-02
   1   16    8     1     8    1.0944E+05 -1.0243E+03   1.1046E+05  0.000E+00  0.000E+00  0.000E+00  4.50736E+01  1.531E-01  2.000E+01  2.000E+04 -5.121E-02
   1   16    9     1     9    1.1046E+05 -1.0105E+03   1.1147E+05  0.000E+00  0.000E+00  0.000E+00  4.45972E+01  1.540E-01  2.000E+01  2.000E+04 -5.053E-02
   1   16   10     1    10    1.1147E+05 -9.8787E+02   1.1246E+05  0.000E+00  0.000E+00  0.000E+00  4.41207E+01  1.548E-01  2.000E+01  2.000E+04 -4.939E-02
   1   16   11     1    11    1.1246E+05 -9.6962E+02   1.1343E+05  0.000E+00  0.000E+00  0.000E+00  4.36442E+01  1.556E-01  2.000E+01  2.000E+04 -4.848E-02
   1   16   12     1    12    1.1343E+05 -1.5651E+03   1.1500E+05  0.000E+00  0.000E+00  0.000E+00  4.31680E+01  1.567E-01  2.000E+01  2.000E+04 -7.826E-02
   1   15   13     1    13    1.1500E+05 -1.4675E+03   1.1646E+05  0.000E+00  0.000E+00  0.000E+00  4.26920E+01  1.579E-01  2.000E+01  2.000E+04 -7.337E-02
   1   14   14     1    14    1.1646E+05 -1.6897E+03   1.1815E+05  0.000E+00  0.000E+00  0.000E+00  4.22160E+01  1.592E-01  2.000E+01  2.000E+04 -8.448E-02
   1   13   15     1    15    1.1815E+05 -1.9821E+03   1.2013E+05  0.000E+00  0.000E+00  0.000E+00  4.17402E+01  1.607E-01  2.000E+01  2.000E+04 -9.910E-02
   1   12   16     1    16    1.2013E+05 -2.8268E+03   1.2296E+05  0.000E+00  0.000E+00  0.000E+00  4.12649E+01  1.626E-01  2.000E+01  2.000E+04 -1.413E-01
   1   12   17     1    17    1.2296E+05 -1.6463E+03   1.2461E+05  0.000E+00  0.000E+00  0.000E+00  4.07894E+01  1.644E-01  2.000E+01  2.000E+04 -8.232E-02
   1   12   18     1    18    1.2461E+05 -1.4310E+03   1.2604E+05  0.000E+00  0.000E+00  0.000E+00  4.03134E+01  1.656E-01  2.000E+01  2.000E+04 -7.155E-02
   1   12   19     1    19    1.2604E+05 -1.9519E+03   1.2799E+05  0.000E+00  0.000E+00  0.000E+00  3.98374E+01  1.670E-01  2.000E+01  2.000E+04 -9.759E-02
   1   13   20     1    20    1.2799E+05  2.7048E+02   1.2772E+05  0.000E+00  0.000E+00  0.000E+00  3.93608E+01  1.676E-01  2.000E+01  2.000E+04  1.352E-02
   1   14   21     1    21    1.2772E+05  1.9805E+03   1.2574E+05  0.000E+00  0.000E+00  0.000E+00  3.88827E+01  1.667E-01  2.000E+01  2.000E+04  9.902E-02
   1   14   22     1    22    1.2574E+05  5.4191E+03   1.2032E+05  0.000E+00  0.000E+00  0.000E+00  3.84024E+01  1.638E-01  2.000E+01  2.000E+04  2.710E-01
   1    9   30     2     1    5.0000E+04  9.4921E+02   4.9051E+04  0.000E+00  0.000E+00  0.000E+00  4.02402E+01  1.152E-01  2.000E+01  2.000E+04  4.746E-02
   1    9   29     2     2    4.9051E+04  6.5717E+02   4.8394E+04  0.000E+00  0.000E+00  0.000E+00  3.99891E+01  1.141E-01  2.000E+01  2.000E+04  3.286E-02
   1    9   28     2     3    4.8394E+04  2.0806E+02   4.8186E+04  0.000E+00  0.000E+00  0.000E+00  3.97385E+01  1.135E-01  2.000E+01  2.000E+04  1.040E-02
   1    9   27     2     4    4.8186E+04 -1.3968E+03   4.9582E+04  0.000E+00  0.000E+00  0.000E+00  3.94893E+01  1.143E-01  2.000E+01  2.000E+04 -6.984E-02
   1   10   26     2     5    4.9582E+04  1.6323E+03   4.7950E+04  0.000E+00  0.000E+00  0.000E+00  3.92391E+01  1.141E-01  2.000E+01  2.000E+04  8.162E-02
   1   11   25     2     6    4.7950E+04  2.9255E+03   4.5025E+04  0.000E+00  0.000E+00  0.000E+00  3.89859E+01  1.109E-01  2.000E+01  2.000E+04  1.463E-01
   1   12   24     2     7    4.5025E+04  7.2655E+02   4.4298E+04  0.000E+00  0.000E+00  0.000E+00  3.87333E+01  1.083E-01  2.000E+01  2.000E+04  3.633E-02
   1   13   23     2     8    4.4298E+04 -1.9825E+02   4.4496E+04  0.000E+00  0.000E+00  0.000E+00  3.84829E+01  1.079E-01  2.000E+01  2.000E+04 -9.913E-03
   1   14   22     2     9    4.4496E+04  2.0017E+03   4.2495E+04  0.000E+00  0.000E+00  0.000E+00  3.82316E+01  1.066E-01  2.000E+01  2.000E+04  1.001E-01
   1   14   22     3     1    1.6281E+05 -8.2537E+03   1.7107E+05  0.000E+00  0.000E+00  0.000E+00  3.77188E+01  1.632E-01  2.000E+01  2.000E+04 -4.127E-01
   1   15   23     3     2    1.7107E+05 -2.2782E+02   1.7130E+05  0.000E+00  0.000E+00  0.000E+00  3.68324E+01  1.657E-01  2.000E+01  2.000E+04 -1.139E-02
   1   15   24     3     3    1.7130E+05 -1.8959E+02   1.7149E+05  0.000E+00  0.000E+00  0.000E+00  3.59436E+01  1.658E-01  2.000E+01  2.000E+04 -9.480E-03
   1   15   25     3     4    1.7149E+05 -1.3061E+02   1.7162E+05  0.000E+00  0.000E+00  0.000E+00  3.50548E+01  1.659E-01  2.000E+01  2.000E+04 -6.531E-03
   1   15   26     3     5    1.7162E+05  8.0651E+01   1.7154E+05  0.000E+00  0.000E+00  0.000E+00  3.41659E+01  1.659E-01  2.000E+01  2.000E+04  4.033E-03
   1   16   27     3     6    1.7154E+05  2.4586E+02   1.7129E+05  0.000E+00  0.000E+00  0.000E+00  3.32770E+01  1.659E-01  2.000E+01  2.000E+04  1.229E-02
   1   17   28     3     7    1.7129E+05  5.6125E+03   1.6568E+05  0.000E+00  0.000E+00  0.000E+00  3.23864E+01  1.641E-01  2.000E+01  2.000E+04  2.806E-01
   1   18   29     3     8    1.6568E+05  2.3416E+03   1.6334E+05  0.000E+00  0.000E+00  0.000E+00  3.14951E+01  1.618E-01  2.000E+01  2.000E+04  1.171E-01
   1   18   30     3     9    1.6334E+05 -1.6567E+02   1.6350E+05  0.000E+00  0.000E+00  0.000E+00  3.06056E+01  1.612E-01  2.000E+01  2.000E+04 -8.284E-03



1
              HEAD IN LAYER   1 AT END OF TIME STEP   1 IN STRESS PERIOD    8
  ---------------------------------------------------------------------------

          1      2      3      4      5      6      7      8      9     10
         11     12     13     14     15     16     17     18     19     20
         21     22     23     24     25     26     27     28     29     30
 .........................................................................
   1  ****** ****** ****** ****** ****** ****** ****** ****** ****** ******
      ****** ****** ****** ****** ****** ****** ****** ****** ****** ******
      ****** ****** ****** ****** ****** ****** ****** ****** ****** ******
   2  ****** ****** ****** ****** ****** ****** ****** ****** ****** ******
      ****** ****** ****** ****** ****** ****** ****** ****** ****** ******
      ****** ****** ****** ****** ****** ****** ****** ****** ****** ******
   3  ****** ****** ****** ****** ****** ****** ****** ****** ****** ******
      ****** ****** ****** ****** ****** ****** ****** ****** ****** ******
      ****** ****** ****** ****** ****** ****** ****** ****** ****** ******
   4  ****** ****** ****** ****** ****** ****** ****** ****** ****** ******
      ****** ****** ****** ****** ****** ****** ****** ****** ****** ******
      ****** ****** ****** ****** ****** ****** ****** ****** ****** ******
   5  ****** ****** ****** ****** ****** ****** ****** ****** ****** ******
      ****** ****** ****** ****** ****** ****** ****** ****** ****** ******
      ****** ****** ****** ****** ****** ****** ****** ****** ****** ******
   6  ****** ****** ****** ****** ****** ****** ****** ****** ****** ******
      ****** ****** ****** ****** ****** ****** ****** ****** ****** ******
      ****** ****** ****** ****** ****** ****** ****** ****** ****** ******
   7  ****** ****** ****** ****** ****** ****** ****** ****** ****** ******
      ****** ****** ****** ****** ****** ****** ****** ****** ****** ******
      ****** ****** ****** ****** ****** ****** ****** ****** ****** ******
   8  ****** ****** ****** ****** ****** ****** ****** ****** ****** ******
      ****** ****** ****** ****** ****** ****** ****** ****** ****** ******
      ****** ****** ****** ****** ****** ****** ****** ****** ****** ******
   9  ****** ****** ****** ****** ****** ****** ****** ****** ****** ******
      ****** ****** ****** ****** ****** ****** ****** ****** ****** ******
      ****** ****** ****** ****** ****** ****** ****** ****** ****** ******
  10  ****** ****** ****** ****** ****** ****** ****** ****** ****** ******
      ****** ****** ****** ****** ****** ****** ****** ****** ****** ******
      ****** ****** ****** ****** ****** ****** ****** ****** ****** ******
  11  ****** ****** ****** ****** ****** ****** ****** ****** ****** ******
      ****** ****** ****** ****** ****** ****** ****** ****** ****** ******
      ****** ****** ****** ****** ****** ****** ****** ****** ****** ******
  12  ****** ****** ****** ****** ****** ****** ****** ****** ****** ******
      ****** ****** ****** ****** ****** ****** ****** ****** ****** ******
      ****** ****** ****** ****** ****** ****** ****** ****** ****** ******
  13  ****** ****** ****** ****** ****** ****** ****** ****** ****** ******
      ****** ****** ****** ****** ****** ****** ****** ****** ****** ******
      ****** ****** ****** ****** ****** ****** ****** ****** ****** ******
  14  ****** ****** ****** ****** ****** ****** ****** ****** ****** ******
      ****** ****** ****** ****** ****** ****** ****** ****** ****** ******
      ****** ****** ****** ****** ****** ****** ****** ****** ****** ******
  15  ****** ****** ****** ****** ****** ****** ****** ****** ****** ******
      ****** ****** ****** ****** ****** ****** ****** ****** ****** ******
      ****** ****** ****** ****** ****** ****** ****** ****** ****** ******
  16  ****** ****** ****** ****** ****** ****** ****** ****** ****** ******
      ****** ****** ****** ****** ****** ****** ****** ****** ****** ******
      ****** ****** ****** ****** ****** ****** ****** ****** ****** ******
  17  ****** ****** ****** ****** ****** ****** ****** ****** ****** ******
      ****** ****** ****** ****** ****** ****** ****** ****** ****** ******
      ****** ****** ****** ****** ****** ****** ****** ****** ****** ******
  18  ****** ****** ****** ****** ****** ****** ****** ****** ****** ******
      ****** ****** ****** ****** ****** ****** ****** ****** ****** ******
      ****** ****** ****** ****** ****** ****** ****** ****** ****** ******
  19  ****** ****** ****** ****** ****** ****** ****** ****** ****** ******
      ****** ****** ****** ****** ****** ****** ****** ****** ****** ******
      ****** ****** ****** ****** ****** ****** ****** ****** ****** ******
  20  ****** ****** ****** ****** ****** ****** ****** ****** ****** ******
      ****** ****** ****** ****** ****** ****** ****** ****** ****** ******
      ****** ****** ****** ****** ****** ****** ****** ****** ****** ******
  21  ****** ****** ****** ****** ****** ****** ****** ****** ****** ******
      ****** ****** ****** ****** ****** ****** ****** ****** ****** ******
      ****** ****** ****** ****** ****** ****** ****** ****** ****** ******
  22  ****** ****** ****** ****** ****** ****** ****** ****** ****** ******
      ****** ****** ****** ****** ****** ****** ****** ****** ****** ******
      ****** ****** ****** ****** ****** ****** ****** ****** ****** ******
  23  ****** ****** ****** ****** ****** ****** ****** ****** ****** ******
      ****** ****** ****** ****** ****** ****** ****** ****** ****** ******
      ****** ****** ****** ****** ****** ****** ****** ****** ****** ******
  24  ****** ****** ****** ****** ****** ****** ****** ****** ****** ******
      ****** ****** ****** ****** ****** ****** ****** ****** ****** ******
      ****** ****** ****** ****** ****** ****** ****** ****** ****** ******
  25  ****** ****** ****** ****** ****** ****** ****** ****** ****** ******
      ****** ****** ****** ****** ****** ****** ****** ****** ****** ******
      ****** ****** ****** ****** ****** ****** ****** ****** ****** ******

 HEAD WILL BE SAVED ON UNIT   51 AT END OF TIME STEP    1, STRESS PERIOD    8
1
  VOLUMETRIC BUDGET FOR ENTIRE MODEL AT END OF TIME STEP    1, STRESS PERIOD   8
  ------------------------------------------------------------------------------

     CUMULATIVE VOLUMES      L**3       RATES FOR THIS TIME STEP      L**3/T
     ------------------                 ------------------------

           IN:                                      IN:
           ---                                      ---
             STORAGE =    31935906.8438               STORAGE =        1272.2161
       CONSTANT HEAD =    17935323.4057         CONSTANT HEAD =       30775.2837
               WELLS =           0.0000                 WELLS =           0.0000
            RECHARGE =    17608800.0000              RECHARGE =       27600.0000
      STREAM LEAKAGE =    14141357.9200        STREAM LEAKAGE =       25051.2140

            TOTAL IN =    81621388.1696              TOTAL IN =       84698.7138

          OUT:                                     OUT:
          ----                                     ----
             STORAGE =     1000507.1734               STORAGE =        1626.0656
       CONSTANT HEAD =           0.0000         CONSTANT HEAD =           0.0000
               WELLS =    32499478.2941                 WELLS =       44519.8333
            RECHARGE =           0.0000              RECHARGE =           0.0000
      STREAM LEAKAGE =    48121404.4361        STREAM LEAKAGE =       38552.8065

           TOTAL OUT =    81621389.9036             TOTAL OUT =       84698.7054

            IN - OUT =          -1.7340              IN - OUT =       8.4571E-03

 PERCENT DISCREPANCY =          -0.00     PERCENT DISCREPANCY =           0.00






         TIME SUMMARY AT END OF TIME STEP    1 IN STRESS PERIOD    8
                    SECONDS     MINUTES      HOURS       DAYS        YEARS
                    -----------------------------------------------------------
   TIME STEP LENGTH 7.86240E+06 1.31040E+05  2184.0      91.000     0.24914    
 STRESS PERIOD TIME 7.86240E+06 1.31040E+05  2184.0      91.000     0.24914    
         TOTAL TIME 6.30720E+07 1.05120E+06  17520.      730.00      1.9986    
1
1
                            STRESS PERIOD NO.    9, LENGTH =   92.00000    
                            -----------------------------------------------

                              NUMBER OF TIME STEPS =     1

                               MULTIPLIER FOR DELT =     1.500

                            INITIAL TIME STEP SIZE =   92.00000    

 WELL NO.  LAYER   ROW   COL   STRESS RATE         
 --------------------------------------------------
      1      1     15     20     -0.1192E+05
      2      1     17     29     -0.1435E+05
      3      1     12     29      -6954.    
      4      1     12     26     -0.1129E+05

      4 WELLS

                 RECHARGE =  5.000000E-04

 REUSING STREAM SEGMENT DATA FROM LAST STRESS PERIOD
 
 SOLVING FOR HEAD 


     6 CALLS TO PCG ROUTINE FOR TIME STEP   1 IN STRESS PERIOD    9
    23 TOTAL ITERATIONS

 OUTPUT CONTROL FOR STRESS PERIOD    9   TIME STEP    1
    SAVE BUDGET
    SAVE HEAD FOR ALL LAYERS
    PRINT HEAD FOR ALL LAYERS
 UBDSV2 SAVING "STREAMFLOW OUT  " ON UNIT  50 AT TIME STEP  1, STRESS PERIOD   9



 STREAM LISTING     PERIOD      9   STEP        1

 LAYER ROW COL. STREAM  RCH.  FLOW INTO     FLOW TO   FLOW OUT OF   OVRLND.     DIRECT     STREAM       STREAM     STREAM     STREAM   STREAMBED  STREAMBED
                SEG.NO.  NO.  STRM. RCH.    AQUIFER    STRM. RCH.    RUNOFF     PRECIP       ET          HEAD       DEPTH      WIDTH   CONDCTNC.   GRADIENT

   1   13    1     1     1    1.0000E+05 -1.6932E+03   1.0169E+05  0.000E+00  0.000E+00  0.000E+00  4.84067E+01  1.454E-01  2.000E+01  2.000E+04 -8.466E-02
   1   13    2     1     2    1.0169E+05 -2.6411E+03   1.0433E+05  0.000E+00  0.000E+00  0.000E+00  4.79313E+01  1.473E-01  2.000E+01  2.000E+04 -1.321E-01
   1   14    3     1     3    1.0433E+05 -4.1089E+02   1.0475E+05  0.000E+00  0.000E+00  0.000E+00  4.74554E+01  1.486E-01  2.000E+01  2.000E+04 -2.054E-02
   1   15    4     1     4    1.0475E+05 -3.7989E+02   1.0513E+05  0.000E+00  0.000E+00  0.000E+00  4.69784E+01  1.489E-01  2.000E+01  2.000E+04 -1.899E-02
   1   16    5     1     5    1.0513E+05 -1.4535E+03   1.0658E+05  0.000E+00  0.000E+00  0.000E+00  4.65019E+01  1.497E-01  2.000E+01  2.000E+04 -7.268E-02
   1   16    6     1     6    1.0658E+05 -9.3023E+02   1.0751E+05  0.000E+00  0.000E+00  0.000E+00  4.60257E+01  1.507E-01  2.000E+01  2.000E+04 -4.651E-02
   1   16    7     1     7    1.0751E+05 -9.1565E+02   1.0842E+05  0.000E+00  0.000E+00  0.000E+00  4.55492E+01  1.515E-01  2.000E+01  2.000E+04 -4.578E-02
   1   16    8     1     8    1.0842E+05 -9.1039E+02   1.0933E+05  0.000E+00  0.000E+00  0.000E+00  4.50727E+01  1.522E-01  2.000E+01  2.000E+04 -4.552E-02
   1   16    9     1     9    1.0933E+05 -8.9822E+02   1.1023E+05  0.000E+00  0.000E+00  0.000E+00  4.45962E+01  1.530E-01  2.000E+01  2.000E+04 -4.491E-02
   1   16   10     1    10    1.1023E+05 -8.7746E+02   1.1111E+05  0.000E+00  0.000E+00  0.000E+00  4.41196E+01  1.537E-01  2.000E+01  2.000E+04 -4.387E-02
   1   16   11     1    11    1.1111E+05 -8.6008E+02   1.1197E+05  0.000E+00  0.000E+00  0.000E+00  4.36431E+01  1.544E-01  2.000E+01  2.000E+04 -4.300E-02
   1   16   12     1    12    1.1197E+05 -1.3780E+03   1.1335E+05  0.000E+00  0.000E+00  0.000E+00  4.31667E+01  1.554E-01  2.000E+01  2.000E+04 -6.890E-02
   1   15   13     1    13    1.1335E+05 -1.2602E+03   1.1461E+05  0.000E+00  0.000E+00  0.000E+00  4.26906E+01  1.565E-01  2.000E+01  2.000E+04 -6.301E-02
   1   14   14     1    14    1.1461E+05 -1.4698E+03   1.1608E+05  0.000E+00  0.000E+00  0.000E+00  4.22144E+01  1.576E-01  2.000E+01  2.000E+04 -7.349E-02
   1   13   15     1    15    1.1608E+05 -1.7571E+03   1.1784E+05  0.000E+00  0.000E+00  0.000E+00  4.17385E+01  1.589E-01  2.000E+01  2.000E+04 -8.785E-02
   1   12   16     1    16    1.1784E+05 -2.5949E+03   1.2043E+05  0.000E+00  0.000E+00  0.000E+00  4.12629E+01  1.607E-01  2.000E+01  2.000E+04 -1.297E-01
   1   12   17     1    17    1.2043E+05 -1.4863E+03   1.2192E+05  0.000E+00  0.000E+00  0.000E+00  4.07873E+01  1.623E-01  2.000E+01  2.000E+04 -7.431E-02
   1   12   18     1    18    1.2192E+05 -1.2780E+03   1.2319E+05  0.000E+00  0.000E+00  0.000E+00  4.03112E+01  1.634E-01  2.000E+01  2.000E+04 -6.390E-02
   1   12   19     1    19    1.2319E+05 -1.7677E+03   1.2496E+05  0.000E+00  0.000E+00  0.000E+00  3.98351E+01  1.646E-01  2.000E+01  2.000E+04 -8.839E-02
   1   13   20     1    20    1.2496E+05  4.4261E+02   1.2452E+05  0.000E+00  0.000E+00  0.000E+00  3.93584E+01  1.652E-01  2.000E+01  2.000E+04  2.213E-02
   1   14   21     1    21    1.2452E+05  2.1512E+03   1.2237E+05  0.000E+00  0.000E+00  0.000E+00  3.88800E+01  1.641E-01  2.000E+01  2.000E+04  1.076E-01
   1   14   22     1    22    1.2237E+05  5.4589E+03   1.1691E+05  0.000E+00  0.000E+00  0.000E+00  3.83997E+01  1.611E-01  2.000E+01  2.000E+04  2.729E-01
   1    9   30     2     1    5.0000E+04  1.0718E+03   4.8928E+04  0.000E+00  0.000E+00  0.000E+00  4.02401E+01  1.151E-01  2.000E+01  2.000E+04  5.359E-02
   1    9   29     2     2    4.8928E+04  7.7996E+02   4.8148E+04  0.000E+00  0.000E+00  0.000E+00  3.99888E+01  1.138E-01  2.000E+01  2.000E+04  3.900E-02
   1    9   28     2     3    4.8148E+04  3.3261E+02   4.7816E+04  0.000E+00  0.000E+00  0.000E+00  3.97380E+01  1.130E-01  2.000E+01  2.000E+04  1.663E-02
   1    9   27     2     4    4.7816E+04 -1.2221E+03   4.9038E+04  0.000E+00  0.000E+00  0.000E+00  3.94887E+01  1.137E-01  2.000E+01  2.000E+04 -6.110E-02
   1   10   26     2     5    4.9038E+04  1.8044E+03   4.7233E+04  0.000E+00  0.000E+00  0.000E+00  3.92383E+01  1.133E-01  2.000E+01  2.000E+04  9.022E-02
   1   11   25     2     6    4.7233E+04  3.0903E+03   4.4143E+04  0.000E+00  0.000E+00  0.000E+00  3.89848E+01  1.098E-01  2.000E+01  2.000E+04  1.545E-01
   1   12   24     2     7    4.4143E+04  8.7789E+02   4.3265E+04  0.000E+00  0.000E+00  0.000E+00  3.87319E+01  1.069E-01  2.000E+01  2.000E+04  4.389E-02
   1   13   23     2     8    4.3265E+04 -1.5139E+02   4.3416E+04  0.000E+00  0.000E+00  0.000E+00  3.84813E+01  1.063E-01  2.000E+01  2.000E+04 -7.569E-03
   1   14   22     2     9    4.3416E+04  2.0631E+03   4.1353E+04  0.000E+00  0.000E+00  0.000E+00  3.82299E+01  1.049E-01  2.000E+01  2.000E+04  1.032E-01
   1   14   22     3     1    1.5826E+05 -8.2135E+03   1.6648E+05  0.000E+00  0.000E+00  0.000E+00  3.77161E+01  1.605E-01  2.000E+01  2.000E+04 -4.107E-01
   1   15   23     3     2    1.6648E+05 -1.7541E+02   1.6665E+05  0.000E+00  0.000E+00  0.000E+00  3.68297E+01  1.630E-01  2.000E+01  2.000E+04 -8.771E-03
   1   15   24     3     3    1.6665E+05 -1.4668E+02   1.6680E+05  0.000E+00  0.000E+00  0.000E+00  3.59409E+01  1.631E-01  2.000E+01  2.000E+04 -7.334E-03
   1   15   25     3     4    1.6680E+05 -8.7430E+01   1.6689E+05  0.000E+00  0.000E+00  0.000E+00  3.50521E+01  1.632E-01  2.000E+01  2.000E+04 -4.372E-03
   1   15   26     3     5    1.6689E+05  1.2819E+02   1.6676E+05  0.000E+00  0.000E+00  0.000E+00  3.41632E+01  1.632E-01  2.000E+01  2.000E+04  6.409E-03
   1   16   27     3     6    1.6676E+05  3.0175E+02   1.6646E+05  0.000E+00  0.000E+00  0.000E+00  3.32742E+01  1.630E-01  2.000E+01  2.000E+04  1.509E-02
   1   17   28     3     7    1.6646E+05  5.7657E+03   1.6069E+05  0.000E+00  0.000E+00  0.000E+00  3.23835E+01  1.613E-01  2.000E+01  2.000E+04  2.883E-01
   1   18   29     3     8    1.6069E+05  2.5168E+03   1.5817E+05  0.000E+00  0.000E+00  0.000E+00  3.14921E+01  1.588E-01  2.000E+01  2.000E+04  1.258E-01
   1   18   30     3     9    1.5817E+05 -3.3991E+01   1.5821E+05  0.000E+00  0.000E+00  0.000E+00  3.06025E+01  1.581E-01  2.000E+01  2.000E+04 -1.700E-03



1
              HEAD IN LAYER   1 AT END OF TIME STEP   1 IN STRESS PERIOD    9
  ---------------------------------------------------------------------------

          1      2      3      4      5      6      7      8      9     10
         11     12     13     14     15     16     17     18     19     20
         21     22     23     24     25     26     27     28     29     30
 .........................................................................
   1  ****** ****** ****** ****** ****** ****** ****** ****** ****** ******
      ****** ****** ****** ****** ****** ****** ****** ****** ****** ******
      ****** ****** ****** ****** ****** ****** ****** ****** ****** ******
   2  ****** ****** ****** ****** ****** ****** ****** ****** ****** ******
      ****** ****** ****** ****** ****** ****** ****** ****** ****** ******
      ****** ****** ****** ****** ****** ****** ****** ****** ****** ******
   3  ****** ****** ****** ****** ****** ****** ****** ****** ****** ******
      ****** ****** ****** ****** ****** ****** ****** ****** ****** ******
      ****** ****** ****** ****** ****** ****** ****** ****** ****** ******
   4  ****** ****** ****** ****** ****** ****** ****** ****** ****** ******
      ****** ****** ****** ****** ****** ****** ****** ****** ****** ******
      ****** ****** ****** ****** ****** ****** ****** ****** ****** ******
   5  ****** ****** ****** ****** ****** ****** ****** ****** ****** ******
      ****** ****** ****** ****** ****** ****** ****** ****** ****** ******
      ****** ****** ****** ****** ****** ****** ****** ****** ****** ******
   6  ****** ****** ****** ****** ****** ****** ****** ****** ****** ******
      ****** ****** ****** ****** ****** ****** ****** ****** ****** ******
      ****** ****** ****** ****** ****** ****** ****** ****** ****** ******
   7  ****** ****** ****** ****** ****** ****** ****** ****** ****** ******
      ****** ****** ****** ****** ****** ****** ****** ****** ****** ******
      ****** ****** ****** ****** ****** ****** ****** ****** ****** ******
   8  ****** ****** ****** ****** ****** ****** ****** ****** ****** ******
      ****** ****** ****** ****** ****** ****** ****** ****** ****** ******
      ****** ****** ****** ****** ****** ****** ****** ****** ****** ******
   9  ****** ****** ****** ****** ****** ****** ****** ****** ****** ******
      ****** ****** ****** ****** ****** ****** ****** ****** ****** ******
      ****** ****** ****** ****** ****** ****** ****** ****** ****** ******
  10  ****** ****** ****** ****** ****** ****** ****** ****** ****** ******
      ****** ****** ****** ****** ****** ****** ****** ****** ****** ******
      ****** ****** ****** ****** ****** ****** ****** ****** ****** ******
  11  ****** ****** ****** ****** ****** ****** ****** ****** ****** ******
      ****** ****** ****** ****** ****** ****** ****** ****** ****** ******
      ****** ****** ****** ****** ****** ****** ****** ****** ****** ******
  12  ****** ****** ****** ****** ****** ****** ****** ****** ****** ******
      ****** ****** ****** ****** ****** ****** ****** ****** ****** ******
      ****** ****** ****** ****** ****** ****** ****** ****** ****** ******
  13  ****** ****** ****** ****** ****** ****** ****** ****** ****** ******
      ****** ****** ****** ****** ****** ****** ****** ****** ****** ******
      ****** ****** ****** ****** ****** ****** ****** ****** ****** ******
  14  ****** ****** ****** ****** ****** ****** ****** ****** ****** ******
      ****** ****** ****** ****** ****** ****** ****** ****** ****** ******
      ****** ****** ****** ****** ****** ****** ****** ****** ****** ******
  15  ****** ****** ****** ****** ****** ****** ****** ****** ****** ******
      ****** ****** ****** ****** ****** ****** ****** ****** ****** ******
      ****** ****** ****** ****** ****** ****** ****** ****** ****** ******
  16  ****** ****** ****** ****** ****** ****** ****** ****** ****** ******
      ****** ****** ****** ****** ****** ****** ****** ****** ****** ******
      ****** ****** ****** ****** ****** ****** ****** ****** ****** ******
  17  ****** ****** ****** ****** ****** ****** ****** ****** ****** ******
      ****** ****** ****** ****** ****** ****** ****** ****** ****** ******
      ****** ****** ****** ****** ****** ****** ****** ****** ****** ******
  18  ****** ****** ****** ****** ****** ****** ****** ****** ****** ******
      ****** ****** ****** ****** ****** ****** ****** ****** ****** ******
      ****** ****** ****** ****** ****** ****** ****** ****** ****** ******
  19  ****** ****** ****** ****** ****** ****** ****** ****** ****** ******
      ****** ****** ****** ****** ****** ****** ****** ****** ****** ******
      ****** ****** ****** ****** ****** ****** ****** ****** ****** ******
  20  ****** ****** ****** ****** ****** ****** ****** ****** ****** ******
      ****** ****** ****** ****** ****** ****** ****** ****** ****** ******
      ****** ****** ****** ****** ****** ****** ****** ****** ****** ******
  21  ****** ****** ****** ****** ****** ****** ****** ****** ****** ******
      ****** ****** ****** ****** ****** ****** ****** ****** ****** ******
      ****** ****** ****** ****** ****** ****** ****** ****** ****** ******
  22  ****** ****** ****** ****** ****** ****** ****** ****** ****** ******
      ****** ****** ****** ****** ****** ****** ****** ****** ****** ******
      ****** ****** ****** ****** ****** ****** ****** ****** ****** ******
  23  ****** ****** ****** ****** ****** ****** ****** ****** ****** ******
      ****** ****** ****** ****** ****** ****** ****** ****** ****** ******
      ****** ****** ****** ****** ****** ****** ****** ****** ****** ******
  24  ****** ****** ****** ****** ****** ****** ****** ****** ****** ******
      ****** ****** ****** ****** ****** ****** ****** ****** ****** ******
      ****** ****** ****** ****** ****** ****** ****** ****** ****** ******
  25  ****** ****** ****** ****** ****** ****** ****** ****** ****** ******
      ****** ****** ****** ****** ****** ****** ****** ****** ****** ******
      ****** ****** ****** ****** ****** ****** ****** ****** ****** ******

 HEAD WILL BE SAVED ON UNIT   51 AT END OF TIME STEP    1, STRESS PERIOD    9
1
  VOLUMETRIC BUDGET FOR ENTIRE MODEL AT END OF TIME STEP    1, STRESS PERIOD   9
  ------------------------------------------------------------------------------

     CUMULATIVE VOLUMES      L**3       RATES FOR THIS TIME STEP      L**3/T
     ------------------                 ------------------------

           IN:                                      IN:
           ---                                      ---
             STORAGE =    32580830.8605               STORAGE =        7010.0437
       CONSTANT HEAD =    20871750.9052         CONSTANT HEAD =       31917.6902
               WELLS =           0.0000                 WELLS =           0.0000
            RECHARGE =    18878400.0000              RECHARGE =       13800.0000
      STREAM LEAKAGE =    16605594.5621        STREAM LEAKAGE =       26785.1809

            TOTAL IN =    88936576.3278              TOTAL IN =       79512.9148

          OUT:                                     OUT:
          ----                                     ----
             STORAGE =     1000507.1734               STORAGE =           0.0000
       CONSTANT HEAD =           0.0000         CONSTANT HEAD =           0.0000
               WELLS =    36595302.9558                 WELLS =       44519.8333
            RECHARGE =           0.0000              RECHARGE =           0.0000
      STREAM LEAKAGE =    51340767.9995        STREAM LEAKAGE =       34993.0822

           TOTAL OUT =    88936578.1287             TOTAL OUT =       79512.9155

            IN - OUT =          -1.8009              IN - OUT =      -7.2708E-04

 PERCENT DISCREPANCY =          -0.00     PERCENT DISCREPANCY =          -0.00






         TIME SUMMARY AT END OF TIME STEP    1 IN STRESS PERIOD    9
                    SECONDS     MINUTES      HOURS       DAYS        YEARS
                    -----------------------------------------------------------
   TIME STEP LENGTH 7.94880E+06 1.32480E+05  2208.0      92.000     0.25188    
 STRESS PERIOD TIME 7.94880E+06 1.32480E+05  2208.0      92.000     0.25188    
         TOTAL TIME 7.10208E+07 1.18368E+06  19728.      822.00      2.2505    
1
1
                            STRESS PERIOD NO.   10, LENGTH =   91.00000    
                            -----------------------------------------------

                              NUMBER OF TIME STEPS =     1

                               MULTIPLIER FOR DELT =     1.500

                            INITIAL TIME STEP SIZE =   91.00000    

 WELL NO.  LAYER   ROW   COL   STRESS RATE         
 --------------------------------------------------
      1      1     15     20     -0.1192E+05
      2      1     17     29     -0.1435E+05
      3      1     12     29      -6954.    
      4      1     12     26     -0.1129E+05

      4 WELLS

                 RECHARGE =  2.000000E-03

 REUSING STREAM SEGMENT DATA FROM LAST STRESS PERIOD
 
 SOLVING FOR HEAD 


     7 CALLS TO PCG ROUTINE FOR TIME STEP   1 IN STRESS PERIOD   10
    26 TOTAL ITERATIONS

 OUTPUT CONTROL FOR STRESS PERIOD   10   TIME STEP    1
    SAVE BUDGET
    SAVE HEAD FOR ALL LAYERS
    PRINT HEAD FOR ALL LAYERS
 UBDSV2 SAVING "STREAMFLOW OUT  " ON UNIT  50 AT TIME STEP  1, STRESS PERIOD  10



 STREAM LISTING     PERIOD     10   STEP        1

 LAYER ROW COL. STREAM  RCH.  FLOW INTO     FLOW TO   FLOW OUT OF   OVRLND.     DIRECT     STREAM       STREAM     STREAM     STREAM   STREAMBED  STREAMBED
                SEG.NO.  NO.  STRM. RCH.    AQUIFER    STRM. RCH.    RUNOFF     PRECIP       ET          HEAD       DEPTH      WIDTH   CONDCTNC.   GRADIENT

   1   13    1     1     1    1.0000E+05 -2.1495E+03   1.0215E+05  0.000E+00  0.000E+00  0.000E+00  4.84069E+01  1.456E-01  2.000E+01  2.000E+04 -1.075E-01
   1   13    2     1     2    1.0215E+05 -3.1470E+03   1.0530E+05  0.000E+00  0.000E+00  0.000E+00  4.79320E+01  1.479E-01  2.000E+01  2.000E+04 -1.573E-01
   1   14    3     1     3    1.0530E+05 -5.9807E+02   1.0589E+05  0.000E+00  0.000E+00  0.000E+00  4.74563E+01  1.495E-01  2.000E+01  2.000E+04 -2.990E-02
   1   15    4     1     4    1.0589E+05 -5.7986E+02   1.0647E+05  0.000E+00  0.000E+00  0.000E+00  4.69795E+01  1.500E-01  2.000E+01  2.000E+04 -2.899E-02
   1   16    5     1     5    1.0647E+05 -2.0731E+03   1.0855E+05  0.000E+00  0.000E+00  0.000E+00  4.65033E+01  1.511E-01  2.000E+01  2.000E+04 -1.037E-01
   1   16    6     1     6    1.0855E+05 -1.2930E+03   1.0984E+05  0.000E+00  0.000E+00  0.000E+00  4.60275E+01  1.525E-01  2.000E+01  2.000E+04 -6.465E-02
   1   16    7     1     7    1.0984E+05 -1.2607E+03   1.1110E+05  0.000E+00  0.000E+00  0.000E+00  4.55513E+01  1.536E-01  2.000E+01  2.000E+04 -6.304E-02
   1   16    8     1     8    1.1110E+05 -1.2500E+03   1.1235E+05  0.000E+00  0.000E+00  0.000E+00  4.50751E+01  1.546E-01  2.000E+01  2.000E+04 -6.250E-02
   1   16    9     1     9    1.1235E+05 -1.2362E+03   1.1359E+05  0.000E+00  0.000E+00  0.000E+00  4.45988E+01  1.556E-01  2.000E+01  2.000E+04 -6.181E-02
   1   16   10     1    10    1.1359E+05 -1.2156E+03   1.1480E+05  0.000E+00  0.000E+00  0.000E+00  4.41226E+01  1.566E-01  2.000E+01  2.000E+04 -6.078E-02
   1   16   11     1    11    1.1480E+05 -1.2015E+03   1.1600E+05  0.000E+00  0.000E+00  0.000E+00  4.36463E+01  1.576E-01  2.000E+01  2.000E+04 -6.008E-02
   1   16   12     1    12    1.1600E+05 -1.9483E+03   1.1795E+05  0.000E+00  0.000E+00  0.000E+00  4.31703E+01  1.589E-01  2.000E+01  2.000E+04 -9.741E-02
   1   15   13     1    13    1.1795E+05 -1.8483E+03   1.1980E+05  0.000E+00  0.000E+00  0.000E+00  4.26946E+01  1.605E-01  2.000E+01  2.000E+04 -9.242E-02
   1   14   14     1    14    1.1980E+05 -2.0658E+03   1.2187E+05  0.000E+00  0.000E+00  0.000E+00  4.22189E+01  1.620E-01  2.000E+01  2.000E+04 -1.033E-01
   1   13   15     1    15    1.2187E+05 -2.3435E+03   1.2421E+05  0.000E+00  0.000E+00  0.000E+00  4.17434E+01  1.638E-01  2.000E+01  2.000E+04 -1.172E-01
   1   12   16     1    16    1.2421E+05 -3.1608E+03   1.2737E+05  0.000E+00  0.000E+00  0.000E+00  4.12683E+01  1.660E-01  2.000E+01  2.000E+04 -1.580E-01
   1   12   17     1    17    1.2737E+05 -1.9139E+03   1.2929E+05  0.000E+00  0.000E+00  0.000E+00  4.07930E+01  1.680E-01  2.000E+01  2.000E+04 -9.570E-02
   1   12   18     1    18    1.2929E+05 -1.7012E+03   1.3099E+05  0.000E+00  0.000E+00  0.000E+00  4.03171E+01  1.694E-01  2.000E+01  2.000E+04 -8.506E-02
   1   12   19     1    19    1.3099E+05 -2.2884E+03   1.3327E+05  0.000E+00  0.000E+00  0.000E+00  3.98414E+01  1.710E-01  2.000E+01  2.000E+04 -1.144E-01
   1   13   20     1    20    1.3327E+05 -7.9815E+01   1.3335E+05  0.000E+00  0.000E+00  0.000E+00  3.93651E+01  1.719E-01  2.000E+01  2.000E+04 -3.991E-03
   1   14   21     1    21    1.3335E+05  1.6253E+03   1.3173E+05  0.000E+00  0.000E+00  0.000E+00  3.88872E+01  1.713E-01  2.000E+01  2.000E+04  8.127E-02
   1   14   22     1    22    1.3173E+05  5.3271E+03   1.2640E+05  0.000E+00  0.000E+00  0.000E+00  3.84072E+01  1.686E-01  2.000E+01  2.000E+04  2.664E-01
   1    9   30     2     1    5.0000E+04  6.5709E+02   4.9343E+04  0.000E+00  0.000E+00  0.000E+00  4.02404E+01  1.154E-01  2.000E+01  2.000E+04  3.285E-02
   1    9   29     2     2    4.9343E+04  3.6749E+02   4.8975E+04  0.000E+00  0.000E+00  0.000E+00  3.99897E+01  1.147E-01  2.000E+01  2.000E+04  1.837E-02
   1    9   28     2     3    4.8975E+04 -7.9135E+01   4.9055E+04  0.000E+00  0.000E+00  0.000E+00  3.97395E+01  1.145E-01  2.000E+01  2.000E+04 -3.957E-03
   1    9   27     2     4    4.9055E+04 -1.7763E+03   5.0831E+04  0.000E+00  0.000E+00  0.000E+00  3.94908E+01  1.158E-01  2.000E+01  2.000E+04 -8.882E-02
   1   10   26     2     5    5.0831E+04  1.2504E+03   4.9580E+04  0.000E+00  0.000E+00  0.000E+00  3.92412E+01  1.162E-01  2.000E+01  2.000E+04  6.252E-02
   1   11   25     2     6    4.9580E+04  2.5609E+03   4.7019E+04  0.000E+00  0.000E+00  0.000E+00  3.89885E+01  1.135E-01  2.000E+01  2.000E+04  1.280E-01
   1   12   24     2     7    4.7019E+04  3.9887E+02   4.6621E+04  0.000E+00  0.000E+00  0.000E+00  3.87364E+01  1.114E-01  2.000E+01  2.000E+04  1.994E-02
   1   13   23     2     8    4.6621E+04 -3.0016E+02   4.6921E+04  0.000E+00  0.000E+00  0.000E+00  3.84863E+01  1.113E-01  2.000E+01  2.000E+04 -1.501E-02
   1   14   22     2     9    4.6921E+04  1.8863E+03   4.5034E+04  0.000E+00  0.000E+00  0.000E+00  3.82352E+01  1.102E-01  2.000E+01  2.000E+04  9.432E-02
   1   14   22     3     1    1.7144E+05 -8.3406E+03   1.7978E+05  0.000E+00  0.000E+00  0.000E+00  3.77238E+01  1.683E-01  2.000E+01  2.000E+04 -4.170E-01
   1   15   23     3     2    1.7978E+05 -3.3803E+02   1.8012E+05  0.000E+00  0.000E+00  0.000E+00  3.68374E+01  1.708E-01  2.000E+01  2.000E+04 -1.690E-02
   1   15   24     3     3    1.8012E+05 -2.8390E+02   1.8040E+05  0.000E+00  0.000E+00  0.000E+00  3.59487E+01  1.709E-01  2.000E+01  2.000E+04 -1.420E-02
   1   15   25     3     4    1.8040E+05 -2.2806E+02   1.8063E+05  0.000E+00  0.000E+00  0.000E+00  3.50600E+01  1.711E-01  2.000E+01  2.000E+04 -1.140E-02
   1   15   26     3     5    1.8063E+05 -3.4083E+01   1.8066E+05  0.000E+00  0.000E+00  0.000E+00  3.41712E+01  1.712E-01  2.000E+01  2.000E+04 -1.704E-03
   1   16   27     3     6    1.8066E+05  1.1584E+02   1.8055E+05  0.000E+00  0.000E+00  0.000E+00  3.32822E+01  1.711E-01  2.000E+01  2.000E+04  5.792E-03
   1   17   28     3     7    1.8055E+05  5.2448E+03   1.7530E+05  0.000E+00  0.000E+00  0.000E+00  3.23918E+01  1.696E-01  2.000E+01  2.000E+04  2.622E-01
   1   18   29     3     8    1.7530E+05  1.9650E+03   1.7334E+05  0.000E+00  0.000E+00  0.000E+00  3.15009E+01  1.675E-01  2.000E+01  2.000E+04  9.825E-02
   1   18   30     3     9    1.7334E+05 -4.5946E+02   1.7380E+05  0.000E+00  0.000E+00  0.000E+00  3.06115E+01  1.671E-01  2.000E+01  2.000E+04 -2.297E-02



1
              HEAD IN LAYER   1 AT END OF TIME STEP   1 IN STRESS PERIOD   10
  ---------------------------------------------------------------------------

          1      2      3      4      5      6      7      8      9     10
         11     12     13     14     15     16     17     18     19     20
         21     22     23     24     25     26     27     28     29     30
 .........................................................................
   1  ****** ****** ****** ****** ****** ****** ****** ****** ****** ******
      ****** ****** ****** ****** ****** ****** ****** ****** ****** ******
      ****** ****** ****** ****** ****** ****** ****** ****** ****** ******
   2  ****** ****** ****** ****** ****** ****** ****** ****** ****** ******
      ****** ****** ****** ****** ****** ****** ****** ****** ****** ******
      ****** ****** ****** ****** ****** ****** ****** ****** ****** ******
   3  ****** ****** ****** ****** ****** ****** ****** ****** ****** ******
      ****** ****** ****** ****** ****** ****** ****** ****** ****** ******
      ****** ****** ****** ****** ****** ****** ****** ****** ****** ******
   4  ****** ****** ****** ****** ****** ****** ****** ****** ****** ******
      ****** ****** ****** ****** ****** ****** ****** ****** ****** ******
      ****** ****** ****** ****** ****** ****** ****** ****** ****** ******
   5  ****** ****** ****** ****** ****** ****** ****** ****** ****** ******
      ****** ****** ****** ****** ****** ****** ****** ****** ****** ******
      ****** ****** ****** ****** ****** ****** ****** ****** ****** ******
   6  ****** ****** ****** ****** ****** ****** ****** ****** ****** ******
      ****** ****** ****** ****** ****** ****** ****** ****** ****** ******
      ****** ****** ****** ****** ****** ****** ****** ****** ****** ******
   7  ****** ****** ****** ****** ****** ****** ****** ****** ****** ******
      ****** ****** ****** ****** ****** ****** ****** ****** ****** ******
      ****** ****** ****** ****** ****** ****** ****** ****** ****** ******
   8  ****** ****** ****** ****** ****** ****** ****** ****** ****** ******
      ****** ****** ****** ****** ****** ****** ****** ****** ****** ******
      ****** ****** ****** ****** ****** ****** ****** ****** ****** ******
   9  ****** ****** ****** ****** ****** ****** ****** ****** ****** ******
      ****** ****** ****** ****** ****** ****** ****** ****** ****** ******
      ****** ****** ****** ****** ****** ****** ****** ****** ****** ******
  10  ****** ****** ****** ****** ****** ****** ****** ****** ****** ******
      ****** ****** ****** ****** ****** ****** ****** ****** ****** ******
      ****** ****** ****** ****** ****** ****** ****** ****** ****** ******
  11  ****** ****** ****** ****** ****** ****** ****** ****** ****** ******
      ****** ****** ****** ****** ****** ****** ****** ****** ****** ******
      ****** ****** ****** ****** ****** ****** ****** ****** ****** ******
  12  ****** ****** ****** ****** ****** ****** ****** ****** ****** ******
      ****** ****** ****** ****** ****** ****** ****** ****** ****** ******
      ****** ****** ****** ****** ****** ****** ****** ****** ****** ******
  13  ****** ****** ****** ****** ****** ****** ****** ****** ****** ******
      ****** ****** ****** ****** ****** ****** ****** ****** ****** ******
      ****** ****** ****** ****** ****** ****** ****** ****** ****** ******
  14  ****** ****** ****** ****** ****** ****** ****** ****** ****** ******
      ****** ****** ****** ****** ****** ****** ****** ****** ****** ******
      ****** ****** ****** ****** ****** ****** ****** ****** ****** ******
  15  ****** ****** ****** ****** ****** ****** ****** ****** ****** ******
      ****** ****** ****** ****** ****** ****** ****** ****** ****** ******
      ****** ****** ****** ****** ****** ****** ****** ****** ****** ******
  16  ****** ****** ****** ****** ****** ****** ****** ****** ****** ******
      ****** ****** ****** ****** ****** ****** ****** ****** ****** ******
      ****** ****** ****** ****** ****** ****** ****** ****** ****** ******
  17  ****** ****** ****** ****** ****** ****** ****** ****** ****** ******
      ****** ****** ****** ****** ****** ****** ****** ****** ****** ******
      ****** ****** ****** ****** ****** ****** ****** ****** ****** ******
  18  ****** ****** ****** ****** ****** ****** ****** ****** ****** ******
      ****** ****** ****** ****** ****** ****** ****** ****** ****** ******
      ****** ****** ****** ****** ****** ****** ****** ****** ****** ******
  19  ****** ****** ****** ****** ****** ****** ****** ****** ****** ******
      ****** ****** ****** ****** ****** ****** ****** ****** ****** ******
      ****** ****** ****** ****** ****** ****** ****** ****** ****** ******
  20  ****** ****** ****** ****** ****** ****** ****** ****** ****** ******
      ****** ****** ****** ****** ****** ****** ****** ****** ****** ******
      ****** ****** ****** ****** ****** ****** ****** ****** ****** ******
  21  ****** ****** ****** ****** ****** ****** ****** ****** ****** ******
      ****** ****** ****** ****** ****** ****** ****** ****** ****** ******
      ****** ****** ****** ****** ****** ****** ****** ****** ****** ******
  22  ****** ****** ****** ****** ****** ****** ****** ****** ****** ******
      ****** ****** ****** ****** ****** ****** ****** ****** ****** ******
      ****** ****** ****** ****** ****** ****** ****** ****** ****** ******
  23  ****** ****** ****** ****** ****** ****** ****** ****** ****** ******
      ****** ****** ****** ****** ****** ****** ****** ****** ****** ******
      ****** ****** ****** ****** ****** ****** ****** ****** ****** ******
  24  ****** ****** ****** ****** ****** ****** ****** ****** ****** ******
      ****** ****** ****** ****** ****** ****** ****** ****** ****** ******
      ****** ****** ****** ****** ****** ****** ****** ****** ****** ******
  25  ****** ****** ****** ****** ****** ****** ****** ****** ****** ******
      ****** ****** ****** ****** ****** ****** ****** ****** ****** ******
      ****** ****** ****** ****** ****** ****** ****** ****** ****** ******

 HEAD WILL BE SAVED ON UNIT   51 AT END OF TIME STEP    1, STRESS PERIOD   10
1
  VOLUMETRIC BUDGET FOR ENTIRE MODEL AT END OF TIME STEP    1, STRESS PERIOD  10
  ------------------------------------------------------------------------------

     CUMULATIVE VOLUMES      L**3       RATES FOR THIS TIME STEP      L**3/T
     ------------------                 ------------------------

           IN:                                      IN:
           ---                                      ---
             STORAGE =    32580830.8605               STORAGE =           0.0000
       CONSTANT HEAD =    23505991.6462         CONSTANT HEAD =       28947.7005
               WELLS =           0.0000                 WELLS =           0.0000
            RECHARGE =    23901600.0000              RECHARGE =       55200.0000
      STREAM LEAKAGE =    18552926.6829        STREAM LEAKAGE =       21399.2541

            TOTAL IN =    98541349.1896              TOTAL IN =      105546.9545

          OUT:                                     OUT:
          ----                                     ----
             STORAGE =     2441288.1311               STORAGE =       15832.7578
       CONSTANT HEAD =           0.0000         CONSTANT HEAD =           0.0000
               WELLS =    40646607.7842                 WELLS =       44519.8333
            RECHARGE =           0.0000              RECHARGE =           0.0000
      STREAM LEAKAGE =    55453454.8099        STREAM LEAKAGE =       45194.3606

           TOTAL OUT =    98541350.7252             TOTAL OUT =      105546.9516

            IN - OUT =          -1.5356              IN - OUT =       2.9158E-03

 PERCENT DISCREPANCY =          -0.00     PERCENT DISCREPANCY =           0.00






         TIME SUMMARY AT END OF TIME STEP    1 IN STRESS PERIOD   10
                    SECONDS     MINUTES      HOURS       DAYS        YEARS
                    -----------------------------------------------------------
   TIME STEP LENGTH 7.86240E+06 1.31040E+05  2184.0      91.000     0.24914    
 STRESS PERIOD TIME 7.86240E+06 1.31040E+05  2184.0      91.000     0.24914    
         TOTAL TIME 7.88832E+07 1.31472E+06  21912.      913.00      2.4997    
1
1
                            STRESS PERIOD NO.   11, LENGTH =   91.00000    
                            -----------------------------------------------

                              NUMBER OF TIME STEPS =     1

                               MULTIPLIER FOR DELT =     1.500

                            INITIAL TIME STEP SIZE =   91.00000    

 WELL NO.  LAYER   ROW   COL   STRESS RATE         
 --------------------------------------------------
      1      1     15     20     -0.1192E+05
      2      1     17     29     -0.1435E+05
      3      1     12     29      -6954.    
      4      1     12     26     -0.1129E+05

      4 WELLS

                 RECHARGE =   0.00000    

 REUSING STREAM SEGMENT DATA FROM LAST STRESS PERIOD
 
 SOLVING FOR HEAD 


     7 CALLS TO PCG ROUTINE FOR TIME STEP   1 IN STRESS PERIOD   11
    26 TOTAL ITERATIONS

 OUTPUT CONTROL FOR STRESS PERIOD   11   TIME STEP    1
    SAVE BUDGET
    SAVE HEAD FOR ALL LAYERS
    PRINT HEAD FOR ALL LAYERS
 UBDSV2 SAVING "STREAMFLOW OUT  " ON UNIT  50 AT TIME STEP  1, STRESS PERIOD  11



 STREAM LISTING     PERIOD     11   STEP        1

 LAYER ROW COL. STREAM  RCH.  FLOW INTO     FLOW TO   FLOW OUT OF   OVRLND.     DIRECT     STREAM       STREAM     STREAM     STREAM   STREAMBED  STREAMBED
                SEG.NO.  NO.  STRM. RCH.    AQUIFER    STRM. RCH.    RUNOFF     PRECIP       ET          HEAD       DEPTH      WIDTH   CONDCTNC.   GRADIENT

   1   13    1     1     1    1.0000E+05 -1.5846E+03   1.0158E+05  0.000E+00  0.000E+00  0.000E+00  4.84067E+01  1.453E-01  2.000E+01  2.000E+04 -7.923E-02
   1   13    2     1     2    1.0158E+05 -2.5181E+03   1.0410E+05  0.000E+00  0.000E+00  0.000E+00  4.79312E+01  1.471E-01  2.000E+01  2.000E+04 -1.259E-01
   1   14    3     1     3    1.0410E+05 -3.6768E+02   1.0447E+05  0.000E+00  0.000E+00  0.000E+00  4.74552E+01  1.483E-01  2.000E+01  2.000E+04 -1.838E-02
   1   15    4     1     4    1.0447E+05 -3.3837E+02   1.0481E+05  0.000E+00  0.000E+00  0.000E+00  4.69782E+01  1.486E-01  2.000E+01  2.000E+04 -1.692E-02
   1   16    5     1     5    1.0481E+05 -1.3857E+03   1.0619E+05  0.000E+00  0.000E+00  0.000E+00  4.65016E+01  1.494E-01  2.000E+01  2.000E+04 -6.928E-02
   1   16    6     1     6    1.0619E+05 -8.7918E+02   1.0707E+05  0.000E+00  0.000E+00  0.000E+00  4.60253E+01  1.503E-01  2.000E+01  2.000E+04 -4.396E-02
   1   16    7     1     7    1.0707E+05 -8.6448E+02   1.0794E+05  0.000E+00  0.000E+00  0.000E+00  4.55488E+01  1.511E-01  2.000E+01  2.000E+04 -4.322E-02
   1   16    8     1     8    1.0794E+05 -8.5927E+02   1.0880E+05  0.000E+00  0.000E+00  0.000E+00  4.50723E+01  1.518E-01  2.000E+01  2.000E+04 -4.296E-02
   1   16    9     1     9    1.0880E+05 -8.4772E+02   1.0965E+05  0.000E+00  0.000E+00  0.000E+00  4.45957E+01  1.525E-01  2.000E+01  2.000E+04 -4.239E-02
   1   16   10     1    10    1.0965E+05 -8.2804E+02   1.1047E+05  0.000E+00  0.000E+00  0.000E+00  4.41191E+01  1.532E-01  2.000E+01  2.000E+04 -4.140E-02
   1   16   11     1    11    1.1047E+05 -8.1212E+02   1.1129E+05  0.000E+00  0.000E+00  0.000E+00  4.36425E+01  1.539E-01  2.000E+01  2.000E+04 -4.061E-02
   1   16   12     1    12    1.1129E+05 -1.3032E+03   1.1259E+05  0.000E+00  0.000E+00  0.000E+00  4.31661E+01  1.548E-01  2.000E+01  2.000E+04 -6.516E-02
   1   15   13     1    13    1.1259E+05 -1.1610E+03   1.1375E+05  0.000E+00  0.000E+00  0.000E+00  4.26899E+01  1.558E-01  2.000E+01  2.000E+04 -5.805E-02
   1   14   14     1    14    1.1375E+05 -1.3611E+03   1.1511E+05  0.000E+00  0.000E+00  0.000E+00  4.22137E+01  1.568E-01  2.000E+01  2.000E+04 -6.806E-02
   1   13   15     1    15    1.1511E+05 -1.6448E+03   1.1676E+05  0.000E+00  0.000E+00  0.000E+00  4.17376E+01  1.581E-01  2.000E+01  2.000E+04 -8.224E-02
   1   12   16     1    16    1.1676E+05 -2.4862E+03   1.1924E+05  0.000E+00  0.000E+00  0.000E+00  4.12620E+01  1.598E-01  2.000E+01  2.000E+04 -1.243E-01
   1   12   17     1    17    1.1924E+05 -1.4085E+03   1.2065E+05  0.000E+00  0.000E+00  0.000E+00  4.07863E+01  1.613E-01  2.000E+01  2.000E+04 -7.043E-02
   1   12   18     1    18    1.2065E+05 -1.2033E+03   1.2185E+05  0.000E+00  0.000E+00  0.000E+00  4.03101E+01  1.624E-01  2.000E+01  2.000E+04 -6.016E-02
   1   12   19     1    19    1.2185E+05 -1.6771E+03   1.2353E+05  0.000E+00  0.000E+00  0.000E+00  3.98340E+01  1.635E-01  2.000E+01  2.000E+04 -8.385E-02
   1   13   20     1    20    1.2353E+05  5.3195E+02   1.2300E+05  0.000E+00  0.000E+00  0.000E+00  3.93572E+01  1.640E-01  2.000E+01  2.000E+04  2.660E-02
   1   14   21     1    21    1.2300E+05  2.2220E+03   1.2078E+05  0.000E+00  0.000E+00  0.000E+00  3.88788E+01  1.629E-01  2.000E+01  2.000E+04  1.111E-01
   1   14   22     1    22    1.2078E+05  5.4793E+03   1.1530E+05  0.000E+00  0.000E+00  0.000E+00  3.83984E+01  1.598E-01  2.000E+01  2.000E+04  2.740E-01
   1    9   30     2     1    5.0000E+04  1.1448E+03   4.8855E+04  0.000E+00  0.000E+00  0.000E+00  4.02401E+01  1.151E-01  2.000E+01  2.000E+04  5.724E-02
   1    9   29     2     2    4.8855E+04  8.5213E+02   4.8003E+04  0.000E+00  0.000E+00  0.000E+00  3.99887E+01  1.137E-01  2.000E+01  2.000E+04  4.261E-02
   1    9   28     2     3    4.8003E+04  4.0324E+02   4.7600E+04  0.000E+00  0.000E+00  0.000E+00  3.97378E+01  1.128E-01  2.000E+01  2.000E+04  2.016E-02
   1    9   27     2     4    4.7600E+04 -1.1375E+03   4.8737E+04  0.000E+00  0.000E+00  0.000E+00  3.94883E+01  1.133E-01  2.000E+01  2.000E+04 -5.687E-02
   1   10   26     2     5    4.8737E+04  1.9038E+03   4.6833E+04  0.000E+00  0.000E+00  0.000E+00  3.92378E+01  1.128E-01  2.000E+01  2.000E+04  9.519E-02
   1   11   25     2     6    4.6833E+04  3.1904E+03   4.3643E+04  0.000E+00  0.000E+00  0.000E+00  3.89841E+01  1.091E-01  2.000E+01  2.000E+04  1.595E-01
   1   12   24     2     7    4.3643E+04  9.7122E+02   4.2672E+04  0.000E+00  0.000E+00  0.000E+00  3.87311E+01  1.061E-01  2.000E+01  2.000E+04  4.856E-02
   1   13   23     2     8    4.2672E+04 -1.1452E+02   4.2786E+04  0.000E+00  0.000E+00  0.000E+00  3.84804E+01  1.054E-01  2.000E+01  2.000E+04 -5.726E-03
   1   14   22     2     9    4.2786E+04  2.0903E+03   4.0696E+04  0.000E+00  0.000E+00  0.000E+00  3.82290E+01  1.040E-01  2.000E+01  2.000E+04  1.045E-01
   1   14   22     3     1    1.5599E+05 -8.1941E+03   1.6419E+05  0.000E+00  0.000E+00  0.000E+00  3.77147E+01  1.592E-01  2.000E+01  2.000E+04 -4.097E-01
   1   15   23     3     2    1.6419E+05 -1.4607E+02   1.6433E+05  0.000E+00  0.000E+00  0.000E+00  3.68283E+01  1.617E-01  2.000E+01  2.000E+04 -7.303E-03
   1   15   24     3     3    1.6433E+05 -1.1882E+02   1.6445E+05  0.000E+00  0.000E+00  0.000E+00  3.59395E+01  1.617E-01  2.000E+01  2.000E+04 -5.941E-03
   1   15   25     3     4    1.6445E+05 -5.9145E+01   1.6451E+05  0.000E+00  0.000E+00  0.000E+00  3.50507E+01  1.618E-01  2.000E+01  2.000E+04 -2.957E-03
   1   15   26     3     5    1.6451E+05  1.6157E+02   1.6435E+05  0.000E+00  0.000E+00  0.000E+00  3.41618E+01  1.618E-01  2.000E+01  2.000E+04  8.079E-03
   1   16   27     3     6    1.6435E+05  3.3879E+02   1.6401E+05  0.000E+00  0.000E+00  0.000E+00  3.32727E+01  1.616E-01  2.000E+01  2.000E+04  1.694E-02
   1   17   28     3     7    1.6401E+05  5.8544E+03   1.5816E+05  0.000E+00  0.000E+00  0.000E+00  3.23820E+01  1.598E-01  2.000E+01  2.000E+04  2.927E-01
   1   18   29     3     8    1.5816E+05  2.5865E+03   1.5557E+05  0.000E+00  0.000E+00  0.000E+00  3.14906E+01  1.573E-01  2.000E+01  2.000E+04  1.293E-01
   1   18   30     3     9    1.5557E+05  2.9314E+01   1.5554E+05  0.000E+00  0.000E+00  0.000E+00  3.06009E+01  1.565E-01  2.000E+01  2.000E+04  1.466E-03



1
              HEAD IN LAYER   1 AT END OF TIME STEP   1 IN STRESS PERIOD   11
  ---------------------------------------------------------------------------

          1      2      3      4      5      6      7      8      9     10
         11     12     13     14     15     16     17     18     19     20
         21     22     23     24     25     26     27     28     29     30
 .........................................................................
   1  ****** ****** ****** ****** ****** ****** ****** ****** ****** ******
      ****** ****** ****** ****** ****** ****** ****** ****** ****** ******
      ****** ****** ****** ****** ****** ****** ****** ****** ****** ******
   2  ****** ****** ****** ****** ****** ****** ****** ****** ****** ******
      ****** ****** ****** ****** ****** ****** ****** ****** ****** ******
      ****** ****** ****** ****** ****** ****** ****** ****** ****** ******
   3  ****** ****** ****** ****** ****** ****** ****** ****** ****** ******
      ****** ****** ****** ****** ****** ****** ****** ****** ****** ******
      ****** ****** ****** ****** ****** ****** ****** ****** ****** ******
   4  ****** ****** ****** ****** ****** ****** ****** ****** ****** ******
      ****** ****** ****** ****** ****** ****** ****** ****** ****** ******
      ****** ****** ****** ****** ****** ****** ****** ****** ****** ******
   5  ****** ****** ****** ****** ****** ****** ****** ****** ****** ******
      ****** ****** ****** ****** ****** ****** ****** ****** ****** ******
      ****** ****** ****** ****** ****** ****** ****** ****** ****** ******
   6  ****** ****** ****** ****** ****** ****** ****** ****** ****** ******
      ****** ****** ****** ****** ****** ****** ****** ****** ****** ******
      ****** ****** ****** ****** ****** ****** ****** ****** ****** ******
   7  ****** ****** ****** ****** ****** ****** ****** ****** ****** ******
      ****** ****** ****** ****** ****** ****** ****** ****** ****** ******
      ****** ****** ****** ****** ****** ****** ****** ****** ****** ******
   8  ****** ****** ****** ****** ****** ****** ****** ****** ****** ******
      ****** ****** ****** ****** ****** ****** ****** ****** ****** ******
      ****** ****** ****** ****** ****** ****** ****** ****** ****** ******
   9  ****** ****** ****** ****** ****** ****** ****** ****** ****** ******
      ****** ****** ****** ****** ****** ****** ****** ****** ****** ******
      ****** ****** ****** ****** ****** ****** ****** ****** ****** ******
  10  ****** ****** ****** ****** ****** ****** ****** ****** ****** ******
      ****** ****** ****** ****** ****** ****** ****** ****** ****** ******
      ****** ****** ****** ****** ****** ****** ****** ****** ****** ******
  11  ****** ****** ****** ****** ****** ****** ****** ****** ****** ******
      ****** ****** ****** ****** ****** ****** ****** ****** ****** ******
      ****** ****** ****** ****** ****** ****** ****** ****** ****** ******
  12  ****** ****** ****** ****** ****** ****** ****** ****** ****** ******
      ****** ****** ****** ****** ****** ****** ****** ****** ****** ******
      ****** ****** ****** ****** ****** ****** ****** ****** ****** ******
  13  ****** ****** ****** ****** ****** ****** ****** ****** ****** ******
      ****** ****** ****** ****** ****** ****** ****** ****** ****** ******
      ****** ****** ****** ****** ****** ****** ****** ****** ****** ******
  14  ****** ****** ****** ****** ****** ****** ****** ****** ****** ******
      ****** ****** ****** ****** ****** ****** ****** ****** ****** ******
      ****** ****** ****** ****** ****** ****** ****** ****** ****** ******
  15  ****** ****** ****** ****** ****** ****** ****** ****** ****** ******
      ****** ****** ****** ****** ****** ****** ****** ****** ****** ******
      ****** ****** ****** ****** ****** ****** ****** ****** ****** ******
  16  ****** ****** ****** ****** ****** ****** ****** ****** ****** ******
      ****** ****** ****** ****** ****** ****** ****** ****** ****** ******
      ****** ****** ****** ****** ****** ****** ****** ****** ****** ******
  17  ****** ****** ****** ****** ****** ****** ****** ****** ****** ******
      ****** ****** ****** ****** ****** ****** ****** ****** ****** ******
      ****** ****** ****** ****** ****** ****** ****** ****** ****** ******
  18  ****** ****** ****** ****** ****** ****** ****** ****** ****** ******
      ****** ****** ****** ****** ****** ****** ****** ****** ****** ******
      ****** ****** ****** ****** ****** ****** ****** ****** ****** ******
  19  ****** ****** ****** ****** ****** ****** ****** ****** ****** ******
      ****** ****** ****** ****** ****** ****** ****** ****** ****** ******
      ****** ****** ****** ****** ****** ****** ****** ****** ****** ******
  20  ****** ****** ****** ****** ****** ****** ****** ****** ****** ******
      ****** ****** ****** ****** ****** ****** ****** ****** ****** ******
      ****** ****** ****** ****** ****** ****** ****** ****** ****** ******
  21  ****** ****** ****** ****** ****** ****** ****** ****** ****** ******
      ****** ****** ****** ****** ****** ****** ****** ****** ****** ******
      ****** ****** ****** ****** ****** ****** ****** ****** ****** ******
  22  ****** ****** ****** ****** ****** ****** ****** ****** ****** ******
      ****** ****** ****** ****** ****** ****** ****** ****** ****** ******
      ****** ****** ****** ****** ****** ****** ****** ****** ****** ******
  23  ****** ****** ****** ****** ****** ****** ****** ****** ****** ******
      ****** ****** ****** ****** ****** ****** ****** ****** ****** ******
      ****** ****** ****** ****** ****** ****** ****** ****** ****** ******
  24  ****** ****** ****** ****** ****** ****** ****** ****** ****** ******
      ****** ****** ****** ****** ****** ****** ****** ****** ****** ******
      ****** ****** ****** ****** ****** ****** ****** ****** ****** ******
  25  ****** ****** ****** ****** ****** ****** ****** ****** ****** ******
      ****** ****** ****** ****** ****** ****** ****** ****** ****** ******
      ****** ****** ****** ****** ****** ****** ****** ****** ****** ******

 HEAD WILL BE SAVED ON UNIT   51 AT END OF TIME STEP    1, STRESS PERIOD   11
1
  VOLUMETRIC BUDGET FOR ENTIRE MODEL AT END OF TIME STEP    1, STRESS PERIOD  11
  ------------------------------------------------------------------------------

     CUMULATIVE VOLUMES      L**3       RATES FOR THIS TIME STEP      L**3/T
     ------------------                 ------------------------

           IN:                                      IN:
           ---                                      ---
             STORAGE =    34204178.3483               STORAGE =       17838.9834
       CONSTANT HEAD =    26438162.4304         CONSTANT HEAD =       32221.6570
               WELLS =           0.0000                 WELLS =           0.0000
            RECHARGE =    23901600.0000              RECHARGE =           0.0000
      STREAM LEAKAGE =    21079075.8081        STREAM LEAKAGE =       27759.8805

            TOTAL IN =   105623016.5868              TOTAL IN =       77820.5208

          OUT:                                     OUT:
          ----                                     ----
             STORAGE =     2441288.1311               STORAGE =           0.0000
       CONSTANT HEAD =           0.0000         CONSTANT HEAD =           0.0000
               WELLS =    44697912.6127                 WELLS =       44519.8333
            RECHARGE =           0.0000              RECHARGE =           0.0000
      STREAM LEAKAGE =    58483817.8049        STREAM LEAKAGE =       33300.6923

           TOTAL OUT =   105623018.5486             TOTAL OUT =       77820.5255

            IN - OUT =          -1.9618              IN - OUT =      -4.6837E-03

 PERCENT DISCREPANCY =          -0.00     PERCENT DISCREPANCY =          -0.00






         TIME SUMMARY AT END OF TIME STEP    1 IN STRESS PERIOD   11
                    SECONDS     MINUTES      HOURS       DAYS        YEARS
                    -----------------------------------------------------------
   TIME STEP LENGTH 7.86240E+06 1.31040E+05  2184.0      91.000     0.24914    
 STRESS PERIOD TIME 7.86240E+06 1.31040E+05  2184.0      91.000     0.24914    
         TOTAL TIME 8.67456E+07 1.44576E+06  24096.      1004.0      2.7488    
1
1
                            STRESS PERIOD NO.   12, LENGTH =   91.00000    
                            -----------------------------------------------

                              NUMBER OF TIME STEPS =     1

                               MULTIPLIER FOR DELT =     1.500

                            INITIAL TIME STEP SIZE =   91.00000    

 WELL NO.  LAYER   ROW   COL   STRESS RATE         
 --------------------------------------------------
      1      1     15     20     -0.1192E+05
      2      1     17     29     -0.1435E+05
      3      1     12     29      -6954.    
      4      1     12     26     -0.1129E+05

      4 WELLS

                 RECHARGE =  1.000000E-03

 REUSING STREAM SEGMENT DATA FROM LAST STRESS PERIOD
 
 SOLVING FOR HEAD 


     7 CALLS TO PCG ROUTINE FOR TIME STEP   1 IN STRESS PERIOD   12
    24 TOTAL ITERATIONS

 OUTPUT CONTROL FOR STRESS PERIOD   12   TIME STEP    1
    SAVE BUDGET
    SAVE HEAD FOR ALL LAYERS
    PRINT HEAD FOR ALL LAYERS
 UBDSV2 SAVING "STREAMFLOW OUT  " ON UNIT  50 AT TIME STEP  1, STRESS PERIOD  12



 STREAM LISTING     PERIOD     12   STEP        1

 LAYER ROW COL. STREAM  RCH.  FLOW INTO     FLOW TO   FLOW OUT OF   OVRLND.     DIRECT     STREAM       STREAM     STREAM     STREAM   STREAMBED  STREAMBED
                SEG.NO.  NO.  STRM. RCH.    AQUIFER    STRM. RCH.    RUNOFF     PRECIP       ET          HEAD       DEPTH      WIDTH   CONDCTNC.   GRADIENT

   1   13    1     1     1    1.0000E+05 -1.7309E+03   1.0173E+05  0.000E+00  0.000E+00  0.000E+00  4.84068E+01  1.454E-01  2.000E+01  2.000E+04 -8.654E-02
   1   13    2     1     2    1.0173E+05 -2.6756E+03   1.0441E+05  0.000E+00  0.000E+00  0.000E+00  4.79314E+01  1.473E-01  2.000E+01  2.000E+04 -1.338E-01
   1   14    3     1     3    1.0441E+05 -4.4662E+02   1.0485E+05  0.000E+00  0.000E+00  0.000E+00  4.74555E+01  1.486E-01  2.000E+01  2.000E+04 -2.233E-02
   1   15    4     1     4    1.0485E+05 -4.2104E+02   1.0527E+05  0.000E+00  0.000E+00  0.000E+00  4.69785E+01  1.490E-01  2.000E+01  2.000E+04 -2.105E-02
   1   16    5     1     5    1.0527E+05 -1.5957E+03   1.0687E+05  0.000E+00  0.000E+00  0.000E+00  4.65021E+01  1.499E-01  2.000E+01  2.000E+04 -7.979E-02
   1   16    6     1     6    1.0687E+05 -1.0099E+03   1.0788E+05  0.000E+00  0.000E+00  0.000E+00  4.60260E+01  1.510E-01  2.000E+01  2.000E+04 -5.050E-02
   1   16    7     1     7    1.0788E+05 -9.9020E+02   1.0887E+05  0.000E+00  0.000E+00  0.000E+00  4.55495E+01  1.518E-01  2.000E+01  2.000E+04 -4.951E-02
   1   16    8     1     8    1.0887E+05 -9.8394E+02   1.0985E+05  0.000E+00  0.000E+00  0.000E+00  4.50731E+01  1.526E-01  2.000E+01  2.000E+04 -4.920E-02
   1   16    9     1     9    1.0985E+05 -9.7278E+02   1.1083E+05  0.000E+00  0.000E+00  0.000E+00  4.45966E+01  1.534E-01  2.000E+01  2.000E+04 -4.864E-02
   1   16   10     1    10    1.1083E+05 -9.5436E+02   1.1178E+05  0.000E+00  0.000E+00  0.000E+00  4.41202E+01  1.543E-01  2.000E+01  2.000E+04 -4.772E-02
   1   16   11     1    11    1.1178E+05 -9.4059E+02   1.1272E+05  0.000E+00  0.000E+00  0.000E+00  4.36437E+01  1.550E-01  2.000E+01  2.000E+04 -4.703E-02
   1   16   12     1    12    1.1272E+05 -1.5053E+03   1.1423E+05  0.000E+00  0.000E+00  0.000E+00  4.31674E+01  1.560E-01  2.000E+01  2.000E+04 -7.526E-02
   1   15   13     1    13    1.1423E+05 -1.3788E+03   1.1561E+05  0.000E+00  0.000E+00  0.000E+00  4.26913E+01  1.572E-01  2.000E+01  2.000E+04 -6.894E-02
   1   14   14     1    14    1.1561E+05 -1.5798E+03   1.1719E+05  0.000E+00  0.000E+00  0.000E+00  4.22153E+01  1.584E-01  2.000E+01  2.000E+04 -7.899E-02
   1   13   15     1    15    1.1719E+05 -1.8565E+03   1.1904E+05  0.000E+00  0.000E+00  0.000E+00  4.17394E+01  1.598E-01  2.000E+01  2.000E+04 -9.283E-02
   1   12   16     1    16    1.1904E+05 -2.6719E+03   1.2171E+05  0.000E+00  0.000E+00  0.000E+00  4.12640E+01  1.617E-01  2.000E+01  2.000E+04 -1.336E-01
   1   12   17     1    17    1.2171E+05 -1.5632E+03   1.2328E+05  0.000E+00  0.000E+00  0.000E+00  4.07884E+01  1.634E-01  2.000E+01  2.000E+04 -7.816E-02
   1   12   18     1    18    1.2328E+05 -1.3599E+03   1.2464E+05  0.000E+00  0.000E+00  0.000E+00  4.03123E+01  1.645E-01  2.000E+01  2.000E+04 -6.799E-02
   1   12   19     1    19    1.2464E+05 -1.8707E+03   1.2651E+05  0.000E+00  0.000E+00  0.000E+00  3.98363E+01  1.658E-01  2.000E+01  2.000E+04 -9.353E-02
   1   13   20     1    20    1.2651E+05  3.2099E+02   1.2619E+05  0.000E+00  0.000E+00  0.000E+00  3.93596E+01  1.664E-01  2.000E+01  2.000E+04  1.605E-02
   1   14   21     1    21    1.2619E+05  2.0276E+03   1.2416E+05  0.000E+00  0.000E+00  0.000E+00  3.88814E+01  1.655E-01  2.000E+01  2.000E+04  1.014E-01
   1   14   22     1    22    1.2416E+05  5.4243E+03   1.1873E+05  0.000E+00  0.000E+00  0.000E+00  3.84012E+01  1.625E-01  2.000E+01  2.000E+04  2.712E-01
   1    9   30     2     1    5.0000E+04  9.6817E+02   4.9032E+04  0.000E+00  0.000E+00  0.000E+00  4.02402E+01  1.152E-01  2.000E+01  2.000E+04  4.841E-02
   1    9   29     2     2    4.9032E+04  6.7751E+02   4.8354E+04  0.000E+00  0.000E+00  0.000E+00  3.99890E+01  1.140E-01  2.000E+01  2.000E+04  3.388E-02
   1    9   28     2     3    4.8354E+04  2.3209E+02   4.8122E+04  0.000E+00  0.000E+00  0.000E+00  3.97384E+01  1.134E-01  2.000E+01  2.000E+04  1.160E-02
   1    9   27     2     4    4.8122E+04 -1.3473E+03   4.9469E+04  0.000E+00  0.000E+00  0.000E+00  3.94892E+01  1.142E-01  2.000E+01  2.000E+04 -6.736E-02
   1   10   26     2     5    4.9469E+04  1.6735E+03   4.7796E+04  0.000E+00  0.000E+00  0.000E+00  3.92390E+01  1.140E-01  2.000E+01  2.000E+04  8.367E-02
   1   11   25     2     6    4.7796E+04  2.9641E+03   4.4832E+04  0.000E+00  0.000E+00  0.000E+00  3.89857E+01  1.107E-01  2.000E+01  2.000E+04  1.482E-01
   1   12   24     2     7    4.4832E+04  7.6462E+02   4.4067E+04  0.000E+00  0.000E+00  0.000E+00  3.87330E+01  1.080E-01  2.000E+01  2.000E+04  3.823E-02
   1   13   23     2     8    4.4067E+04 -1.9219E+02   4.4260E+04  0.000E+00  0.000E+00  0.000E+00  3.84825E+01  1.075E-01  2.000E+01  2.000E+04 -9.609E-03
   1   14   22     2     9    4.4260E+04  2.0249E+03   4.2235E+04  0.000E+00  0.000E+00  0.000E+00  3.82312E+01  1.062E-01  2.000E+01  2.000E+04  1.012E-01
   1   14   22     3     1    1.6097E+05 -8.2450E+03   1.6921E+05  0.000E+00  0.000E+00  0.000E+00  3.77177E+01  1.622E-01  2.000E+01  2.000E+04 -4.122E-01
   1   15   23     3     2    1.6921E+05 -2.1813E+02   1.6943E+05  0.000E+00  0.000E+00  0.000E+00  3.68313E+01  1.646E-01  2.000E+01  2.000E+04 -1.091E-02
   1   15   24     3     3    1.6943E+05 -1.8393E+02   1.6962E+05  0.000E+00  0.000E+00  0.000E+00  3.59425E+01  1.648E-01  2.000E+01  2.000E+04 -9.196E-03
   1   15   25     3     4    1.6962E+05 -1.2552E+02   1.6974E+05  0.000E+00  0.000E+00  0.000E+00  3.50537E+01  1.648E-01  2.000E+01  2.000E+04 -6.276E-03
   1   15   26     3     5    1.6974E+05  8.4080E+01   1.6966E+05  0.000E+00  0.000E+00  0.000E+00  3.41649E+01  1.649E-01  2.000E+01  2.000E+04  4.204E-03
   1   16   27     3     6    1.6966E+05  2.5199E+02   1.6941E+05  0.000E+00  0.000E+00  0.000E+00  3.32759E+01  1.648E-01  2.000E+01  2.000E+04  1.260E-02
   1   17   28     3     7    1.6941E+05  5.6336E+03   1.6377E+05  0.000E+00  0.000E+00  0.000E+00  3.23853E+01  1.630E-01  2.000E+01  2.000E+04  2.817E-01
   1   18   29     3     8    1.6377E+05  2.3857E+03   1.6139E+05  0.000E+00  0.000E+00  0.000E+00  3.14940E+01  1.607E-01  2.000E+01  2.000E+04  1.193E-01
   1   18   30     3     9    1.6139E+05 -1.3884E+02   1.6153E+05  0.000E+00  0.000E+00  0.000E+00  3.06044E+01  1.600E-01  2.000E+01  2.000E+04 -6.942E-03



1
              HEAD IN LAYER   1 AT END OF TIME STEP   1 IN STRESS PERIOD   12
  ---------------------------------------------------------------------------

          1      2      3      4      5      6      7      8      9     10
         11     12     13     14     15     16     17     18     19     20
         21     22     23     24     25     26     27     28     29     30
 .........................................................................
   1  ****** ****** ****** ****** ****** ****** ****** ****** ****** ******
      ****** ****** ****** ****** ****** ****** ****** ****** ****** ******
      ****** ****** ****** ****** ****** ****** ****** ****** ****** ******
   2  ****** ****** ****** ****** ****** ****** ****** ****** ****** ******
      ****** ****** ****** ****** ****** ****** ****** ****** ****** ******
      ****** ****** ****** ****** ****** ****** ****** ****** ****** ******
   3  ****** ****** ****** ****** ****** ****** ****** ****** ****** ******
      ****** ****** ****** ****** ****** ****** ****** ****** ****** ******
      ****** ****** ****** ****** ****** ****** ****** ****** ****** ******
   4  ****** ****** ****** ****** ****** ****** ****** ****** ****** ******
      ****** ****** ****** ****** ****** ****** ****** ****** ****** ******
      ****** ****** ****** ****** ****** ****** ****** ****** ****** ******
   5  ****** ****** ****** ****** ****** ****** ****** ****** ****** ******
      ****** ****** ****** ****** ****** ****** ****** ****** ****** ******
      ****** ****** ****** ****** ****** ****** ****** ****** ****** ******
   6  ****** ****** ****** ****** ****** ****** ****** ****** ****** ******
      ****** ****** ****** ****** ****** ****** ****** ****** ****** ******
      ****** ****** ****** ****** ****** ****** ****** ****** ****** ******
   7  ****** ****** ****** ****** ****** ****** ****** ****** ****** ******
      ****** ****** ****** ****** ****** ****** ****** ****** ****** ******
      ****** ****** ****** ****** ****** ****** ****** ****** ****** ******
   8  ****** ****** ****** ****** ****** ****** ****** ****** ****** ******
      ****** ****** ****** ****** ****** ****** ****** ****** ****** ******
      ****** ****** ****** ****** ****** ****** ****** ****** ****** ******
   9  ****** ****** ****** ****** ****** ****** ****** ****** ****** ******
      ****** ****** ****** ****** ****** ****** ****** ****** ****** ******
      ****** ****** ****** ****** ****** ****** ****** ****** ****** ******
  10  ****** ****** ****** ****** ****** ****** ****** ****** ****** ******
      ****** ****** ****** ****** ****** ****** ****** ****** ****** ******
      ****** ****** ****** ****** ****** ****** ****** ****** ****** ******
  11  ****** ****** ****** ****** ****** ****** ****** ****** ****** ******
      ****** ****** ****** ****** ****** ****** ****** ****** ****** ******
      ****** ****** ****** ****** ****** ****** ****** ****** ****** ******
  12  ****** ****** ****** ****** ****** ****** ****** ****** ****** ******
      ****** ****** ****** ****** ****** ****** ****** ****** ****** ******
      ****** ****** ****** ****** ****** ****** ****** ****** ****** ******
  13  ****** ****** ****** ****** ****** ****** ****** ****** ****** ******
      ****** ****** ****** ****** ****** ****** ****** ****** ****** ******
      ****** ****** ****** ****** ****** ****** ****** ****** ****** ******
  14  ****** ****** ****** ****** ****** ****** ****** ****** ****** ******
      ****** ****** ****** ****** ****** ****** ****** ****** ****** ******
      ****** ****** ****** ****** ****** ****** ****** ****** ****** ******
  15  ****** ****** ****** ****** ****** ****** ****** ****** ****** ******
      ****** ****** ****** ****** ****** ****** ****** ****** ****** ******
      ****** ****** ****** ****** ****** ****** ****** ****** ****** ******
  16  ****** ****** ****** ****** ****** ****** ****** ****** ****** ******
      ****** ****** ****** ****** ****** ****** ****** ****** ****** ******
      ****** ****** ****** ****** ****** ****** ****** ****** ****** ******
  17  ****** ****** ****** ****** ****** ****** ****** ****** ****** ******
      ****** ****** ****** ****** ****** ****** ****** ****** ****** ******
      ****** ****** ****** ****** ****** ****** ****** ****** ****** ******
  18  ****** ****** ****** ****** ****** ****** ****** ****** ****** ******
      ****** ****** ****** ****** ****** ****** ****** ****** ****** ******
      ****** ****** ****** ****** ****** ****** ****** ****** ****** ******
  19  ****** ****** ****** ****** ****** ****** ****** ****** ****** ******
      ****** ****** ****** ****** ****** ****** ****** ****** ****** ******
      ****** ****** ****** ****** ****** ****** ****** ****** ****** ******
  20  ****** ****** ****** ****** ****** ****** ****** ****** ****** ******
      ****** ****** ****** ****** ****** ****** ****** ****** ****** ******
      ****** ****** ****** ****** ****** ****** ****** ****** ****** ******
  21  ****** ****** ****** ****** ****** ****** ****** ****** ****** ******
      ****** ****** ****** ****** ****** ****** ****** ****** ****** ******
      ****** ****** ****** ****** ****** ****** ****** ****** ****** ******
  22  ****** ****** ****** ****** ****** ****** ****** ****** ****** ******
      ****** ****** ****** ****** ****** ****** ****** ****** ****** ******
      ****** ****** ****** ****** ****** ****** ****** ****** ****** ******
  23  ****** ****** ****** ****** ****** ****** ****** ****** ****** ******
      ****** ****** ****** ****** ****** ****** ****** ****** ****** ******
      ****** ****** ****** ****** ****** ****** ****** ****** ****** ******
  24  ****** ****** ****** ****** ****** ****** ****** ****** ****** ******
      ****** ****** ****** ****** ****** ****** ****** ****** ****** ******
      ****** ****** ****** ****** ****** ****** ****** ****** ****** ******
  25  ****** ****** ****** ****** ****** ****** ****** ****** ****** ******
      ****** ****** ****** ****** ****** ****** ****** ****** ****** ******
      ****** ****** ****** ****** ****** ****** ****** ****** ****** ******

 HEAD WILL BE SAVED ON UNIT   51 AT END OF TIME STEP    1, STRESS PERIOD   12
1
  VOLUMETRIC BUDGET FOR ENTIRE MODEL AT END OF TIME STEP    1, STRESS PERIOD  12
  ------------------------------------------------------------------------------

     CUMULATIVE VOLUMES      L**3       RATES FOR THIS TIME STEP      L**3/T
     ------------------                 ------------------------

           IN:                                      IN:
           ---                                      ---
             STORAGE =    34204616.8215               STORAGE =           4.8184
       CONSTANT HEAD =    29306236.6363         CONSTANT HEAD =       31517.2990
               WELLS =           0.0000                 WELLS =           0.0000
            RECHARGE =    26413200.0000              RECHARGE =       27600.0000
      STREAM LEAKAGE =    23393486.9738        STREAM LEAKAGE =       25433.0897

            TOTAL IN =   113317540.4316              TOTAL IN =       84555.2071

          OUT:                                     OUT:
          ----                                     ----
             STORAGE =     2721265.7112               STORAGE =        3076.6767
       CONSTANT HEAD =           0.0000         CONSTANT HEAD =           0.0000
               WELLS =    48749217.4411                 WELLS =       44519.8333
            RECHARGE =           0.0000              RECHARGE =           0.0000
      STREAM LEAKAGE =    61847059.1608        STREAM LEAKAGE =       36958.6962

           TOTAL OUT =   113317542.3131             TOTAL OUT =       84555.2062

            IN - OUT =          -1.8815              IN - OUT =       8.8194E-04

 PERCENT DISCREPANCY =          -0.00     PERCENT DISCREPANCY =           0.00






         TIME SUMMARY AT END OF TIME STEP    1 IN STRESS PERIOD   12
                    SECONDS     MINUTES      HOURS       DAYS        YEARS
                    -----------------------------------------------------------
   TIME STEP LENGTH 7.86240E+06 1.31040E+05  2184.0      91.000     0.24914    
 STRESS PERIOD TIME 7.86240E+06 1.31040E+05  2184.0      91.000     0.24914    
         TOTAL TIME 9.46080E+07 1.57680E+06  26280.      1095.0      2.9979    
1

 Run end date and time (yyyy/mm/dd hh:mm:ss): 2018/10/16 20:41:55
 Elapsed run time:  0.054 Seconds

