                                  MODFLOW-2005     
      U.S. GEOLOGICAL SURVEY MODULAR FINITE-DIFFERENCE GROUND-WATER FLOW MODEL
                            VERSION 1.11.00 8/8/2013

 LIST FILE: supply2.lst
                         UNIT   10

 OPENING ..\data\supply.dis
 FILE TYPE:DIS   UNIT   11   STATUS:OLD    
 FORMAT:FORMATTED              ACCESS:SEQUENTIAL          

 OPENING ..\data\supply.ba6
 FILE TYPE:BAS6   UNIT   12   STATUS:OLD    
 FORMAT:FORMATTED              ACCESS:SEQUENTIAL          

 OPENING ..\data\supply_het.bc6
 FILE TYPE:BCF6   UNIT   13   STATUS:OLD    
 FORMAT:FORMATTED              ACCESS:SEQUENTIAL          

 OPENING ..\data\supply.rch
 FILE TYPE:RCH   UNIT   15   STATUS:OLD    
 FORMAT:FORMATTED              ACCESS:SEQUENTIAL          

 OPENING ..\data\supply2.sfr
 FILE TYPE:SFR   UNIT   16   STATUS:OLD    
 FORMAT:FORMATTED              ACCESS:SEQUENTIAL          

 OPENING ..\data\supply.oc
 FILE TYPE:OC   UNIT   17   STATUS:OLD    
 FORMAT:FORMATTED              ACCESS:SEQUENTIAL          

 OPENING ..\data\supply.pcg
 FILE TYPE:PCG   UNIT   18   STATUS:OLD    
 FORMAT:FORMATTED              ACCESS:SEQUENTIAL          

 OPENING supply2.wel
 FILE TYPE:WEL   UNIT   19   STATUS:OLD    
 FORMAT:FORMATTED              ACCESS:SEQUENTIAL          

 OPENING supply2sf.cbc
 FILE TYPE:DATA(BINARY)   UNIT   50   STATUS:UNKNOWN
 FORMAT:BINARY                 ACCESS:SEQUENTIAL          

 OPENING supply2hd.bhd
 FILE TYPE:DATA(BINARY)   UNIT   51   STATUS:UNKNOWN
 FORMAT:BINARY                 ACCESS:SEQUENTIAL          

 BAS -- BASIC PACKAGE, VERSION 7, 5/2/2005 INPUT READ FROM UNIT   12
 
 MODFLOW was compiled using uniform precision
 Precision of REAL and DOUBLE PRECISION variables:          15

 DISCRETIZATION INPUT DATA READ FROM UNIT   11
    1 LAYERS        25 ROWS        30 COLUMNS
   12 STRESS PERIOD(S) IN SIMULATION
 MODEL TIME UNIT IS DAYS
 MODEL LENGTH UNIT IS UNDEFINED
  Confining bed flag for each layer:
   0

                     DELR =   200.000    

                     DELC =   200.000    

 TOP ELEVATION OF LAYER 1 =  100.0000    

   MODEL LAYER BOTTOM EL. =   0.00000     FOR LAYER   1


 STRESS PERIOD     LENGTH       TIME STEPS     MULTIPLIER FOR DELT    SS FLAG
 ----------------------------------------------------------------------------
        1         92.00000          1                    1.500         TR
        2         91.00000          1                    1.500         TR
        3         91.00000          1                    1.500         TR
        4         91.00000          1                    1.500         TR
        5         92.00000          1                    1.500         TR
        6         91.00000          1                    1.500         TR
        7         91.00000          1                    1.500         TR
        8         91.00000          1                    1.500         TR
        9         92.00000          1                    1.500         TR
       10         91.00000          1                    1.500         TR
       11         91.00000          1                    1.500         TR
       12         91.00000          1                    1.500         TR

 TRANSIENT SIMULATION



 
 #MODOFC transient water supply sample problem                                   
 #                                                                               
 THE FREE FORMAT OPTION HAS BEEN SELECTED



                     BOUNDARY ARRAY FOR LAYER   1
 READING ON UNIT   12 WITH FORMAT: (20I4)              

 AQUIFER HEAD WILL BE SET TO   0.0000     AT ALL NO-FLOW NODES (IBOUND=0).



                       INITIAL HEAD FOR LAYER   1
 READING ON UNIT   12 WITH FORMAT: (10F13.0)           

 OUTPUT CONTROL IS SPECIFIED ONLY AT TIME STEPS FOR WHICH OUTPUT IS DESIRED
 COMPACT CELL-BY-CELL BUDGET FILES WILL BE WRITTEN
 HEAD PRINT FORMAT CODE IS  18    DRAWDOWN PRINT FORMAT CODE IS   0
 HEADS WILL BE SAVED ON UNIT   51    DRAWDOWNS WILL BE SAVED ON UNIT    0

 BCF -- BLOCK-CENTERED FLOW PACKAGE, VERSION 7, 5/2/2005
         INPUT READ FROM UNIT 13
 TRANSIENT SIMULATION
 HEAD AT CELLS THAT CONVERT TO DRY=   0.0000    
 WETTING CAPABILITY IS NOT ACTIVE
      LAYER  LAYER-TYPE CODE     INTERBLOCK T
      --------------------------------------------
         1            0          0 -- HARMONIC    

 COLUMN TO ROW ANISOTROPY =  1.000000    

     PRIMARY STORAGE COEF =  5.000000E-02 FOR LAYER   1



               TRANSMIS. ALONG ROWS FOR LAYER   1
 READING ON UNIT   13 WITH FORMAT: (FREE)              

 WEL -- WELL PACKAGE, VERSION 7, 5/2/2005 INPUT READ FROM UNIT   19
 # Well package input file written by MMProc
 No named parameters
 MAXIMUM OF      4 ACTIVE WELLS AT ONE TIME


     0 Well parameters

 RCH -- RECHARGE PACKAGE, VERSION 7, 5/2/2005 INPUT READ FROM UNIT   15
 No named parameters
 OPTION 1 -- RECHARGE TO TOP LAYER


     0 Recharge parameters

 SFR7 -- STREAMFLOW ROUTING PACKAGE, VERSION 1.0.7, 2013-01-15
         INPUT READ FROM UNIT  16
 #  Supply2 test problem for GWM-VI
 #  The eighth entry in the first data line is ISTCB2 -
 #    Setting this to a negative number indicates that
 #    streamflows out of the reach will be saved to a
 #    binary file.  The absolute value of ISTCB2 is the
 #    unit to which unformatted flows will be written.
 #
 No named parameters
 Segment information will not be 
 read by reach
 No named parameters
 No specifed inflow files


 NUMBER OF STREAM REACHES IS   40

 NUMBER OF STREAM SEGMENTS IS    3

 NUMBER OF STREAM PARAMETERS IS    0

 NUMBER OF STREAM SEGMENTS DEFINED USING PARAMETERS IS              0

 MAXIMUM ERROR FOR STREAM LEAKAGE RATES IS  1.00E-04

 CONSTANT FOR MANNINGS EQUATION IS  1.2839E+05





   STREAM NETWORK DESCRIPTION: 

   LAYER    ROW    COL   SEGMENT   REACH     LENGTH
                          NUMBER   NUMBER    IN CELL        
   --------------------------------------------------
      1     13      1       1        1    2.0000E+02
      1     13      2       1        2    2.0000E+02
      1     14      3       1        3    2.0000E+02
      1     15      4       1        4    2.0000E+02
      1     16      5       1        5    2.0000E+02
      1     16      6       1        6    2.0000E+02
      1     16      7       1        7    2.0000E+02
      1     16      8       1        8    2.0000E+02
      1     16      9       1        9    2.0000E+02
      1     16     10       1       10    2.0000E+02
      1     16     11       1       11    2.0000E+02
      1     16     12       1       12    2.0000E+02
      1     15     13       1       13    2.0000E+02
      1     14     14       1       14    2.0000E+02
      1     13     15       1       15    2.0000E+02
      1     12     16       1       16    2.0000E+02
      1     12     17       1       17    2.0000E+02
      1     12     18       1       18    2.0000E+02
      1     12     19       1       19    2.0000E+02
      1     13     20       1       20    2.0000E+02
      1     14     21       1       21    2.0000E+02
      1     14     22       1       22    2.0000E+02
      1      9     30       2        1    2.0000E+02
      1      9     29       2        2    2.0000E+02
      1      9     28       2        3    2.0000E+02
      1      9     27       2        4    2.0000E+02
      1     10     26       2        5    2.0000E+02
      1     11     25       2        6    2.0000E+02
      1     12     24       2        7    2.0000E+02
      1     13     23       2        8    2.0000E+02
      1     14     22       2        9    2.0000E+02
      1     14     22       3        1    2.0000E+02
      1     15     23       3        2    2.0000E+02
      1     15     24       3        3    2.0000E+02
      1     15     25       3        4    2.0000E+02
      1     15     26       3        5    2.0000E+02
      1     16     27       3        6    2.0000E+02
      1     17     28       3        7    2.0000E+02
      1     18     29       3        8    2.0000E+02
      1     18     30       3        9    2.0000E+02




 PCG -- CONJUGATE-GRADIENT SOLUTION PACKAGE, VERSION 7, 5/2/2005
 MAXIMUM OF    500 CALLS OF SOLUTION ROUTINE
 MAXIMUM OF      5 INTERNAL ITERATIONS PER CALL TO SOLUTION ROUTINE
 MATRIX PRECONDITIONING TYPE :    1



                                    SOLUTION BY THE CONJUGATE-GRADIENT METHOD
                                   -------------------------------------------
                    MAXIMUM NUMBER OF CALLS TO PCG ROUTINE =      500
                        MAXIMUM ITERATIONS PER CALL TO PCG =        5
                               MATRIX PRECONDITIONING TYPE =        1
        RELAXATION FACTOR (ONLY USED WITH PRECOND. TYPE 1) =    0.10000E+01
 PARAMETER OF POLYNOMIAL PRECOND. = 2 (2) OR IS CALCULATED :        0
                         HEAD CHANGE CRITERION FOR CLOSURE =    0.10000E-05
                     RESIDUAL CHANGE CRITERION FOR CLOSURE =    0.10000E+01
            PCG HEAD AND RESIDUAL CHANGE PRINTOUT INTERVAL =        1
     PRINTING FROM SOLVER IS LIMITED(1) OR SUPPRESSED (>1) =        1
                            STEADY-STATE DAMPING PARAMETER =    0.10000E+01
                               TRANSIENT DAMPING PARAMETER =    0.10000E+01
1
                            STRESS PERIOD NO.    1, LENGTH =   92.00000    
                            -----------------------------------------------

                              NUMBER OF TIME STEPS =     1

                               MULTIPLIER FOR DELT =     1.500

                            INITIAL TIME STEP SIZE =   92.00000    

 WELL NO.  LAYER   ROW   COL   STRESS RATE         
 --------------------------------------------------
      1      1     23     29      -1803.    
      2      1     18     28     -0.1266E+05
      3      1     15     21     -0.1818E+05
      4      1     17     29     -0.1491E+05

      4 WELLS

                 RECHARGE =  5.000000E-04



 CLASSIFICATION & COUNT OF STREAM SEGMENTS BASED ON SOURCE OF INFLOW:

                HEADWATER     DIVERSION     RECEIVES TRIBUTARY FLOW
                ---------     ---------     -----------------------
                     2              0               1



                    INPUT DATA FOR EACH STREAM SEGMENT
 ---------------------------------------------------------------------------------------------

 SEGMENT    SEG.     INFLOW   OVERLAND   STREAM    STREAM   ICALC  OUTFLOW  DIVERSION PRIORITY
    NO.    LENGTH     RATE     RUNOFF      ET       PPT.    METH.  TO SEG.  FROM SEG.    NO.

      1  4.400E+03 1.000E+05 0.000E+00 0.000E+00 0.000E+00    1        3        0        0
      2  1.800E+03 5.000E+04 0.000E+00 0.000E+00 0.000E+00    1        3        0        0
      3  1.800E+03 0.000E+00 0.000E+00 0.000E+00 0.000E+00    1        0        0        0


         STREAMBED PROPERTIES AND STREAM DIMENSIONS

 SEGMENT     BED HYD. COND.      BED THICKNESS     ELEV.-TOP OF BED     WIDTH OF STREAM     DEPTH OF STREAM    STREAM ROUGHNESS
    No.     UPPER     LOWER     UPPER     LOWER     UPPER     LOWER     UPPER     LOWER     UPPER     LOWER   CHANNEL      BANK

     1  5.000E+00 5.000E+00 1.000E+00 1.000E+00 4.850E+01 3.800E+01 2.000E+01 2.000E+01                     5.000E-02
     2  5.000E+00 5.000E+00 1.000E+00 1.000E+00 4.025E+01 3.800E+01 2.000E+01 2.000E+01                     5.000E-02
     3  5.000E+00 5.000E+00 1.000E+00 1.000E+00 3.800E+01 3.000E+01 2.000E+01 2.000E+01                     5.000E-02



 
 SOLVING FOR HEAD 


     9 CALLS TO PCG ROUTINE FOR TIME STEP   1 IN STRESS PERIOD    1
    36 TOTAL ITERATIONS

 OUTPUT CONTROL FOR STRESS PERIOD    1   TIME STEP    1
    SAVE BUDGET
    SAVE HEAD FOR ALL LAYERS
    PRINT HEAD FOR ALL LAYERS
 UBDSV2 SAVING "STREAMFLOW OUT  " ON UNIT  50 AT TIME STEP  1, STRESS PERIOD   1



 STREAM LISTING     PERIOD      1   STEP        1

 LAYER ROW COL. STREAM  RCH.  FLOW INTO     FLOW TO   FLOW OUT OF   OVRLND.     DIRECT     STREAM       STREAM     STREAM     STREAM   STREAMBED  STREAMBED
                SEG.NO.  NO.  STRM. RCH.    AQUIFER    STRM. RCH.    RUNOFF     PRECIP       ET          HEAD       DEPTH      WIDTH   CONDCTNC.   GRADIENT

   1   13    1     1     1    1.0000E+05 -6.1242E+03   1.0612E+05  0.000E+00  0.000E+00  0.000E+00  4.84087E+01  1.473E-01  2.000E+01  2.000E+04 -3.062E-01
   1   13    2     1     2    1.0612E+05 -7.5939E+03   1.1372E+05  0.000E+00  0.000E+00  0.000E+00  4.79372E+01  1.531E-01  2.000E+01  2.000E+04 -3.797E-01
   1   14    3     1     3    1.1372E+05 -2.1990E+03   1.1592E+05  0.000E+00  0.000E+00  0.000E+00  4.74640E+01  1.572E-01  2.000E+01  2.000E+04 -1.099E-01
   1   15    4     1     4    1.1592E+05 -2.2701E+03   1.1819E+05  0.000E+00  0.000E+00  0.000E+00  4.69885E+01  1.590E-01  2.000E+01  2.000E+04 -1.135E-01
   1   16    5     1     5    1.1819E+05 -7.1812E+03   1.2537E+05  0.000E+00  0.000E+00  0.000E+00  4.65151E+01  1.628E-01  2.000E+01  2.000E+04 -3.591E-01
   1   16    6     1     6    1.2537E+05 -4.3001E+03   1.2967E+05  0.000E+00  0.000E+00  0.000E+00  4.60424E+01  1.674E-01  2.000E+01  2.000E+04 -2.150E-01
   1   16    7     1     7    1.2967E+05 -4.1336E+03   1.3380E+05  0.000E+00  0.000E+00  0.000E+00  4.55684E+01  1.707E-01  2.000E+01  2.000E+04 -2.067E-01
   1   16    8     1     8    1.3380E+05 -4.0905E+03   1.3789E+05  0.000E+00  0.000E+00  0.000E+00  4.50943E+01  1.738E-01  2.000E+01  2.000E+04 -2.045E-01
   1   16    9     1     9    1.3789E+05 -4.0762E+03   1.4197E+05  0.000E+00  0.000E+00  0.000E+00  4.46201E+01  1.770E-01  2.000E+01  2.000E+04 -2.038E-01
   1   16   10     1    10    1.4197E+05 -4.0673E+03   1.4604E+05  0.000E+00  0.000E+00  0.000E+00  4.41459E+01  1.800E-01  2.000E+01  2.000E+04 -2.034E-01
   1   16   11     1    11    1.4604E+05 -4.0905E+03   1.5013E+05  0.000E+00  0.000E+00  0.000E+00  4.36717E+01  1.831E-01  2.000E+01  2.000E+04 -2.045E-01
   1   16   12     1    12    1.5013E+05 -6.8996E+03   1.5703E+05  0.000E+00  0.000E+00  0.000E+00  4.31985E+01  1.871E-01  2.000E+01  2.000E+04 -3.450E-01
   1   15   13     1    13    1.5703E+05 -7.1969E+03   1.6422E+05  0.000E+00  0.000E+00  0.000E+00  4.27263E+01  1.922E-01  2.000E+01  2.000E+04 -3.598E-01
   1   14   14     1    14    1.6422E+05 -7.6627E+03   1.7189E+05  0.000E+00  0.000E+00  0.000E+00  4.22543E+01  1.975E-01  2.000E+01  2.000E+04 -3.831E-01
   1   13   15     1    15    1.7189E+05 -8.0048E+03   1.7989E+05  0.000E+00  0.000E+00  0.000E+00  4.17825E+01  2.030E-01  2.000E+01  2.000E+04 -4.002E-01
   1   12   16     1    16    1.7989E+05 -8.7871E+03   1.8868E+05  0.000E+00  0.000E+00  0.000E+00  4.13110E+01  2.087E-01  2.000E+01  2.000E+04 -4.394E-01
   1   12   17     1    17    1.8868E+05 -6.1438E+03   1.9482E+05  0.000E+00  0.000E+00  0.000E+00  4.08388E+01  2.138E-01  2.000E+01  2.000E+04 -3.072E-01
   1   12   18     1    18    1.9482E+05 -5.9184E+03   2.0074E+05  0.000E+00  0.000E+00  0.000E+00  4.03655E+01  2.178E-01  2.000E+01  2.000E+04 -2.959E-01
   1   12   19     1    19    2.0074E+05 -7.4912E+03   2.0823E+05  0.000E+00  0.000E+00  0.000E+00  3.98926E+01  2.222E-01  2.000E+01  2.000E+04 -3.746E-01
   1   13   20     1    20    2.0823E+05 -5.6390E+03   2.1387E+05  0.000E+00  0.000E+00  0.000E+00  3.94196E+01  2.264E-01  2.000E+01  2.000E+04 -2.820E-01
   1   14   21     1    21    2.1387E+05  7.8264E+02   2.1309E+05  0.000E+00  0.000E+00  0.000E+00  3.89439E+01  2.280E-01  2.000E+01  2.000E+04  3.913E-02
   1   14   22     1    22    2.1309E+05  4.6398E+03   2.0845E+05  0.000E+00  0.000E+00  0.000E+00  3.84649E+01  2.263E-01  2.000E+01  2.000E+04  2.320E-01
   1    9   30     2     1    5.0000E+04 -4.7173E+03   5.4717E+04  0.000E+00  0.000E+00  0.000E+00  4.02441E+01  1.191E-01  2.000E+01  2.000E+04 -2.359E-01
   1    9   29     2     2    5.4717E+04 -5.0268E+03   5.9744E+04  0.000E+00  0.000E+00  0.000E+00  4.00006E+01  1.256E-01  2.000E+01  2.000E+04 -2.513E-01
   1    9   28     2     3    5.9744E+04 -5.3408E+03   6.5085E+04  0.000E+00  0.000E+00  0.000E+00  3.97574E+01  1.324E-01  2.000E+01  2.000E+04 -2.670E-01
   1    9   27     2     4    6.5085E+04 -8.2473E+03   7.3332E+04  0.000E+00  0.000E+00  0.000E+00  3.95158E+01  1.408E-01  2.000E+01  2.000E+04 -4.124E-01
   1   10   26     2     5    7.3332E+04 -7.2320E+03   8.0564E+04  0.000E+00  0.000E+00  0.000E+00  3.92751E+01  1.501E-01  2.000E+01  2.000E+04 -3.616E-01
   1   11   25     2     6    8.0564E+04 -6.7112E+03   8.7275E+04  0.000E+00  0.000E+00  0.000E+00  3.90331E+01  1.581E-01  2.000E+01  2.000E+04 -3.356E-01
   1   12   24     2     7    8.7275E+04 -6.2751E+03   9.3551E+04  0.000E+00  0.000E+00  0.000E+00  3.87903E+01  1.653E-01  2.000E+01  2.000E+04 -3.138E-01
   1   13   23     2     8    9.3551E+04 -1.6457E+03   9.5196E+04  0.000E+00  0.000E+00  0.000E+00  3.85446E+01  1.696E-01  2.000E+01  2.000E+04 -8.229E-02
   1   14   22     2     9    9.5196E+04  1.2387E+03   9.3958E+04  0.000E+00  0.000E+00  0.000E+00  3.82948E+01  1.698E-01  2.000E+01  2.000E+04  6.194E-02
   1   14   22     3     1    3.0241E+05 -8.8430E+03   3.1125E+05  0.000E+00  0.000E+00  0.000E+00  3.77908E+01  2.352E-01  2.000E+01  2.000E+04 -4.421E-01
   1   15   23     3     2    3.1125E+05 -1.3207E+03   3.1257E+05  0.000E+00  0.000E+00  0.000E+00  3.69042E+01  2.375E-01  2.000E+01  2.000E+04 -6.604E-02
   1   15   24     3     3    3.1257E+05 -1.4763E+03   3.1405E+05  0.000E+00  0.000E+00  0.000E+00  3.60159E+01  2.382E-01  2.000E+01  2.000E+04 -7.381E-02
   1   15   25     3     4    3.1405E+05 -1.5478E+03   3.1559E+05  0.000E+00  0.000E+00  0.000E+00  3.51277E+01  2.389E-01  2.000E+01  2.000E+04 -7.739E-02
   1   15   26     3     5    3.1559E+05 -1.7993E+03   3.1739E+05  0.000E+00  0.000E+00  0.000E+00  3.42396E+01  2.396E-01  2.000E+01  2.000E+04 -8.997E-02
   1   16   27     3     6    3.1739E+05 -1.8192E+03   3.1921E+05  0.000E+00  0.000E+00  0.000E+00  3.33515E+01  2.404E-01  2.000E+01  2.000E+04 -9.096E-02
   1   17   28     3     7    3.1921E+05  3.8834E+03   3.1533E+05  0.000E+00  0.000E+00  0.000E+00  3.24622E+01  2.400E-01  2.000E+01  2.000E+04  1.942E-01
   1   18   29     3     8    3.1533E+05  2.2500E+03   3.1308E+05  0.000E+00  0.000E+00  0.000E+00  3.15719E+01  2.386E-01  2.000E+01  2.000E+04  1.125E-01
   1   18   30     3     9    3.1308E+05 -4.0224E+03   3.1710E+05  0.000E+00  0.000E+00  0.000E+00  3.06834E+01  2.390E-01  2.000E+01  2.000E+04 -2.011E-01



1
              HEAD IN LAYER   1 AT END OF TIME STEP   1 IN STRESS PERIOD    1
  ---------------------------------------------------------------------------

          1      2      3      4      5      6      7      8      9     10
         11     12     13     14     15     16     17     18     19     20
         21     22     23     24     25     26     27     28     29     30
 .........................................................................
   1  ****** ****** ****** ****** ****** ****** ****** ****** ****** ******
      ****** ****** ****** ****** ****** ****** ****** ****** ****** ******
      ****** ****** ****** ****** ****** ****** ****** ****** ****** ******
   2  ****** ****** ****** ****** ****** ****** ****** ****** ****** ******
      ****** ****** ****** ****** ****** ****** ****** ****** ****** ******
      ****** ****** ****** ****** ****** ****** ****** ****** ****** ******
   3  ****** ****** ****** ****** ****** ****** ****** ****** ****** ******
      ****** ****** ****** ****** ****** ****** ****** ****** ****** ******
      ****** ****** ****** ****** ****** ****** ****** ****** ****** ******
   4  ****** ****** ****** ****** ****** ****** ****** ****** ****** ******
      ****** ****** ****** ****** ****** ****** ****** ****** ****** ******
      ****** ****** ****** ****** ****** ****** ****** ****** ****** ******
   5  ****** ****** ****** ****** ****** ****** ****** ****** ****** ******
      ****** ****** ****** ****** ****** ****** ****** ****** ****** ******
      ****** ****** ****** ****** ****** ****** ****** ****** ****** ******
   6  ****** ****** ****** ****** ****** ****** ****** ****** ****** ******
      ****** ****** ****** ****** ****** ****** ****** ****** ****** ******
      ****** ****** ****** ****** ****** ****** ****** ****** ****** ******
   7  ****** ****** ****** ****** ****** ****** ****** ****** ****** ******
      ****** ****** ****** ****** ****** ****** ****** ****** ****** ******
      ****** ****** ****** ****** ****** ****** ****** ****** ****** ******
   8  ****** ****** ****** ****** ****** ****** ****** ****** ****** ******
      ****** ****** ****** ****** ****** ****** ****** ****** ****** ******
      ****** ****** ****** ****** ****** ****** ****** ****** ****** ******
   9  ****** ****** ****** ****** ****** ****** ****** ****** ****** ******
      ****** ****** ****** ****** ****** ****** ****** ****** ****** ******
      ****** ****** ****** ****** ****** ****** ****** ****** ****** ******
  10  ****** ****** ****** ****** ****** ****** ****** ****** ****** ******
      ****** ****** ****** ****** ****** ****** ****** ****** ****** ******
      ****** ****** ****** ****** ****** ****** ****** ****** ****** ******
  11  ****** ****** ****** ****** ****** ****** ****** ****** ****** ******
      ****** ****** ****** ****** ****** ****** ****** ****** ****** ******
      ****** ****** ****** ****** ****** ****** ****** ****** ****** ******
  12  ****** ****** ****** ****** ****** ****** ****** ****** ****** ******
      ****** ****** ****** ****** ****** ****** ****** ****** ****** ******
      ****** ****** ****** ****** ****** ****** ****** ****** ****** ******
  13  ****** ****** ****** ****** ****** ****** ****** ****** ****** ******
      ****** ****** ****** ****** ****** ****** ****** ****** ****** ******
      ****** ****** ****** ****** ****** ****** ****** ****** ****** ******
  14  ****** ****** ****** ****** ****** ****** ****** ****** ****** ******
      ****** ****** ****** ****** ****** ****** ****** ****** ****** ******
      ****** ****** ****** ****** ****** ****** ****** ****** ****** ******
  15  ****** ****** ****** ****** ****** ****** ****** ****** ****** ******
      ****** ****** ****** ****** ****** ****** ****** ****** ****** ******
      ****** ****** ****** ****** ****** ****** ****** ****** ****** ******
  16  ****** ****** ****** ****** ****** ****** ****** ****** ****** ******
      ****** ****** ****** ****** ****** ****** ****** ****** ****** ******
      ****** ****** ****** ****** ****** ****** ****** ****** ****** ******
  17  ****** ****** ****** ****** ****** ****** ****** ****** ****** ******
      ****** ****** ****** ****** ****** ****** ****** ****** ****** ******
      ****** ****** ****** ****** ****** ****** ****** ****** ****** ******
  18  ****** ****** ****** ****** ****** ****** ****** ****** ****** ******
      ****** ****** ****** ****** ****** ****** ****** ****** ****** ******
      ****** ****** ****** ****** ****** ****** ****** ****** ****** ******
  19  ****** ****** ****** ****** ****** ****** ****** ****** ****** ******
      ****** ****** ****** ****** ****** ****** ****** ****** ****** ******
      ****** ****** ****** ****** ****** ****** ****** ****** ****** ******
  20  ****** ****** ****** ****** ****** ****** ****** ****** ****** ******
      ****** ****** ****** ****** ****** ****** ****** ****** ****** ******
      ****** ****** ****** ****** ****** ****** ****** ****** ****** ******
  21  ****** ****** ****** ****** ****** ****** ****** ****** ****** ******
      ****** ****** ****** ****** ****** ****** ****** ****** ****** ******
      ****** ****** ****** ****** ****** ****** ****** ****** ****** ******
  22  ****** ****** ****** ****** ****** ****** ****** ****** ****** ******
      ****** ****** ****** ****** ****** ****** ****** ****** ****** ******
      ****** ****** ****** ****** ****** ****** ****** ****** ****** ******
  23  ****** ****** ****** ****** ****** ****** ****** ****** ****** ******
      ****** ****** ****** ****** ****** ****** ****** ****** ****** ******
      ****** ****** ****** ****** ****** ****** ****** ****** ****** ******
  24  ****** ****** ****** ****** ****** ****** ****** ****** ****** ******
      ****** ****** ****** ****** ****** ****** ****** ****** ****** ******
      ****** ****** ****** ****** ****** ****** ****** ****** ****** ******
  25  ****** ****** ****** ****** ****** ****** ****** ****** ****** ******
      ****** ****** ****** ****** ****** ****** ****** ****** ****** ******
      ****** ****** ****** ****** ****** ****** ****** ****** ****** ******

 HEAD WILL BE SAVED ON UNIT   51 AT END OF TIME STEP    1, STRESS PERIOD    1
1
  VOLUMETRIC BUDGET FOR ENTIRE MODEL AT END OF TIME STEP    1, STRESS PERIOD   1
  ------------------------------------------------------------------------------

     CUMULATIVE VOLUMES      L**3       RATES FOR THIS TIME STEP      L**3/T
     ------------------                 ------------------------

           IN:                                      IN:
           ---                                      ---
             STORAGE =    17334427.2760               STORAGE =      188417.6878
       CONSTANT HEAD =     1143638.1664         CONSTANT HEAD =       12430.8496
               WELLS =           0.0000                 WELLS =           0.0000
            RECHARGE =     1269600.0000              RECHARGE =       13800.0000
      STREAM LEAKAGE =     1177102.1880        STREAM LEAKAGE =       12794.5890

            TOTAL IN =    20924767.6304              TOTAL IN =      227443.1264

          OUT:                                     OUT:
          ----                                     ----
             STORAGE =           0.0000               STORAGE =           0.0000
       CONSTANT HEAD =           0.0000         CONSTANT HEAD =           0.0000
               WELLS =     4374424.2196                 WELLS =       47548.0893
            RECHARGE =           0.0000              RECHARGE =           0.0000
      STREAM LEAKAGE =    16550343.6951        STREAM LEAKAGE =      179895.0402

           TOTAL OUT =    20924767.9147             TOTAL OUT =      227443.1295

            IN - OUT =          -0.2843              IN - OUT =      -3.0904E-03

 PERCENT DISCREPANCY =          -0.00     PERCENT DISCREPANCY =          -0.00






         TIME SUMMARY AT END OF TIME STEP    1 IN STRESS PERIOD    1
                    SECONDS     MINUTES      HOURS       DAYS        YEARS
                    -----------------------------------------------------------
   TIME STEP LENGTH 7.94880E+06 1.32480E+05  2208.0      92.000     0.25188    
 STRESS PERIOD TIME 7.94880E+06 1.32480E+05  2208.0      92.000     0.25188    
         TOTAL TIME 7.94880E+06 1.32480E+05  2208.0      92.000     0.25188    
1
1
                            STRESS PERIOD NO.    2, LENGTH =   91.00000    
                            -----------------------------------------------

                              NUMBER OF TIME STEPS =     1

                               MULTIPLIER FOR DELT =     1.500

                            INITIAL TIME STEP SIZE =   91.00000    

 WELL NO.  LAYER   ROW   COL   STRESS RATE         
 --------------------------------------------------
      1      1     23     29      -1803.    
      2      1     18     28     -0.1266E+05
      3      1     15     21     -0.1818E+05
      4      1     17     29     -0.1491E+05

      4 WELLS

                 RECHARGE =  2.000000E-03

 REUSING STREAM SEGMENT DATA FROM LAST STRESS PERIOD
 
 SOLVING FOR HEAD 


     7 CALLS TO PCG ROUTINE FOR TIME STEP   1 IN STRESS PERIOD    2
    27 TOTAL ITERATIONS

 OUTPUT CONTROL FOR STRESS PERIOD    2   TIME STEP    1
    SAVE BUDGET
    SAVE HEAD FOR ALL LAYERS
    PRINT HEAD FOR ALL LAYERS
 UBDSV2 SAVING "STREAMFLOW OUT  " ON UNIT  50 AT TIME STEP  1, STRESS PERIOD   2



 STREAM LISTING     PERIOD      2   STEP        1

 LAYER ROW COL. STREAM  RCH.  FLOW INTO     FLOW TO   FLOW OUT OF   OVRLND.     DIRECT     STREAM       STREAM     STREAM     STREAM   STREAMBED  STREAMBED
                SEG.NO.  NO.  STRM. RCH.    AQUIFER    STRM. RCH.    RUNOFF     PRECIP       ET          HEAD       DEPTH      WIDTH   CONDCTNC.   GRADIENT

   1   13    1     1     1    1.0000E+05 -4.0151E+03   1.0402E+05  0.000E+00  0.000E+00  0.000E+00  4.84078E+01  1.464E-01  2.000E+01  2.000E+04 -2.008E-01
   1   13    2     1     2    1.0402E+05 -5.2778E+03   1.0929E+05  0.000E+00  0.000E+00  0.000E+00  4.79344E+01  1.504E-01  2.000E+01  2.000E+04 -2.639E-01
   1   14    3     1     3    1.0929E+05 -1.1166E+03   1.1041E+05  0.000E+00  0.000E+00  0.000E+00  4.74599E+01  1.530E-01  2.000E+01  2.000E+04 -5.583E-02
   1   15    4     1     4    1.1041E+05 -1.1438E+03   1.1155E+05  0.000E+00  0.000E+00  0.000E+00  4.69835E+01  1.540E-01  2.000E+01  2.000E+04 -5.719E-02
   1   16    5     1     5    1.1155E+05 -4.2451E+03   1.1580E+05  0.000E+00  0.000E+00  0.000E+00  4.65085E+01  1.562E-01  2.000E+01  2.000E+04 -2.123E-01
   1   16    6     1     6    1.1580E+05 -2.5003E+03   1.1830E+05  0.000E+00  0.000E+00  0.000E+00  4.60340E+01  1.590E-01  2.000E+01  2.000E+04 -1.250E-01
   1   16    7     1     7    1.1830E+05 -2.4034E+03   1.2070E+05  0.000E+00  0.000E+00  0.000E+00  4.55587E+01  1.610E-01  2.000E+01  2.000E+04 -1.202E-01
   1   16    8     1     8    1.2070E+05 -2.3698E+03   1.2307E+05  0.000E+00  0.000E+00  0.000E+00  4.50833E+01  1.629E-01  2.000E+01  2.000E+04 -1.185E-01
   1   16    9     1     9    1.2307E+05 -2.3423E+03   1.2541E+05  0.000E+00  0.000E+00  0.000E+00  4.46080E+01  1.648E-01  2.000E+01  2.000E+04 -1.171E-01
   1   16   10     1    10    1.2541E+05 -2.3068E+03   1.2772E+05  0.000E+00  0.000E+00  0.000E+00  4.41325E+01  1.666E-01  2.000E+01  2.000E+04 -1.153E-01
   1   16   11     1    11    1.2772E+05 -2.2915E+03   1.3001E+05  0.000E+00  0.000E+00  0.000E+00  4.36571E+01  1.684E-01  2.000E+01  2.000E+04 -1.146E-01
   1   16   12     1    12    1.3001E+05 -3.9547E+03   1.3397E+05  0.000E+00  0.000E+00  0.000E+00  4.31822E+01  1.709E-01  2.000E+01  2.000E+04 -1.977E-01
   1   15   13     1    13    1.3397E+05 -3.9188E+03   1.3789E+05  0.000E+00  0.000E+00  0.000E+00  4.27080E+01  1.739E-01  2.000E+01  2.000E+04 -1.959E-01
   1   14   14     1    14    1.3789E+05 -4.2764E+03   1.4216E+05  0.000E+00  0.000E+00  0.000E+00  4.22338E+01  1.770E-01  2.000E+01  2.000E+04 -2.138E-01
   1   13   15     1    15    1.4216E+05 -4.6468E+03   1.4681E+05  0.000E+00  0.000E+00  0.000E+00  4.17599E+01  1.804E-01  2.000E+01  2.000E+04 -2.323E-01
   1   12   16     1    16    1.4681E+05 -5.6956E+03   1.5250E+05  0.000E+00  0.000E+00  0.000E+00  4.12865E+01  1.842E-01  2.000E+01  2.000E+04 -2.848E-01
   1   12   17     1    17    1.5250E+05 -3.6518E+03   1.5616E+05  0.000E+00  0.000E+00  0.000E+00  4.08127E+01  1.877E-01  2.000E+01  2.000E+04 -1.826E-01
   1   12   18     1    18    1.5616E+05 -3.4101E+03   1.5957E+05  0.000E+00  0.000E+00  0.000E+00  4.03380E+01  1.902E-01  2.000E+01  2.000E+04 -1.705E-01
   1   12   19     1    19    1.5957E+05 -4.3953E+03   1.6396E+05  0.000E+00  0.000E+00  0.000E+00  3.98635E+01  1.930E-01  2.000E+01  2.000E+04 -2.198E-01
   1   13   20     1    20    1.6396E+05 -2.3926E+03   1.6635E+05  0.000E+00  0.000E+00  0.000E+00  3.93886E+01  1.955E-01  2.000E+01  2.000E+04 -1.196E-01
   1   14   21     1    21    1.6635E+05  3.9295E+03   1.6243E+05  0.000E+00  0.000E+00  0.000E+00  3.89108E+01  1.949E-01  2.000E+01  2.000E+04  1.965E-01
   1   14   22     1    22    1.6243E+05  5.4783E+03   1.5695E+05  0.000E+00  0.000E+00  0.000E+00  3.84302E+01  1.916E-01  2.000E+01  2.000E+04  2.739E-01
   1    9   30     2     1    5.0000E+04 -1.9610E+03   5.1961E+04  0.000E+00  0.000E+00  0.000E+00  4.02422E+01  1.172E-01  2.000E+01  2.000E+04 -9.805E-02
   1    9   29     2     2    5.1961E+04 -2.2907E+03   5.4252E+04  0.000E+00  0.000E+00  0.000E+00  3.99951E+01  1.201E-01  2.000E+01  2.000E+04 -1.145E-01
   1    9   28     2     3    5.4252E+04 -2.6365E+03   5.6888E+04  0.000E+00  0.000E+00  0.000E+00  3.97484E+01  1.234E-01  2.000E+01  2.000E+04 -1.318E-01
   1    9   27     2     4    5.6888E+04 -4.8153E+03   6.1704E+04  0.000E+00  0.000E+00  0.000E+00  3.95033E+01  1.283E-01  2.000E+01  2.000E+04 -2.408E-01
   1   10   26     2     5    6.1704E+04 -3.6356E+03   6.5339E+04  0.000E+00  0.000E+00  0.000E+00  3.92588E+01  1.338E-01  2.000E+01  2.000E+04 -1.818E-01
   1   11   25     2     6    6.5339E+04 -3.2793E+03   6.8618E+04  0.000E+00  0.000E+00  0.000E+00  3.90131E+01  1.381E-01  2.000E+01  2.000E+04 -1.640E-01
   1   12   24     2     7    6.8618E+04 -3.2212E+03   7.1840E+04  0.000E+00  0.000E+00  0.000E+00  3.87671E+01  1.421E-01  2.000E+01  2.000E+04 -1.611E-01
   1   13   23     2     8    7.1840E+04 -6.0956E+02   7.2449E+04  0.000E+00  0.000E+00  0.000E+00  3.85194E+01  1.444E-01  2.000E+01  2.000E+04 -3.048E-02
   1   14   22     2     9    7.2449E+04  2.2424E+03   7.0207E+04  0.000E+00  0.000E+00  0.000E+00  3.82684E+01  1.434E-01  2.000E+01  2.000E+04  1.121E-01
   1   14   22     3     1    2.2715E+05 -8.0452E+03   2.3520E+05  0.000E+00  0.000E+00  0.000E+00  3.77540E+01  1.985E-01  2.000E+01  2.000E+04 -4.023E-01
   1   15   23     3     2    2.3520E+05 -2.8519E+02   2.3548E+05  0.000E+00  0.000E+00  0.000E+00  3.68673E+01  2.006E-01  2.000E+01  2.000E+04 -1.426E-02
   1   15   24     3     3    2.3548E+05 -5.7843E+02   2.3606E+05  0.000E+00  0.000E+00  0.000E+00  3.59786E+01  2.008E-01  2.000E+01  2.000E+04 -2.892E-02
   1   15   25     3     4    2.3606E+05 -6.1340E+02   2.3668E+05  0.000E+00  0.000E+00  0.000E+00  3.50900E+01  2.011E-01  2.000E+01  2.000E+04 -3.067E-02
   1   15   26     3     5    2.3668E+05 -6.4970E+02   2.3733E+05  0.000E+00  0.000E+00  0.000E+00  3.42014E+01  2.014E-01  2.000E+01  2.000E+04 -3.248E-02
   1   16   27     3     6    2.3733E+05 -4.6920E+02   2.3779E+05  0.000E+00  0.000E+00  0.000E+00  3.33128E+01  2.017E-01  2.000E+01  2.000E+04 -2.346E-02
   1   17   28     3     7    2.3779E+05  7.7747E+03   2.3002E+05  0.000E+00  0.000E+00  0.000E+00  3.24221E+01  1.999E-01  2.000E+01  2.000E+04  3.887E-01
   1   18   29     3     8    2.3002E+05  5.8419E+03   2.2418E+05  0.000E+00  0.000E+00  0.000E+00  3.15297E+01  1.963E-01  2.000E+01  2.000E+04  2.921E-01
   1   18   30     3     9    2.2418E+05 -1.1073E+03   2.2529E+05  0.000E+00  0.000E+00  0.000E+00  3.06396E+01  1.951E-01  2.000E+01  2.000E+04 -5.536E-02



1
              HEAD IN LAYER   1 AT END OF TIME STEP   1 IN STRESS PERIOD    2
  ---------------------------------------------------------------------------

          1      2      3      4      5      6      7      8      9     10
         11     12     13     14     15     16     17     18     19     20
         21     22     23     24     25     26     27     28     29     30
 .........................................................................
   1  ****** ****** ****** ****** ****** ****** ****** ****** ****** ******
      ****** ****** ****** ****** ****** ****** ****** ****** ****** ******
      ****** ****** ****** ****** ****** ****** ****** ****** ****** ******
   2  ****** ****** ****** ****** ****** ****** ****** ****** ****** ******
      ****** ****** ****** ****** ****** ****** ****** ****** ****** ******
      ****** ****** ****** ****** ****** ****** ****** ****** ****** ******
   3  ****** ****** ****** ****** ****** ****** ****** ****** ****** ******
      ****** ****** ****** ****** ****** ****** ****** ****** ****** ******
      ****** ****** ****** ****** ****** ****** ****** ****** ****** ******
   4  ****** ****** ****** ****** ****** ****** ****** ****** ****** ******
      ****** ****** ****** ****** ****** ****** ****** ****** ****** ******
      ****** ****** ****** ****** ****** ****** ****** ****** ****** ******
   5  ****** ****** ****** ****** ****** ****** ****** ****** ****** ******
      ****** ****** ****** ****** ****** ****** ****** ****** ****** ******
      ****** ****** ****** ****** ****** ****** ****** ****** ****** ******
   6  ****** ****** ****** ****** ****** ****** ****** ****** ****** ******
      ****** ****** ****** ****** ****** ****** ****** ****** ****** ******
      ****** ****** ****** ****** ****** ****** ****** ****** ****** ******
   7  ****** ****** ****** ****** ****** ****** ****** ****** ****** ******
      ****** ****** ****** ****** ****** ****** ****** ****** ****** ******
      ****** ****** ****** ****** ****** ****** ****** ****** ****** ******
   8  ****** ****** ****** ****** ****** ****** ****** ****** ****** ******
      ****** ****** ****** ****** ****** ****** ****** ****** ****** ******
      ****** ****** ****** ****** ****** ****** ****** ****** ****** ******
   9  ****** ****** ****** ****** ****** ****** ****** ****** ****** ******
      ****** ****** ****** ****** ****** ****** ****** ****** ****** ******
      ****** ****** ****** ****** ****** ****** ****** ****** ****** ******
  10  ****** ****** ****** ****** ****** ****** ****** ****** ****** ******
      ****** ****** ****** ****** ****** ****** ****** ****** ****** ******
      ****** ****** ****** ****** ****** ****** ****** ****** ****** ******
  11  ****** ****** ****** ****** ****** ****** ****** ****** ****** ******
      ****** ****** ****** ****** ****** ****** ****** ****** ****** ******
      ****** ****** ****** ****** ****** ****** ****** ****** ****** ******
  12  ****** ****** ****** ****** ****** ****** ****** ****** ****** ******
      ****** ****** ****** ****** ****** ****** ****** ****** ****** ******
      ****** ****** ****** ****** ****** ****** ****** ****** ****** ******
  13  ****** ****** ****** ****** ****** ****** ****** ****** ****** ******
      ****** ****** ****** ****** ****** ****** ****** ****** ****** ******
      ****** ****** ****** ****** ****** ****** ****** ****** ****** ******
  14  ****** ****** ****** ****** ****** ****** ****** ****** ****** ******
      ****** ****** ****** ****** ****** ****** ****** ****** ****** ******
      ****** ****** ****** ****** ****** ****** ****** ****** ****** ******
  15  ****** ****** ****** ****** ****** ****** ****** ****** ****** ******
      ****** ****** ****** ****** ****** ****** ****** ****** ****** ******
      ****** ****** ****** ****** ****** ****** ****** ****** ****** ******
  16  ****** ****** ****** ****** ****** ****** ****** ****** ****** ******
      ****** ****** ****** ****** ****** ****** ****** ****** ****** ******
      ****** ****** ****** ****** ****** ****** ****** ****** ****** ******
  17  ****** ****** ****** ****** ****** ****** ****** ****** ****** ******
      ****** ****** ****** ****** ****** ****** ****** ****** ****** ******
      ****** ****** ****** ****** ****** ****** ****** ****** ****** ******
  18  ****** ****** ****** ****** ****** ****** ****** ****** ****** ******
      ****** ****** ****** ****** ****** ****** ****** ****** ****** ******
      ****** ****** ****** ****** ****** ****** ****** ****** ****** ******
  19  ****** ****** ****** ****** ****** ****** ****** ****** ****** ******
      ****** ****** ****** ****** ****** ****** ****** ****** ****** ******
      ****** ****** ****** ****** ****** ****** ****** ****** ****** ******
  20  ****** ****** ****** ****** ****** ****** ****** ****** ****** ******
      ****** ****** ****** ****** ****** ****** ****** ****** ****** ******
      ****** ****** ****** ****** ****** ****** ****** ****** ****** ******
  21  ****** ****** ****** ****** ****** ****** ****** ****** ****** ******
      ****** ****** ****** ****** ****** ****** ****** ****** ****** ******
      ****** ****** ****** ****** ****** ****** ****** ****** ****** ******
  22  ****** ****** ****** ****** ****** ****** ****** ****** ****** ******
      ****** ****** ****** ****** ****** ****** ****** ****** ****** ******
      ****** ****** ****** ****** ****** ****** ****** ****** ****** ******
  23  ****** ****** ****** ****** ****** ****** ****** ****** ****** ******
      ****** ****** ****** ****** ****** ****** ****** ****** ****** ******
      ****** ****** ****** ****** ****** ****** ****** ****** ****** ******
  24  ****** ****** ****** ****** ****** ****** ****** ****** ****** ******
      ****** ****** ****** ****** ****** ****** ****** ****** ****** ******
      ****** ****** ****** ****** ****** ****** ****** ****** ****** ******
  25  ****** ****** ****** ****** ****** ****** ****** ****** ****** ******
      ****** ****** ****** ****** ****** ****** ****** ****** ****** ******
      ****** ****** ****** ****** ****** ****** ****** ****** ****** ******

 HEAD WILL BE SAVED ON UNIT   51 AT END OF TIME STEP    1, STRESS PERIOD    2
1
  VOLUMETRIC BUDGET FOR ENTIRE MODEL AT END OF TIME STEP    1, STRESS PERIOD   2
  ------------------------------------------------------------------------------

     CUMULATIVE VOLUMES      L**3       RATES FOR THIS TIME STEP      L**3/T
     ------------------                 ------------------------

           IN:                                      IN:
           ---                                      ---
             STORAGE =    21969647.4860               STORAGE =       50936.4858
       CONSTANT HEAD =     2663072.4757         CONSTANT HEAD =       16697.0803
               WELLS =           0.0000                 WELLS =           0.0000
            RECHARGE =     6292800.0000              RECHARGE =       55200.0000
      STREAM LEAKAGE =     3476371.9468        STREAM LEAKAGE =       25266.7006

            TOTAL IN =    34401891.9085              TOTAL IN =      148100.2668

          OUT:                                     OUT:
          ----                                     ----
             STORAGE =           0.0000               STORAGE =           0.0000
       CONSTANT HEAD =           0.0000         CONSTANT HEAD =           0.0000
               WELLS =     8701300.3498                 WELLS =       47548.0893
            RECHARGE =           0.0000              RECHARGE =           0.0000
      STREAM LEAKAGE =    25700592.7506        STREAM LEAKAGE =      100552.1874

           TOTAL OUT =    34401893.1005             TOTAL OUT =      148100.2768

            IN - OUT =          -1.1920              IN - OUT =      -9.9748E-03

 PERCENT DISCREPANCY =          -0.00     PERCENT DISCREPANCY =          -0.00






         TIME SUMMARY AT END OF TIME STEP    1 IN STRESS PERIOD    2
                    SECONDS     MINUTES      HOURS       DAYS        YEARS
                    -----------------------------------------------------------
   TIME STEP LENGTH 7.86240E+06 1.31040E+05  2184.0      91.000     0.24914    
 STRESS PERIOD TIME 7.86240E+06 1.31040E+05  2184.0      91.000     0.24914    
         TOTAL TIME 1.58112E+07 2.63520E+05  4392.0      183.00     0.50103    
1
1
                            STRESS PERIOD NO.    3, LENGTH =   91.00000    
                            -----------------------------------------------

                              NUMBER OF TIME STEPS =     1

                               MULTIPLIER FOR DELT =     1.500

                            INITIAL TIME STEP SIZE =   91.00000    

 WELL NO.  LAYER   ROW   COL   STRESS RATE         
 --------------------------------------------------
      1      1     23     29      -1803.    
      2      1     18     28     -0.1266E+05
      3      1     15     21     -0.1818E+05
      4      1     17     29     -0.1491E+05

      4 WELLS

                 RECHARGE =   0.00000    

 REUSING STREAM SEGMENT DATA FROM LAST STRESS PERIOD
 
 SOLVING FOR HEAD 


     7 CALLS TO PCG ROUTINE FOR TIME STEP   1 IN STRESS PERIOD    3
    27 TOTAL ITERATIONS

 OUTPUT CONTROL FOR STRESS PERIOD    3   TIME STEP    1
    SAVE BUDGET
    SAVE HEAD FOR ALL LAYERS
    PRINT HEAD FOR ALL LAYERS
 UBDSV2 SAVING "STREAMFLOW OUT  " ON UNIT  50 AT TIME STEP  1, STRESS PERIOD   3



 STREAM LISTING     PERIOD      3   STEP        1

 LAYER ROW COL. STREAM  RCH.  FLOW INTO     FLOW TO   FLOW OUT OF   OVRLND.     DIRECT     STREAM       STREAM     STREAM     STREAM   STREAMBED  STREAMBED
                SEG.NO.  NO.  STRM. RCH.    AQUIFER    STRM. RCH.    RUNOFF     PRECIP       ET          HEAD       DEPTH      WIDTH   CONDCTNC.   GRADIENT

   1   13    1     1     1    1.0000E+05 -2.7770E+03   1.0278E+05  0.000E+00  0.000E+00  0.000E+00  4.84072E+01  1.459E-01  2.000E+01  2.000E+04 -1.389E-01
   1   13    2     1     2    1.0278E+05 -3.8874E+03   1.0666E+05  0.000E+00  0.000E+00  0.000E+00  4.79328E+01  1.487E-01  2.000E+01  2.000E+04 -1.944E-01
   1   14    3     1     3    1.0666E+05 -6.5683E+02   1.0732E+05  0.000E+00  0.000E+00  0.000E+00  4.74575E+01  1.506E-01  2.000E+01  2.000E+04 -3.284E-02
   1   15    4     1     4    1.0732E+05 -6.3932E+02   1.0796E+05  0.000E+00  0.000E+00  0.000E+00  4.69807E+01  1.512E-01  2.000E+01  2.000E+04 -3.197E-02
   1   16    5     1     5    1.0796E+05 -2.4477E+03   1.1041E+05  0.000E+00  0.000E+00  0.000E+00  4.65048E+01  1.525E-01  2.000E+01  2.000E+04 -1.224E-01
   1   16    6     1     6    1.1041E+05 -1.4953E+03   1.1190E+05  0.000E+00  0.000E+00  0.000E+00  4.60291E+01  1.541E-01  2.000E+01  2.000E+04 -7.477E-02
   1   16    7     1     7    1.1190E+05 -1.4557E+03   1.1336E+05  0.000E+00  0.000E+00  0.000E+00  4.55531E+01  1.554E-01  2.000E+01  2.000E+04 -7.279E-02
   1   16    8     1     8    1.1336E+05 -1.4389E+03   1.1480E+05  0.000E+00  0.000E+00  0.000E+00  4.50770E+01  1.565E-01  2.000E+01  2.000E+04 -7.194E-02
   1   16    9     1     9    1.1480E+05 -1.4138E+03   1.1621E+05  0.000E+00  0.000E+00  0.000E+00  4.46009E+01  1.577E-01  2.000E+01  2.000E+04 -7.069E-02
   1   16   10     1    10    1.1621E+05 -1.3757E+03   1.1759E+05  0.000E+00  0.000E+00  0.000E+00  4.41248E+01  1.589E-01  2.000E+01  2.000E+04 -6.878E-02
   1   16   11     1    11    1.1759E+05 -1.3497E+03   1.1894E+05  0.000E+00  0.000E+00  0.000E+00  4.36486E+01  1.600E-01  2.000E+01  2.000E+04 -6.749E-02
   1   16   12     1    12    1.1894E+05 -2.3089E+03   1.2125E+05  0.000E+00  0.000E+00  0.000E+00  4.31728E+01  1.614E-01  2.000E+01  2.000E+04 -1.154E-01
   1   15   13     1    13    1.2125E+05 -2.2474E+03   1.2349E+05  0.000E+00  0.000E+00  0.000E+00  4.26974E+01  1.633E-01  2.000E+01  2.000E+04 -1.124E-01
   1   14   14     1    14    1.2349E+05 -2.5689E+03   1.2606E+05  0.000E+00  0.000E+00  0.000E+00  4.22220E+01  1.652E-01  2.000E+01  2.000E+04 -1.284E-01
   1   13   15     1    15    1.2606E+05 -2.9502E+03   1.2901E+05  0.000E+00  0.000E+00  0.000E+00  4.17469E+01  1.674E-01  2.000E+01  2.000E+04 -1.475E-01
   1   12   16     1    16    1.2901E+05 -3.9730E+03   1.3299E+05  0.000E+00  0.000E+00  0.000E+00  4.12724E+01  1.701E-01  2.000E+01  2.000E+04 -1.986E-01
   1   12   17     1    17    1.3299E+05 -2.3910E+03   1.3538E+05  0.000E+00  0.000E+00  0.000E+00  4.07976E+01  1.726E-01  2.000E+01  2.000E+04 -1.196E-01
   1   12   18     1    18    1.3538E+05 -2.1647E+03   1.3754E+05  0.000E+00  0.000E+00  0.000E+00  4.03220E+01  1.743E-01  2.000E+01  2.000E+04 -1.082E-01
   1   12   19     1    19    1.3754E+05 -2.8432E+03   1.4038E+05  0.000E+00  0.000E+00  0.000E+00  3.98467E+01  1.762E-01  2.000E+01  2.000E+04 -1.422E-01
   1   13   20     1    20    1.4038E+05 -9.1985E+02   1.4130E+05  0.000E+00  0.000E+00  0.000E+00  3.93708E+01  1.777E-01  2.000E+01  2.000E+04 -4.599E-02
   1   14   21     1    21    1.4130E+05  5.4866E+03   1.3582E+05  0.000E+00  0.000E+00  0.000E+00  3.88918E+01  1.759E-01  2.000E+01  2.000E+04  2.743E-01
   1   14   22     1    22    1.3582E+05  5.8461E+03   1.2997E+05  0.000E+00  0.000E+00  0.000E+00  3.84102E+01  1.716E-01  2.000E+01  2.000E+04  2.923E-01
   1    9   30     2     1    5.0000E+04 -7.6101E+02   5.0761E+04  0.000E+00  0.000E+00  0.000E+00  4.02414E+01  1.164E-01  2.000E+01  2.000E+04 -3.805E-02
   1    9   29     2     2    5.0761E+04 -1.0946E+03   5.1856E+04  0.000E+00  0.000E+00  0.000E+00  3.99927E+01  1.177E-01  2.000E+01  2.000E+04 -5.473E-02
   1    9   28     2     3    5.1856E+04 -1.4325E+03   5.3288E+04  0.000E+00  0.000E+00  0.000E+00  3.97444E+01  1.194E-01  2.000E+01  2.000E+04 -7.162E-02
   1    9   27     2     4    5.3288E+04 -3.1023E+03   5.6390E+04  0.000E+00  0.000E+00  0.000E+00  3.94975E+01  1.225E-01  2.000E+01  2.000E+04 -1.551E-01
   1   10   26     2     5    5.6390E+04 -2.0266E+03   5.8417E+04  0.000E+00  0.000E+00  0.000E+00  3.92509E+01  1.259E-01  2.000E+01  2.000E+04 -1.013E-01
   1   11   25     2     6    5.8417E+04 -1.7814E+03   6.0199E+04  0.000E+00  0.000E+00  0.000E+00  3.90034E+01  1.284E-01  2.000E+01  2.000E+04 -8.907E-02
   1   12   24     2     7    6.0199E+04 -1.8891E+03   6.2088E+04  0.000E+00  0.000E+00  0.000E+00  3.87557E+01  1.307E-01  2.000E+01  2.000E+04 -9.446E-02
   1   13   23     2     8    6.2088E+04 -2.7740E+02   6.2365E+04  0.000E+00  0.000E+00  0.000E+00  3.85071E+01  1.321E-01  2.000E+01  2.000E+04 -1.387E-02
   1   14   22     2     9    6.2365E+04  2.7528E+03   5.9612E+04  0.000E+00  0.000E+00  0.000E+00  3.82555E+01  1.305E-01  2.000E+01  2.000E+04  1.376E-01
   1   14   22     3     1    1.8958E+05 -7.6803E+03   1.9726E+05  0.000E+00  0.000E+00  0.000E+00  3.77339E+01  1.783E-01  2.000E+01  2.000E+04 -3.840E-01
   1   15   23     3     2    1.9726E+05  1.3323E+02   1.9713E+05  0.000E+00  0.000E+00  0.000E+00  3.68471E+01  1.804E-01  2.000E+01  2.000E+04  6.661E-03
   1   15   24     3     3    1.9713E+05 -2.4077E+02   1.9737E+05  0.000E+00  0.000E+00  0.000E+00  3.59582E+01  1.804E-01  2.000E+01  2.000E+04 -1.204E-02
   1   15   25     3     4    1.9737E+05 -2.6052E+02   1.9763E+05  0.000E+00  0.000E+00  0.000E+00  3.50695E+01  1.806E-01  2.000E+01  2.000E+04 -1.303E-02
   1   15   26     3     5    1.9763E+05 -2.3053E+02   1.9786E+05  0.000E+00  0.000E+00  0.000E+00  3.41807E+01  1.807E-01  2.000E+01  2.000E+04 -1.153E-02
   1   16   27     3     6    1.9786E+05  2.2720E+01   1.9784E+05  0.000E+00  0.000E+00  0.000E+00  3.32919E+01  1.808E-01  2.000E+01  2.000E+04  1.136E-03
   1   17   28     3     7    1.9784E+05  9.3007E+03   1.8854E+05  0.000E+00  0.000E+00  0.000E+00  3.24004E+01  1.782E-01  2.000E+01  2.000E+04  4.650E-01
   1   18   29     3     8    1.8854E+05  7.5358E+03   1.8100E+05  0.000E+00  0.000E+00  0.000E+00  3.15068E+01  1.735E-01  2.000E+01  2.000E+04  3.768E-01
   1   18   30     3     9    1.8100E+05  1.4917E+02   1.8085E+05  0.000E+00  0.000E+00  0.000E+00  3.06158E+01  1.713E-01  2.000E+01  2.000E+04  7.458E-03



1
              HEAD IN LAYER   1 AT END OF TIME STEP   1 IN STRESS PERIOD    3
  ---------------------------------------------------------------------------

          1      2      3      4      5      6      7      8      9     10
         11     12     13     14     15     16     17     18     19     20
         21     22     23     24     25     26     27     28     29     30
 .........................................................................
   1  ****** ****** ****** ****** ****** ****** ****** ****** ****** ******
      ****** ****** ****** ****** ****** ****** ****** ****** ****** ******
      ****** ****** ****** ****** ****** ****** ****** ****** ****** ******
   2  ****** ****** ****** ****** ****** ****** ****** ****** ****** ******
      ****** ****** ****** ****** ****** ****** ****** ****** ****** ******
      ****** ****** ****** ****** ****** ****** ****** ****** ****** ******
   3  ****** ****** ****** ****** ****** ****** ****** ****** ****** ******
      ****** ****** ****** ****** ****** ****** ****** ****** ****** ******
      ****** ****** ****** ****** ****** ****** ****** ****** ****** ******
   4  ****** ****** ****** ****** ****** ****** ****** ****** ****** ******
      ****** ****** ****** ****** ****** ****** ****** ****** ****** ******
      ****** ****** ****** ****** ****** ****** ****** ****** ****** ******
   5  ****** ****** ****** ****** ****** ****** ****** ****** ****** ******
      ****** ****** ****** ****** ****** ****** ****** ****** ****** ******
      ****** ****** ****** ****** ****** ****** ****** ****** ****** ******
   6  ****** ****** ****** ****** ****** ****** ****** ****** ****** ******
      ****** ****** ****** ****** ****** ****** ****** ****** ****** ******
      ****** ****** ****** ****** ****** ****** ****** ****** ****** ******
   7  ****** ****** ****** ****** ****** ****** ****** ****** ****** ******
      ****** ****** ****** ****** ****** ****** ****** ****** ****** ******
      ****** ****** ****** ****** ****** ****** ****** ****** ****** ******
   8  ****** ****** ****** ****** ****** ****** ****** ****** ****** ******
      ****** ****** ****** ****** ****** ****** ****** ****** ****** ******
      ****** ****** ****** ****** ****** ****** ****** ****** ****** ******
   9  ****** ****** ****** ****** ****** ****** ****** ****** ****** ******
      ****** ****** ****** ****** ****** ****** ****** ****** ****** ******
      ****** ****** ****** ****** ****** ****** ****** ****** ****** ******
  10  ****** ****** ****** ****** ****** ****** ****** ****** ****** ******
      ****** ****** ****** ****** ****** ****** ****** ****** ****** ******
      ****** ****** ****** ****** ****** ****** ****** ****** ****** ******
  11  ****** ****** ****** ****** ****** ****** ****** ****** ****** ******
      ****** ****** ****** ****** ****** ****** ****** ****** ****** ******
      ****** ****** ****** ****** ****** ****** ****** ****** ****** ******
  12  ****** ****** ****** ****** ****** ****** ****** ****** ****** ******
      ****** ****** ****** ****** ****** ****** ****** ****** ****** ******
      ****** ****** ****** ****** ****** ****** ****** ****** ****** ******
  13  ****** ****** ****** ****** ****** ****** ****** ****** ****** ******
      ****** ****** ****** ****** ****** ****** ****** ****** ****** ******
      ****** ****** ****** ****** ****** ****** ****** ****** ****** ******
  14  ****** ****** ****** ****** ****** ****** ****** ****** ****** ******
      ****** ****** ****** ****** ****** ****** ****** ****** ****** ******
      ****** ****** ****** ****** ****** ****** ****** ****** ****** ******
  15  ****** ****** ****** ****** ****** ****** ****** ****** ****** ******
      ****** ****** ****** ****** ****** ****** ****** ****** ****** ******
      ****** ****** ****** ****** ****** ****** ****** ****** ****** ******
  16  ****** ****** ****** ****** ****** ****** ****** ****** ****** ******
      ****** ****** ****** ****** ****** ****** ****** ****** ****** ******
      ****** ****** ****** ****** ****** ****** ****** ****** ****** ******
  17  ****** ****** ****** ****** ****** ****** ****** ****** ****** ******
      ****** ****** ****** ****** ****** ****** ****** ****** ****** ******
      ****** ****** ****** ****** ****** ****** ****** ****** ****** ******
  18  ****** ****** ****** ****** ****** ****** ****** ****** ****** ******
      ****** ****** ****** ****** ****** ****** ****** ****** ****** ******
      ****** ****** ****** ****** ****** ****** ****** ****** ****** ******
  19  ****** ****** ****** ****** ****** ****** ****** ****** ****** ******
      ****** ****** ****** ****** ****** ****** ****** ****** ****** ******
      ****** ****** ****** ****** ****** ****** ****** ****** ****** ******
  20  ****** ****** ****** ****** ****** ****** ****** ****** ****** ******
      ****** ****** ****** ****** ****** ****** ****** ****** ****** ******
      ****** ****** ****** ****** ****** ****** ****** ****** ****** ******
  21  ****** ****** ****** ****** ****** ****** ****** ****** ****** ******
      ****** ****** ****** ****** ****** ****** ****** ****** ****** ******
      ****** ****** ****** ****** ****** ****** ****** ****** ****** ******
  22  ****** ****** ****** ****** ****** ****** ****** ****** ****** ******
      ****** ****** ****** ****** ****** ****** ****** ****** ****** ******
      ****** ****** ****** ****** ****** ****** ****** ****** ****** ******
  23  ****** ****** ****** ****** ****** ****** ****** ****** ****** ******
      ****** ****** ****** ****** ****** ****** ****** ****** ****** ******
      ****** ****** ****** ****** ****** ****** ****** ****** ****** ******
  24  ****** ****** ****** ****** ****** ****** ****** ****** ****** ******
      ****** ****** ****** ****** ****** ****** ****** ****** ****** ******
      ****** ****** ****** ****** ****** ****** ****** ****** ****** ******
  25  ****** ****** ****** ****** ****** ****** ****** ****** ****** ******
      ****** ****** ****** ****** ****** ****** ****** ****** ****** ******
      ****** ****** ****** ****** ****** ****** ****** ****** ****** ******

 HEAD WILL BE SAVED ON UNIT   51 AT END OF TIME STEP    1, STRESS PERIOD    3
1
  VOLUMETRIC BUDGET FOR ENTIRE MODEL AT END OF TIME STEP    1, STRESS PERIOD   3
  ------------------------------------------------------------------------------

     CUMULATIVE VOLUMES      L**3       RATES FOR THIS TIME STEP      L**3/T
     ------------------                 ------------------------

           IN:                                      IN:
           ---                                      ---
             STORAGE =    26824970.3908               STORAGE =       53355.1968
       CONSTANT HEAD =     4942407.4295         CONSTANT HEAD =       25047.6369
               WELLS =           0.0000                 WELLS =           0.0000
            RECHARGE =     6292800.0000              RECHARGE =           0.0000
      STREAM LEAKAGE =     6318043.3577        STREAM LEAKAGE =       31227.1584

            TOTAL IN =    44378221.1781              TOTAL IN =      109629.9920

          OUT:                                     OUT:
          ----                                     ----
             STORAGE =           0.0000               STORAGE =           0.0000
       CONSTANT HEAD =           0.0000         CONSTANT HEAD =           0.0000
               WELLS =    13028176.4801                 WELLS =       47548.0893
            RECHARGE =           0.0000              RECHARGE =           0.0000
      STREAM LEAKAGE =    31350046.5356        STREAM LEAKAGE =       62081.9097

           TOTAL OUT =    44378223.0157             TOTAL OUT =      109629.9991

            IN - OUT =          -1.8377              IN - OUT =      -7.0951E-03

 PERCENT DISCREPANCY =          -0.00     PERCENT DISCREPANCY =          -0.00






         TIME SUMMARY AT END OF TIME STEP    1 IN STRESS PERIOD    3
                    SECONDS     MINUTES      HOURS       DAYS        YEARS
                    -----------------------------------------------------------
   TIME STEP LENGTH 7.86240E+06 1.31040E+05  2184.0      91.000     0.24914    
 STRESS PERIOD TIME 7.86240E+06 1.31040E+05  2184.0      91.000     0.24914    
         TOTAL TIME 2.36736E+07 3.94560E+05  6576.0      274.00     0.75017    
1
1
                            STRESS PERIOD NO.    4, LENGTH =   91.00000    
                            -----------------------------------------------

                              NUMBER OF TIME STEPS =     1

                               MULTIPLIER FOR DELT =     1.500

                            INITIAL TIME STEP SIZE =   91.00000    

 WELL NO.  LAYER   ROW   COL   STRESS RATE         
 --------------------------------------------------
      1      1     23     29      -1803.    
      2      1     18     28     -0.1266E+05
      3      1     15     21     -0.1818E+05
      4      1     17     29     -0.1491E+05

      4 WELLS

                 RECHARGE =  1.000000E-03

 REUSING STREAM SEGMENT DATA FROM LAST STRESS PERIOD
 
 SOLVING FOR HEAD 


     7 CALLS TO PCG ROUTINE FOR TIME STEP   1 IN STRESS PERIOD    4
    24 TOTAL ITERATIONS

 OUTPUT CONTROL FOR STRESS PERIOD    4   TIME STEP    1
    SAVE BUDGET
    SAVE HEAD FOR ALL LAYERS
    PRINT HEAD FOR ALL LAYERS
 UBDSV2 SAVING "STREAMFLOW OUT  " ON UNIT  50 AT TIME STEP  1, STRESS PERIOD   4



 STREAM LISTING     PERIOD      4   STEP        1

 LAYER ROW COL. STREAM  RCH.  FLOW INTO     FLOW TO   FLOW OUT OF   OVRLND.     DIRECT     STREAM       STREAM     STREAM     STREAM   STREAMBED  STREAMBED
                SEG.NO.  NO.  STRM. RCH.    AQUIFER    STRM. RCH.    RUNOFF     PRECIP       ET          HEAD       DEPTH      WIDTH   CONDCTNC.   GRADIENT

   1   13    1     1     1    1.0000E+05 -2.5553E+03   1.0256E+05  0.000E+00  0.000E+00  0.000E+00  4.84071E+01  1.458E-01  2.000E+01  2.000E+04 -1.278E-01
   1   13    2     1     2    1.0256E+05 -3.6291E+03   1.0618E+05  0.000E+00  0.000E+00  0.000E+00  4.79325E+01  1.484E-01  2.000E+01  2.000E+04 -1.815E-01
   1   14    3     1     3    1.0618E+05 -6.2991E+02   1.0681E+05  0.000E+00  0.000E+00  0.000E+00  4.74570E+01  1.502E-01  2.000E+01  2.000E+04 -3.150E-02
   1   15    4     1     4    1.0681E+05 -6.0213E+02   1.0742E+05  0.000E+00  0.000E+00  0.000E+00  4.69803E+01  1.507E-01  2.000E+01  2.000E+04 -3.011E-02
   1   16    5     1     5    1.0742E+05 -2.1458E+03   1.0956E+05  0.000E+00  0.000E+00  0.000E+00  4.65042E+01  1.519E-01  2.000E+01  2.000E+04 -1.073E-01
   1   16    6     1     6    1.0956E+05 -1.3470E+03   1.1091E+05  0.000E+00  0.000E+00  0.000E+00  4.60284E+01  1.534E-01  2.000E+01  2.000E+04 -6.735E-02
   1   16    7     1     7    1.1091E+05 -1.3185E+03   1.1223E+05  0.000E+00  0.000E+00  0.000E+00  4.55522E+01  1.545E-01  2.000E+01  2.000E+04 -6.592E-02
   1   16    8     1     8    1.1223E+05 -1.3054E+03   1.1353E+05  0.000E+00  0.000E+00  0.000E+00  4.50760E+01  1.556E-01  2.000E+01  2.000E+04 -6.527E-02
   1   16    9     1     9    1.1353E+05 -1.2824E+03   1.1482E+05  0.000E+00  0.000E+00  0.000E+00  4.45998E+01  1.566E-01  2.000E+01  2.000E+04 -6.412E-02
   1   16   10     1    10    1.1482E+05 -1.2465E+03   1.1606E+05  0.000E+00  0.000E+00  0.000E+00  4.41236E+01  1.577E-01  2.000E+01  2.000E+04 -6.232E-02
   1   16   11     1    11    1.1606E+05 -1.2184E+03   1.1728E+05  0.000E+00  0.000E+00  0.000E+00  4.36473E+01  1.587E-01  2.000E+01  2.000E+04 -6.092E-02
   1   16   12     1    12    1.1728E+05 -2.0323E+03   1.1931E+05  0.000E+00  0.000E+00  0.000E+00  4.31714E+01  1.600E-01  2.000E+01  2.000E+04 -1.016E-01
   1   15   13     1    13    1.1931E+05 -1.9997E+03   1.2131E+05  0.000E+00  0.000E+00  0.000E+00  4.26957E+01  1.616E-01  2.000E+01  2.000E+04 -9.998E-02
   1   14   14     1    14    1.2131E+05 -2.3072E+03   1.2362E+05  0.000E+00  0.000E+00  0.000E+00  4.22202E+01  1.634E-01  2.000E+01  2.000E+04 -1.154E-01
   1   13   15     1    15    1.2362E+05 -2.6731E+03   1.2629E+05  0.000E+00  0.000E+00  0.000E+00  4.17449E+01  1.653E-01  2.000E+01  2.000E+04 -1.337E-01
   1   12   16     1    16    1.2629E+05 -3.6192E+03   1.2991E+05  0.000E+00  0.000E+00  0.000E+00  4.12701E+01  1.678E-01  2.000E+01  2.000E+04 -1.810E-01
   1   12   17     1    17    1.2991E+05 -2.1759E+03   1.3209E+05  0.000E+00  0.000E+00  0.000E+00  4.07951E+01  1.701E-01  2.000E+01  2.000E+04 -1.088E-01
   1   12   18     1    18    1.3209E+05 -1.9641E+03   1.3405E+05  0.000E+00  0.000E+00  0.000E+00  4.03194E+01  1.717E-01  2.000E+01  2.000E+04 -9.821E-02
   1   12   19     1    19    1.3405E+05 -2.5990E+03   1.3665E+05  0.000E+00  0.000E+00  0.000E+00  3.98439E+01  1.735E-01  2.000E+01  2.000E+04 -1.300E-01
   1   13   20     1    20    1.3665E+05 -7.4758E+02   1.3740E+05  0.000E+00  0.000E+00  0.000E+00  3.93679E+01  1.747E-01  2.000E+01  2.000E+04 -3.738E-02
   1   14   21     1    21    1.3740E+05  5.7440E+03   1.3165E+05  0.000E+00  0.000E+00  0.000E+00  3.88887E+01  1.728E-01  2.000E+01  2.000E+04  2.872E-01
   1   14   22     1    22    1.3165E+05  5.8855E+03   1.2577E+05  0.000E+00  0.000E+00  0.000E+00  3.84069E+01  1.683E-01  2.000E+01  2.000E+04  2.943E-01
   1    9   30     2     1    5.0000E+04 -6.7920E+02   5.0679E+04  0.000E+00  0.000E+00  0.000E+00  4.02413E+01  1.163E-01  2.000E+01  2.000E+04 -3.396E-02
   1    9   29     2     2    5.0679E+04 -1.0067E+03   5.1686E+04  0.000E+00  0.000E+00  0.000E+00  3.99925E+01  1.175E-01  2.000E+01  2.000E+04 -5.033E-02
   1    9   28     2     3    5.1686E+04 -1.3264E+03   5.3012E+04  0.000E+00  0.000E+00  0.000E+00  3.97441E+01  1.191E-01  2.000E+01  2.000E+04 -6.632E-02
   1    9   27     2     4    5.3012E+04 -2.8579E+03   5.5870E+04  0.000E+00  0.000E+00  0.000E+00  3.94969E+01  1.219E-01  2.000E+01  2.000E+04 -1.429E-01
   1   10   26     2     5    5.5870E+04 -1.8870E+03   5.7757E+04  0.000E+00  0.000E+00  0.000E+00  3.92501E+01  1.251E-01  2.000E+01  2.000E+04 -9.435E-02
   1   11   25     2     6    5.7757E+04 -1.6804E+03   5.9438E+04  0.000E+00  0.000E+00  0.000E+00  3.90024E+01  1.274E-01  2.000E+01  2.000E+04 -8.402E-02
   1   12   24     2     7    5.9438E+04 -1.8056E+03   6.1243E+04  0.000E+00  0.000E+00  0.000E+00  3.87547E+01  1.297E-01  2.000E+01  2.000E+04 -9.028E-02
   1   13   23     2     8    6.1243E+04 -3.0520E+02   6.1548E+04  0.000E+00  0.000E+00  0.000E+00  3.85061E+01  1.311E-01  2.000E+01  2.000E+04 -1.526E-02
   1   14   22     2     9    6.1548E+04  2.8353E+03   5.8713E+04  0.000E+00  0.000E+00  0.000E+00  3.82544E+01  1.294E-01  2.000E+01  2.000E+04  1.418E-01
   1   14   22     3     1    1.8448E+05 -7.6328E+03   1.9212E+05  0.000E+00  0.000E+00  0.000E+00  3.77310E+01  1.755E-01  2.000E+01  2.000E+04 -3.816E-01
   1   15   23     3     2    1.9212E+05  1.6690E+02   1.9195E+05  0.000E+00  0.000E+00  0.000E+00  3.68442E+01  1.776E-01  2.000E+01  2.000E+04  8.345E-03
   1   15   24     3     3    1.9195E+05 -2.3308E+02   1.9218E+05  0.000E+00  0.000E+00  0.000E+00  3.59553E+01  1.776E-01  2.000E+01  2.000E+04 -1.165E-02
   1   15   25     3     4    1.9218E+05 -2.5297E+02   1.9243E+05  0.000E+00  0.000E+00  0.000E+00  3.50666E+01  1.777E-01  2.000E+01  2.000E+04 -1.265E-02
   1   15   26     3     5    1.9243E+05 -2.3352E+02   1.9267E+05  0.000E+00  0.000E+00  0.000E+00  3.41778E+01  1.778E-01  2.000E+01  2.000E+04 -1.168E-02
   1   16   27     3     6    1.9267E+05  3.2583E+01   1.9264E+05  0.000E+00  0.000E+00  0.000E+00  3.32890E+01  1.779E-01  2.000E+01  2.000E+04  1.629E-03
   1   17   28     3     7    1.9264E+05  9.4030E+03   1.8323E+05  0.000E+00  0.000E+00  0.000E+00  3.23975E+01  1.753E-01  2.000E+01  2.000E+04  4.701E-01
   1   18   29     3     8    1.8323E+05  7.8244E+03   1.7541E+05  0.000E+00  0.000E+00  0.000E+00  3.15037E+01  1.704E-01  2.000E+01  2.000E+04  3.912E-01
   1   18   30     3     9    1.7541E+05  3.0326E+02   1.7510E+05  0.000E+00  0.000E+00  0.000E+00  3.06125E+01  1.681E-01  2.000E+01  2.000E+04  1.516E-02



1
              HEAD IN LAYER   1 AT END OF TIME STEP   1 IN STRESS PERIOD    4
  ---------------------------------------------------------------------------

          1      2      3      4      5      6      7      8      9     10
         11     12     13     14     15     16     17     18     19     20
         21     22     23     24     25     26     27     28     29     30
 .........................................................................
   1  ****** ****** ****** ****** ****** ****** ****** ****** ****** ******
      ****** ****** ****** ****** ****** ****** ****** ****** ****** ******
      ****** ****** ****** ****** ****** ****** ****** ****** ****** ******
   2  ****** ****** ****** ****** ****** ****** ****** ****** ****** ******
      ****** ****** ****** ****** ****** ****** ****** ****** ****** ******
      ****** ****** ****** ****** ****** ****** ****** ****** ****** ******
   3  ****** ****** ****** ****** ****** ****** ****** ****** ****** ******
      ****** ****** ****** ****** ****** ****** ****** ****** ****** ******
      ****** ****** ****** ****** ****** ****** ****** ****** ****** ******
   4  ****** ****** ****** ****** ****** ****** ****** ****** ****** ******
      ****** ****** ****** ****** ****** ****** ****** ****** ****** ******
      ****** ****** ****** ****** ****** ****** ****** ****** ****** ******
   5  ****** ****** ****** ****** ****** ****** ****** ****** ****** ******
      ****** ****** ****** ****** ****** ****** ****** ****** ****** ******
      ****** ****** ****** ****** ****** ****** ****** ****** ****** ******
   6  ****** ****** ****** ****** ****** ****** ****** ****** ****** ******
      ****** ****** ****** ****** ****** ****** ****** ****** ****** ******
      ****** ****** ****** ****** ****** ****** ****** ****** ****** ******
   7  ****** ****** ****** ****** ****** ****** ****** ****** ****** ******
      ****** ****** ****** ****** ****** ****** ****** ****** ****** ******
      ****** ****** ****** ****** ****** ****** ****** ****** ****** ******
   8  ****** ****** ****** ****** ****** ****** ****** ****** ****** ******
      ****** ****** ****** ****** ****** ****** ****** ****** ****** ******
      ****** ****** ****** ****** ****** ****** ****** ****** ****** ******
   9  ****** ****** ****** ****** ****** ****** ****** ****** ****** ******
      ****** ****** ****** ****** ****** ****** ****** ****** ****** ******
      ****** ****** ****** ****** ****** ****** ****** ****** ****** ******
  10  ****** ****** ****** ****** ****** ****** ****** ****** ****** ******
      ****** ****** ****** ****** ****** ****** ****** ****** ****** ******
      ****** ****** ****** ****** ****** ****** ****** ****** ****** ******
  11  ****** ****** ****** ****** ****** ****** ****** ****** ****** ******
      ****** ****** ****** ****** ****** ****** ****** ****** ****** ******
      ****** ****** ****** ****** ****** ****** ****** ****** ****** ******
  12  ****** ****** ****** ****** ****** ****** ****** ****** ****** ******
      ****** ****** ****** ****** ****** ****** ****** ****** ****** ******
      ****** ****** ****** ****** ****** ****** ****** ****** ****** ******
  13  ****** ****** ****** ****** ****** ****** ****** ****** ****** ******
      ****** ****** ****** ****** ****** ****** ****** ****** ****** ******
      ****** ****** ****** ****** ****** ****** ****** ****** ****** ******
  14  ****** ****** ****** ****** ****** ****** ****** ****** ****** ******
      ****** ****** ****** ****** ****** ****** ****** ****** ****** ******
      ****** ****** ****** ****** ****** ****** ****** ****** ****** ******
  15  ****** ****** ****** ****** ****** ****** ****** ****** ****** ******
      ****** ****** ****** ****** ****** ****** ****** ****** ****** ******
      ****** ****** ****** ****** ****** ****** ****** ****** ****** ******
  16  ****** ****** ****** ****** ****** ****** ****** ****** ****** ******
      ****** ****** ****** ****** ****** ****** ****** ****** ****** ******
      ****** ****** ****** ****** ****** ****** ****** ****** ****** ******
  17  ****** ****** ****** ****** ****** ****** ****** ****** ****** ******
      ****** ****** ****** ****** ****** ****** ****** ****** ****** ******
      ****** ****** ****** ****** ****** ****** ****** ****** ****** ******
  18  ****** ****** ****** ****** ****** ****** ****** ****** ****** ******
      ****** ****** ****** ****** ****** ****** ****** ****** ****** ******
      ****** ****** ****** ****** ****** ****** ****** ****** ****** ******
  19  ****** ****** ****** ****** ****** ****** ****** ****** ****** ******
      ****** ****** ****** ****** ****** ****** ****** ****** ****** ******
      ****** ****** ****** ****** ****** ****** ****** ****** ****** ******
  20  ****** ****** ****** ****** ****** ****** ****** ****** ****** ******
      ****** ****** ****** ****** ****** ****** ****** ****** ****** ******
      ****** ****** ****** ****** ****** ****** ****** ****** ****** ******
  21  ****** ****** ****** ****** ****** ****** ****** ****** ****** ******
      ****** ****** ****** ****** ****** ****** ****** ****** ****** ******
      ****** ****** ****** ****** ****** ****** ****** ****** ****** ******
  22  ****** ****** ****** ****** ****** ****** ****** ****** ****** ******
      ****** ****** ****** ****** ****** ****** ****** ****** ****** ******
      ****** ****** ****** ****** ****** ****** ****** ****** ****** ******
  23  ****** ****** ****** ****** ****** ****** ****** ****** ****** ******
      ****** ****** ****** ****** ****** ****** ****** ****** ****** ******
      ****** ****** ****** ****** ****** ****** ****** ****** ****** ******
  24  ****** ****** ****** ****** ****** ****** ****** ****** ****** ******
      ****** ****** ****** ****** ****** ****** ****** ****** ****** ******
      ****** ****** ****** ****** ****** ****** ****** ****** ****** ******
  25  ****** ****** ****** ****** ****** ****** ****** ****** ****** ******
      ****** ****** ****** ****** ****** ****** ****** ****** ****** ******
      ****** ****** ****** ****** ****** ****** ****** ****** ****** ******

 HEAD WILL BE SAVED ON UNIT   51 AT END OF TIME STEP    1, STRESS PERIOD    4
1
  VOLUMETRIC BUDGET FOR ENTIRE MODEL AT END OF TIME STEP    1, STRESS PERIOD   4
  ------------------------------------------------------------------------------

     CUMULATIVE VOLUMES      L**3       RATES FOR THIS TIME STEP      L**3/T
     ------------------                 ------------------------

           IN:                                      IN:
           ---                                      ---
             STORAGE =    28421197.8927               STORAGE =       17540.9616
       CONSTANT HEAD =     7446829.6745         CONSTANT HEAD =       27521.1236
               WELLS =           0.0000                 WELLS =           0.0000
            RECHARGE =     8804400.0000              RECHARGE =       27600.0000
      STREAM LEAKAGE =     9247775.5649        STREAM LEAKAGE =       32194.8594

            TOTAL IN =    53920203.1321              TOTAL IN =      104856.9445

          OUT:                                     OUT:
          ----                                     ----
             STORAGE =         868.1446               STORAGE =           9.5401
       CONSTANT HEAD =           0.0000         CONSTANT HEAD =           0.0000
               WELLS =    17355052.6104                 WELLS =       47548.0893
            RECHARGE =           0.0000              RECHARGE =           0.0000
      STREAM LEAKAGE =    36564284.3187        STREAM LEAKAGE =       57299.3163

           TOTAL OUT =    53920205.0736             TOTAL OUT =      104856.9457

            IN - OUT =          -1.9416              IN - OUT =      -1.1420E-03

 PERCENT DISCREPANCY =          -0.00     PERCENT DISCREPANCY =          -0.00






         TIME SUMMARY AT END OF TIME STEP    1 IN STRESS PERIOD    4
                    SECONDS     MINUTES      HOURS       DAYS        YEARS
                    -----------------------------------------------------------
   TIME STEP LENGTH 7.86240E+06 1.31040E+05  2184.0      91.000     0.24914    
 STRESS PERIOD TIME 7.86240E+06 1.31040E+05  2184.0      91.000     0.24914    
         TOTAL TIME 3.15360E+07 5.25600E+05  8760.0      365.00     0.99932    
1
1
                            STRESS PERIOD NO.    5, LENGTH =   92.00000    
                            -----------------------------------------------

                              NUMBER OF TIME STEPS =     1

                               MULTIPLIER FOR DELT =     1.500

                            INITIAL TIME STEP SIZE =   92.00000    

 WELL NO.  LAYER   ROW   COL   STRESS RATE         
 --------------------------------------------------
      1      1     23     29      -1803.    
      2      1     18     28     -0.1266E+05
      3      1     15     21     -0.1818E+05
      4      1     17     29     -0.1491E+05

      4 WELLS

                 RECHARGE =  5.000000E-04

 REUSING STREAM SEGMENT DATA FROM LAST STRESS PERIOD
 
 SOLVING FOR HEAD 


     7 CALLS TO PCG ROUTINE FOR TIME STEP   1 IN STRESS PERIOD    5
    26 TOTAL ITERATIONS

 OUTPUT CONTROL FOR STRESS PERIOD    5   TIME STEP    1
    SAVE BUDGET
    SAVE HEAD FOR ALL LAYERS
    PRINT HEAD FOR ALL LAYERS
 UBDSV2 SAVING "STREAMFLOW OUT  " ON UNIT  50 AT TIME STEP  1, STRESS PERIOD   5



 STREAM LISTING     PERIOD      5   STEP        1

 LAYER ROW COL. STREAM  RCH.  FLOW INTO     FLOW TO   FLOW OUT OF   OVRLND.     DIRECT     STREAM       STREAM     STREAM     STREAM   STREAMBED  STREAMBED
                SEG.NO.  NO.  STRM. RCH.    AQUIFER    STRM. RCH.    RUNOFF     PRECIP       ET          HEAD       DEPTH      WIDTH   CONDCTNC.   GRADIENT

   1   13    1     1     1    1.0000E+05 -2.1527E+03   1.0215E+05  0.000E+00  0.000E+00  0.000E+00  4.84069E+01  1.456E-01  2.000E+01  2.000E+04 -1.076E-01
   1   13    2     1     2    1.0215E+05 -3.1740E+03   1.0533E+05  0.000E+00  0.000E+00  0.000E+00  4.79320E+01  1.479E-01  2.000E+01  2.000E+04 -1.587E-01
   1   14    3     1     3    1.0533E+05 -5.0931E+02   1.0584E+05  0.000E+00  0.000E+00  0.000E+00  4.74563E+01  1.494E-01  2.000E+01  2.000E+04 -2.547E-02
   1   15    4     1     4    1.0584E+05 -4.7457E+02   1.0631E+05  0.000E+00  0.000E+00  0.000E+00  4.69794E+01  1.499E-01  2.000E+01  2.000E+04 -2.373E-02
   1   16    5     1     5    1.0631E+05 -1.7155E+03   1.0803E+05  0.000E+00  0.000E+00  0.000E+00  4.65031E+01  1.508E-01  2.000E+01  2.000E+04 -8.578E-02
   1   16    6     1     6    1.0803E+05 -1.0955E+03   1.0912E+05  0.000E+00  0.000E+00  0.000E+00  4.60270E+01  1.520E-01  2.000E+01  2.000E+04 -5.478E-02
   1   16    7     1     7    1.0912E+05 -1.0773E+03   1.1020E+05  0.000E+00  0.000E+00  0.000E+00  4.55506E+01  1.529E-01  2.000E+01  2.000E+04 -5.387E-02
   1   16    8     1     8    1.1020E+05 -1.0677E+03   1.1127E+05  0.000E+00  0.000E+00  0.000E+00  4.50742E+01  1.538E-01  2.000E+01  2.000E+04 -5.339E-02
   1   16    9     1     9    1.1127E+05 -1.0472E+03   1.1231E+05  0.000E+00  0.000E+00  0.000E+00  4.45978E+01  1.547E-01  2.000E+01  2.000E+04 -5.236E-02
   1   16   10     1    10    1.1231E+05 -1.0139E+03   1.1333E+05  0.000E+00  0.000E+00  0.000E+00  4.41214E+01  1.555E-01  2.000E+01  2.000E+04 -5.070E-02
   1   16   11     1    11    1.1333E+05 -9.8419E+02   1.1431E+05  0.000E+00  0.000E+00  0.000E+00  4.36450E+01  1.563E-01  2.000E+01  2.000E+04 -4.921E-02
   1   16   12     1    12    1.1431E+05 -1.6124E+03   1.1592E+05  0.000E+00  0.000E+00  0.000E+00  4.31688E+01  1.574E-01  2.000E+01  2.000E+04 -8.062E-02
   1   15   13     1    13    1.1592E+05 -1.5642E+03   1.1749E+05  0.000E+00  0.000E+00  0.000E+00  4.26928E+01  1.587E-01  2.000E+01  2.000E+04 -7.821E-02
   1   14   14     1    14    1.1749E+05 -1.8492E+03   1.1934E+05  0.000E+00  0.000E+00  0.000E+00  4.22169E+01  1.601E-01  2.000E+01  2.000E+04 -9.246E-02
   1   13   15     1    15    1.1934E+05 -2.2034E+03   1.2154E+05  0.000E+00  0.000E+00  0.000E+00  4.17413E+01  1.617E-01  2.000E+01  2.000E+04 -1.102E-01
   1   12   16     1    16    1.2154E+05 -3.1144E+03   1.2466E+05  0.000E+00  0.000E+00  0.000E+00  4.12661E+01  1.639E-01  2.000E+01  2.000E+04 -1.557E-01
   1   12   17     1    17    1.2466E+05 -1.8331E+03   1.2649E+05  0.000E+00  0.000E+00  0.000E+00  4.07908E+01  1.658E-01  2.000E+01  2.000E+04 -9.165E-02
   1   12   18     1    18    1.2649E+05 -1.6369E+03   1.2813E+05  0.000E+00  0.000E+00  0.000E+00  4.03149E+01  1.672E-01  2.000E+01  2.000E+04 -8.184E-02
   1   12   19     1    19    1.2813E+05 -2.2050E+03   1.3033E+05  0.000E+00  0.000E+00  0.000E+00  3.98392E+01  1.687E-01  2.000E+01  2.000E+04 -1.103E-01
   1   13   20     1    20    1.3033E+05 -3.9259E+02   1.3072E+05  0.000E+00  0.000E+00  0.000E+00  3.93629E+01  1.697E-01  2.000E+01  2.000E+04 -1.963E-02
   1   14   21     1    21    1.3072E+05  6.1358E+03   1.2459E+05  0.000E+00  0.000E+00  0.000E+00  3.88834E+01  1.675E-01  2.000E+01  2.000E+04  3.068E-01
   1   14   22     1    22    1.2459E+05  5.9661E+03   1.1862E+05  0.000E+00  0.000E+00  0.000E+00  3.84013E+01  1.627E-01  2.000E+01  2.000E+04  2.983E-01
   1    9   30     2     1    5.0000E+04 -4.5334E+02   5.0453E+04  0.000E+00  0.000E+00  0.000E+00  4.02412E+01  1.162E-01  2.000E+01  2.000E+04 -2.267E-02
   1    9   29     2     2    5.0453E+04 -7.7767E+02   5.1231E+04  0.000E+00  0.000E+00  0.000E+00  3.99920E+01  1.170E-01  2.000E+01  2.000E+04 -3.888E-02
   1    9   28     2     3    5.1231E+04 -1.0867E+03   5.2318E+04  0.000E+00  0.000E+00  0.000E+00  3.97433E+01  1.183E-01  2.000E+01  2.000E+04 -5.433E-02
   1    9   27     2     4    5.2318E+04 -2.4834E+03   5.4801E+04  0.000E+00  0.000E+00  0.000E+00  3.94957E+01  1.207E-01  2.000E+01  2.000E+04 -1.242E-01
   1   10   26     2     5    5.4801E+04 -1.5586E+03   5.6360E+04  0.000E+00  0.000E+00  0.000E+00  3.92485E+01  1.235E-01  2.000E+01  2.000E+04 -7.793E-02
   1   11   25     2     6    5.6360E+04 -1.3787E+03   5.7738E+04  0.000E+00  0.000E+00  0.000E+00  3.90004E+01  1.254E-01  2.000E+01  2.000E+04 -6.893E-02
   1   12   24     2     7    5.7738E+04 -1.5305E+03   5.9269E+04  0.000E+00  0.000E+00  0.000E+00  3.87523E+01  1.273E-01  2.000E+01  2.000E+04 -7.652E-02
   1   13   23     2     8    5.9269E+04 -2.3810E+02   5.9507E+04  0.000E+00  0.000E+00  0.000E+00  3.85035E+01  1.285E-01  2.000E+01  2.000E+04 -1.190E-02
   1   14   22     2     9    5.9507E+04  2.9738E+03   5.6533E+04  0.000E+00  0.000E+00  0.000E+00  3.82517E+01  1.267E-01  2.000E+01  2.000E+04  1.487E-01
   1   14   22     3     1    1.7515E+05 -7.5452E+03   1.8270E+05  0.000E+00  0.000E+00  0.000E+00  3.77257E+01  1.702E-01  2.000E+01  2.000E+04 -3.773E-01
   1   15   23     3     2    1.8270E+05  2.7078E+02   1.8243E+05  0.000E+00  0.000E+00  0.000E+00  3.68389E+01  1.722E-01  2.000E+01  2.000E+04  1.354E-02
   1   15   24     3     3    1.8243E+05 -1.5715E+02   1.8259E+05  0.000E+00  0.000E+00  0.000E+00  3.59500E+01  1.722E-01  2.000E+01  2.000E+04 -7.858E-03
   1   15   25     3     4    1.8259E+05 -1.7782E+02   1.8276E+05  0.000E+00  0.000E+00  0.000E+00  3.50612E+01  1.723E-01  2.000E+01  2.000E+04 -8.891E-03
   1   15   26     3     5    1.8276E+05 -1.5845E+02   1.8292E+05  0.000E+00  0.000E+00  0.000E+00  3.41724E+01  1.724E-01  2.000E+01  2.000E+04 -7.922E-03
   1   16   27     3     6    1.8292E+05  1.2825E+02   1.8279E+05  0.000E+00  0.000E+00  0.000E+00  3.32835E+01  1.724E-01  2.000E+01  2.000E+04  6.412E-03
   1   17   28     3     7    1.8279E+05  9.6894E+03   1.7310E+05  0.000E+00  0.000E+00  0.000E+00  3.23918E+01  1.696E-01  2.000E+01  2.000E+04  4.845E-01
   1   18   29     3     8    1.7310E+05  8.2354E+03   1.6487E+05  0.000E+00  0.000E+00  0.000E+00  3.14978E+01  1.644E-01  2.000E+01  2.000E+04  4.118E-01
   1   18   30     3     9    1.6487E+05  5.8390E+02   1.6429E+05  0.000E+00  0.000E+00  0.000E+00  3.06063E+01  1.619E-01  2.000E+01  2.000E+04  2.919E-02



1
              HEAD IN LAYER   1 AT END OF TIME STEP   1 IN STRESS PERIOD    5
  ---------------------------------------------------------------------------

          1      2      3      4      5      6      7      8      9     10
         11     12     13     14     15     16     17     18     19     20
         21     22     23     24     25     26     27     28     29     30
 .........................................................................
   1  ****** ****** ****** ****** ****** ****** ****** ****** ****** ******
      ****** ****** ****** ****** ****** ****** ****** ****** ****** ******
      ****** ****** ****** ****** ****** ****** ****** ****** ****** ******
   2  ****** ****** ****** ****** ****** ****** ****** ****** ****** ******
      ****** ****** ****** ****** ****** ****** ****** ****** ****** ******
      ****** ****** ****** ****** ****** ****** ****** ****** ****** ******
   3  ****** ****** ****** ****** ****** ****** ****** ****** ****** ******
      ****** ****** ****** ****** ****** ****** ****** ****** ****** ******
      ****** ****** ****** ****** ****** ****** ****** ****** ****** ******
   4  ****** ****** ****** ****** ****** ****** ****** ****** ****** ******
      ****** ****** ****** ****** ****** ****** ****** ****** ****** ******
      ****** ****** ****** ****** ****** ****** ****** ****** ****** ******
   5  ****** ****** ****** ****** ****** ****** ****** ****** ****** ******
      ****** ****** ****** ****** ****** ****** ****** ****** ****** ******
      ****** ****** ****** ****** ****** ****** ****** ****** ****** ******
   6  ****** ****** ****** ****** ****** ****** ****** ****** ****** ******
      ****** ****** ****** ****** ****** ****** ****** ****** ****** ******
      ****** ****** ****** ****** ****** ****** ****** ****** ****** ******
   7  ****** ****** ****** ****** ****** ****** ****** ****** ****** ******
      ****** ****** ****** ****** ****** ****** ****** ****** ****** ******
      ****** ****** ****** ****** ****** ****** ****** ****** ****** ******
   8  ****** ****** ****** ****** ****** ****** ****** ****** ****** ******
      ****** ****** ****** ****** ****** ****** ****** ****** ****** ******
      ****** ****** ****** ****** ****** ****** ****** ****** ****** ******
   9  ****** ****** ****** ****** ****** ****** ****** ****** ****** ******
      ****** ****** ****** ****** ****** ****** ****** ****** ****** ******
      ****** ****** ****** ****** ****** ****** ****** ****** ****** ******
  10  ****** ****** ****** ****** ****** ****** ****** ****** ****** ******
      ****** ****** ****** ****** ****** ****** ****** ****** ****** ******
      ****** ****** ****** ****** ****** ****** ****** ****** ****** ******
  11  ****** ****** ****** ****** ****** ****** ****** ****** ****** ******
      ****** ****** ****** ****** ****** ****** ****** ****** ****** ******
      ****** ****** ****** ****** ****** ****** ****** ****** ****** ******
  12  ****** ****** ****** ****** ****** ****** ****** ****** ****** ******
      ****** ****** ****** ****** ****** ****** ****** ****** ****** ******
      ****** ****** ****** ****** ****** ****** ****** ****** ****** ******
  13  ****** ****** ****** ****** ****** ****** ****** ****** ****** ******
      ****** ****** ****** ****** ****** ****** ****** ****** ****** ******
      ****** ****** ****** ****** ****** ****** ****** ****** ****** ******
  14  ****** ****** ****** ****** ****** ****** ****** ****** ****** ******
      ****** ****** ****** ****** ****** ****** ****** ****** ****** ******
      ****** ****** ****** ****** ****** ****** ****** ****** ****** ******
  15  ****** ****** ****** ****** ****** ****** ****** ****** ****** ******
      ****** ****** ****** ****** ****** ****** ****** ****** ****** ******
      ****** ****** ****** ****** ****** ****** ****** ****** ****** ******
  16  ****** ****** ****** ****** ****** ****** ****** ****** ****** ******
      ****** ****** ****** ****** ****** ****** ****** ****** ****** ******
      ****** ****** ****** ****** ****** ****** ****** ****** ****** ******
  17  ****** ****** ****** ****** ****** ****** ****** ****** ****** ******
      ****** ****** ****** ****** ****** ****** ****** ****** ****** ******
      ****** ****** ****** ****** ****** ****** ****** ****** ****** ******
  18  ****** ****** ****** ****** ****** ****** ****** ****** ****** ******
      ****** ****** ****** ****** ****** ****** ****** ****** ****** ******
      ****** ****** ****** ****** ****** ****** ****** ****** ****** ******
  19  ****** ****** ****** ****** ****** ****** ****** ****** ****** ******
      ****** ****** ****** ****** ****** ****** ****** ****** ****** ******
      ****** ****** ****** ****** ****** ****** ****** ****** ****** ******
  20  ****** ****** ****** ****** ****** ****** ****** ****** ****** ******
      ****** ****** ****** ****** ****** ****** ****** ****** ****** ******
      ****** ****** ****** ****** ****** ****** ****** ****** ****** ******
  21  ****** ****** ****** ****** ****** ****** ****** ****** ****** ******
      ****** ****** ****** ****** ****** ****** ****** ****** ****** ******
      ****** ****** ****** ****** ****** ****** ****** ****** ****** ******
  22  ****** ****** ****** ****** ****** ****** ****** ****** ****** ******
      ****** ****** ****** ****** ****** ****** ****** ****** ****** ******
      ****** ****** ****** ****** ****** ****** ****** ****** ****** ******
  23  ****** ****** ****** ****** ****** ****** ****** ****** ****** ******
      ****** ****** ****** ****** ****** ****** ****** ****** ****** ******
      ****** ****** ****** ****** ****** ****** ****** ****** ****** ******
  24  ****** ****** ****** ****** ****** ****** ****** ****** ****** ******
      ****** ****** ****** ****** ****** ****** ****** ****** ****** ******
      ****** ****** ****** ****** ****** ****** ****** ****** ****** ******
  25  ****** ****** ****** ****** ****** ****** ****** ****** ****** ******
      ****** ****** ****** ****** ****** ****** ****** ****** ****** ******
      ****** ****** ****** ****** ****** ****** ****** ****** ****** ******

 HEAD WILL BE SAVED ON UNIT   51 AT END OF TIME STEP    1, STRESS PERIOD    5
1
  VOLUMETRIC BUDGET FOR ENTIRE MODEL AT END OF TIME STEP    1, STRESS PERIOD   5
  ------------------------------------------------------------------------------

     CUMULATIVE VOLUMES      L**3       RATES FOR THIS TIME STEP      L**3/T
     ------------------                 ------------------------

           IN:                                      IN:
           ---                                      ---
             STORAGE =    30046963.4880               STORAGE =       17671.3652
       CONSTANT HEAD =    10240110.2267         CONSTANT HEAD =       30361.7451
               WELLS =           0.0000                 WELLS =           0.0000
            RECHARGE =    10074000.0000              RECHARGE =       13800.0000
      STREAM LEAKAGE =    12374254.4604        STREAM LEAKAGE =       33983.4663

            TOTAL IN =    62735328.1752              TOTAL IN =       95816.5766

          OUT:                                     OUT:
          ----                                     ----
             STORAGE =         868.1446               STORAGE =           0.0000
       CONSTANT HEAD =           0.0000         CONSTANT HEAD =           0.0000
               WELLS =    21729476.8299                 WELLS =       47548.0893
            RECHARGE =           0.0000              RECHARGE =           0.0000
      STREAM LEAKAGE =    41004985.4080        STREAM LEAKAGE =       48268.4901

           TOTAL OUT =    62735330.3825             TOTAL OUT =       95816.5794

            IN - OUT =          -2.2073              IN - OUT =      -2.8887E-03

 PERCENT DISCREPANCY =          -0.00     PERCENT DISCREPANCY =          -0.00






         TIME SUMMARY AT END OF TIME STEP    1 IN STRESS PERIOD    5
                    SECONDS     MINUTES      HOURS       DAYS        YEARS
                    -----------------------------------------------------------
   TIME STEP LENGTH 7.94880E+06 1.32480E+05  2208.0      92.000     0.25188    
 STRESS PERIOD TIME 7.94880E+06 1.32480E+05  2208.0      92.000     0.25188    
         TOTAL TIME 3.94848E+07 6.58080E+05  10968.      457.00      1.2512    
1
1
                            STRESS PERIOD NO.    6, LENGTH =   91.00000    
                            -----------------------------------------------

                              NUMBER OF TIME STEPS =     1

                               MULTIPLIER FOR DELT =     1.500

                            INITIAL TIME STEP SIZE =   91.00000    

 WELL NO.  LAYER   ROW   COL   STRESS RATE         
 --------------------------------------------------
      1      1     23     29      -1803.    
      2      1     18     28     -0.1266E+05
      3      1     15     21     -0.1818E+05
      4      1     17     29     -0.1491E+05

      4 WELLS

                 RECHARGE =  2.000000E-03

 REUSING STREAM SEGMENT DATA FROM LAST STRESS PERIOD
 
 SOLVING FOR HEAD 


     7 CALLS TO PCG ROUTINE FOR TIME STEP   1 IN STRESS PERIOD    6
    26 TOTAL ITERATIONS

 OUTPUT CONTROL FOR STRESS PERIOD    6   TIME STEP    1
    SAVE BUDGET
    SAVE HEAD FOR ALL LAYERS
    PRINT HEAD FOR ALL LAYERS
 UBDSV2 SAVING "STREAMFLOW OUT  " ON UNIT  50 AT TIME STEP  1, STRESS PERIOD   6



 STREAM LISTING     PERIOD      6   STEP        1

 LAYER ROW COL. STREAM  RCH.  FLOW INTO     FLOW TO   FLOW OUT OF   OVRLND.     DIRECT     STREAM       STREAM     STREAM     STREAM   STREAMBED  STREAMBED
                SEG.NO.  NO.  STRM. RCH.    AQUIFER    STRM. RCH.    RUNOFF     PRECIP       ET          HEAD       DEPTH      WIDTH   CONDCTNC.   GRADIENT

   1   13    1     1     1    1.0000E+05 -2.4779E+03   1.0248E+05  0.000E+00  0.000E+00  0.000E+00  4.84071E+01  1.457E-01  2.000E+01  2.000E+04 -1.239E-01
   1   13    2     1     2    1.0248E+05 -3.5306E+03   1.0601E+05  0.000E+00  0.000E+00  0.000E+00  4.79324E+01  1.483E-01  2.000E+01  2.000E+04 -1.765E-01
   1   14    3     1     3    1.0601E+05 -6.6570E+02   1.0667E+05  0.000E+00  0.000E+00  0.000E+00  4.74569E+01  1.501E-01  2.000E+01  2.000E+04 -3.329E-02
   1   15    4     1     4    1.0667E+05 -6.4206E+02   1.0732E+05  0.000E+00  0.000E+00  0.000E+00  4.69802E+01  1.506E-01  2.000E+01  2.000E+04 -3.210E-02
   1   16    5     1     5    1.0732E+05 -2.2125E+03   1.0953E+05  0.000E+00  0.000E+00  0.000E+00  4.65041E+01  1.518E-01  2.000E+01  2.000E+04 -1.106E-01
   1   16    6     1     6    1.0953E+05 -1.3875E+03   1.1092E+05  0.000E+00  0.000E+00  0.000E+00  4.60284E+01  1.534E-01  2.000E+01  2.000E+04 -6.938E-02
   1   16    7     1     7    1.1092E+05 -1.3541E+03   1.1227E+05  0.000E+00  0.000E+00  0.000E+00  4.55522E+01  1.545E-01  2.000E+01  2.000E+04 -6.770E-02
   1   16    8     1     8    1.1227E+05 -1.3397E+03   1.1361E+05  0.000E+00  0.000E+00  0.000E+00  4.50761E+01  1.556E-01  2.000E+01  2.000E+04 -6.699E-02
   1   16    9     1     9    1.1361E+05 -1.3185E+03   1.1493E+05  0.000E+00  0.000E+00  0.000E+00  4.45999E+01  1.567E-01  2.000E+01  2.000E+04 -6.592E-02
   1   16   10     1    10    1.1493E+05 -1.2863E+03   1.1621E+05  0.000E+00  0.000E+00  0.000E+00  4.41237E+01  1.578E-01  2.000E+01  2.000E+04 -6.432E-02
   1   16   11     1    11    1.1621E+05 -1.2591E+03   1.1747E+05  0.000E+00  0.000E+00  0.000E+00  4.36475E+01  1.588E-01  2.000E+01  2.000E+04 -6.296E-02
   1   16   12     1    12    1.1747E+05 -2.0560E+03   1.1953E+05  0.000E+00  0.000E+00  0.000E+00  4.31715E+01  1.602E-01  2.000E+01  2.000E+04 -1.028E-01
   1   15   13     1    13    1.1953E+05 -2.0219E+03   1.2155E+05  0.000E+00  0.000E+00  0.000E+00  4.26959E+01  1.618E-01  2.000E+01  2.000E+04 -1.011E-01
   1   14   14     1    14    1.2155E+05 -2.3053E+03   1.2386E+05  0.000E+00  0.000E+00  0.000E+00  4.22204E+01  1.635E-01  2.000E+01  2.000E+04 -1.153E-01
   1   13   15     1    15    1.2386E+05 -2.6434E+03   1.2650E+05  0.000E+00  0.000E+00  0.000E+00  4.17451E+01  1.655E-01  2.000E+01  2.000E+04 -1.322E-01
   1   12   16     1    16    1.2650E+05 -3.5147E+03   1.3002E+05  0.000E+00  0.000E+00  0.000E+00  4.12702E+01  1.679E-01  2.000E+01  2.000E+04 -1.757E-01
   1   12   17     1    17    1.3002E+05 -2.1546E+03   1.3217E+05  0.000E+00  0.000E+00  0.000E+00  4.07952E+01  1.702E-01  2.000E+01  2.000E+04 -1.077E-01
   1   12   18     1    18    1.3217E+05 -1.9610E+03   1.3413E+05  0.000E+00  0.000E+00  0.000E+00  4.03195E+01  1.718E-01  2.000E+01  2.000E+04 -9.805E-02
   1   12   19     1    19    1.3413E+05 -2.6089E+03   1.3674E+05  0.000E+00  0.000E+00  0.000E+00  3.98440E+01  1.735E-01  2.000E+01  2.000E+04 -1.304E-01
   1   13   20     1    20    1.3674E+05 -8.1592E+02   1.3756E+05  0.000E+00  0.000E+00  0.000E+00  3.93680E+01  1.748E-01  2.000E+01  2.000E+04 -4.080E-02
   1   14   21     1    21    1.3756E+05  5.7300E+03   1.3183E+05  0.000E+00  0.000E+00  0.000E+00  3.88889E+01  1.730E-01  2.000E+01  2.000E+04  2.865E-01
   1   14   22     1    22    1.3183E+05  5.8610E+03   1.2596E+05  0.000E+00  0.000E+00  0.000E+00  3.84071E+01  1.684E-01  2.000E+01  2.000E+04  2.931E-01
   1    9   30     2     1    5.0000E+04 -8.2075E+02   5.0821E+04  0.000E+00  0.000E+00  0.000E+00  4.02414E+01  1.164E-01  2.000E+01  2.000E+04 -4.104E-02
   1    9   29     2     2    5.0821E+04 -1.1410E+03   5.1962E+04  0.000E+00  0.000E+00  0.000E+00  3.99928E+01  1.178E-01  2.000E+01  2.000E+04 -5.705E-02
   1    9   28     2     3    5.1962E+04 -1.4438E+03   5.3406E+04  0.000E+00  0.000E+00  0.000E+00  3.97446E+01  1.196E-01  2.000E+01  2.000E+04 -7.219E-02
   1    9   27     2     4    5.3406E+04 -2.9384E+03   5.6344E+04  0.000E+00  0.000E+00  0.000E+00  3.94975E+01  1.225E-01  2.000E+01  2.000E+04 -1.469E-01
   1   10   26     2     5    5.6344E+04 -2.0358E+03   5.8380E+04  0.000E+00  0.000E+00  0.000E+00  3.92508E+01  1.258E-01  2.000E+01  2.000E+04 -1.018E-01
   1   11   25     2     6    5.8380E+04 -1.8405E+03   6.0220E+04  0.000E+00  0.000E+00  0.000E+00  3.90034E+01  1.284E-01  2.000E+01  2.000E+04 -9.202E-02
   1   12   24     2     7    6.0220E+04 -1.9472E+03   6.2167E+04  0.000E+00  0.000E+00  0.000E+00  3.87558E+01  1.308E-01  2.000E+01  2.000E+04 -9.736E-02
   1   13   23     2     8    6.2167E+04 -3.7698E+02   6.2544E+04  0.000E+00  0.000E+00  0.000E+00  3.85073E+01  1.323E-01  2.000E+01  2.000E+04 -1.885E-02
   1   14   22     2     9    6.2544E+04  2.8336E+03   5.9711E+04  0.000E+00  0.000E+00  0.000E+00  3.82557E+01  1.307E-01  2.000E+01  2.000E+04  1.417E-01
   1   14   22     3     1    1.8568E+05 -7.6467E+03   1.9332E+05  0.000E+00  0.000E+00  0.000E+00  3.77317E+01  1.761E-01  2.000E+01  2.000E+04 -3.823E-01
   1   15   23     3     2    1.9332E+05  1.3580E+02   1.9319E+05  0.000E+00  0.000E+00  0.000E+00  3.68449E+01  1.782E-01  2.000E+01  2.000E+04  6.790E-03
   1   15   24     3     3    1.9319E+05 -2.7746E+02   1.9346E+05  0.000E+00  0.000E+00  0.000E+00  3.59560E+01  1.783E-01  2.000E+01  2.000E+04 -1.387E-02
   1   15   25     3     4    1.9346E+05 -3.0267E+02   1.9377E+05  0.000E+00  0.000E+00  0.000E+00  3.50673E+01  1.784E-01  2.000E+01  2.000E+04 -1.513E-02
   1   15   26     3     5    1.9377E+05 -3.0871E+02   1.9408E+05  0.000E+00  0.000E+00  0.000E+00  3.41786E+01  1.786E-01  2.000E+01  2.000E+04 -1.544E-02
   1   16   27     3     6    1.9408E+05 -3.8469E+01   1.9411E+05  0.000E+00  0.000E+00  0.000E+00  3.32898E+01  1.787E-01  2.000E+01  2.000E+04 -1.923E-03
   1   17   28     3     7    1.9411E+05  9.2334E+03   1.8488E+05  0.000E+00  0.000E+00  0.000E+00  3.23984E+01  1.761E-01  2.000E+01  2.000E+04  4.617E-01
   1   18   29     3     8    1.8488E+05  7.8099E+03   1.7707E+05  0.000E+00  0.000E+00  0.000E+00  3.15047E+01  1.713E-01  2.000E+01  2.000E+04  3.905E-01
   1   18   30     3     9    1.7707E+05  2.3654E+02   1.7683E+05  0.000E+00  0.000E+00  0.000E+00  3.06135E+01  1.690E-01  2.000E+01  2.000E+04  1.183E-02



1
              HEAD IN LAYER   1 AT END OF TIME STEP   1 IN STRESS PERIOD    6
  ---------------------------------------------------------------------------

          1      2      3      4      5      6      7      8      9     10
         11     12     13     14     15     16     17     18     19     20
         21     22     23     24     25     26     27     28     29     30
 .........................................................................
   1  ****** ****** ****** ****** ****** ****** ****** ****** ****** ******
      ****** ****** ****** ****** ****** ****** ****** ****** ****** ******
      ****** ****** ****** ****** ****** ****** ****** ****** ****** ******
   2  ****** ****** ****** ****** ****** ****** ****** ****** ****** ******
      ****** ****** ****** ****** ****** ****** ****** ****** ****** ******
      ****** ****** ****** ****** ****** ****** ****** ****** ****** ******
   3  ****** ****** ****** ****** ****** ****** ****** ****** ****** ******
      ****** ****** ****** ****** ****** ****** ****** ****** ****** ******
      ****** ****** ****** ****** ****** ****** ****** ****** ****** ******
   4  ****** ****** ****** ****** ****** ****** ****** ****** ****** ******
      ****** ****** ****** ****** ****** ****** ****** ****** ****** ******
      ****** ****** ****** ****** ****** ****** ****** ****** ****** ******
   5  ****** ****** ****** ****** ****** ****** ****** ****** ****** ******
      ****** ****** ****** ****** ****** ****** ****** ****** ****** ******
      ****** ****** ****** ****** ****** ****** ****** ****** ****** ******
   6  ****** ****** ****** ****** ****** ****** ****** ****** ****** ******
      ****** ****** ****** ****** ****** ****** ****** ****** ****** ******
      ****** ****** ****** ****** ****** ****** ****** ****** ****** ******
   7  ****** ****** ****** ****** ****** ****** ****** ****** ****** ******
      ****** ****** ****** ****** ****** ****** ****** ****** ****** ******
      ****** ****** ****** ****** ****** ****** ****** ****** ****** ******
   8  ****** ****** ****** ****** ****** ****** ****** ****** ****** ******
      ****** ****** ****** ****** ****** ****** ****** ****** ****** ******
      ****** ****** ****** ****** ****** ****** ****** ****** ****** ******
   9  ****** ****** ****** ****** ****** ****** ****** ****** ****** ******
      ****** ****** ****** ****** ****** ****** ****** ****** ****** ******
      ****** ****** ****** ****** ****** ****** ****** ****** ****** ******
  10  ****** ****** ****** ****** ****** ****** ****** ****** ****** ******
      ****** ****** ****** ****** ****** ****** ****** ****** ****** ******
      ****** ****** ****** ****** ****** ****** ****** ****** ****** ******
  11  ****** ****** ****** ****** ****** ****** ****** ****** ****** ******
      ****** ****** ****** ****** ****** ****** ****** ****** ****** ******
      ****** ****** ****** ****** ****** ****** ****** ****** ****** ******
  12  ****** ****** ****** ****** ****** ****** ****** ****** ****** ******
      ****** ****** ****** ****** ****** ****** ****** ****** ****** ******
      ****** ****** ****** ****** ****** ****** ****** ****** ****** ******
  13  ****** ****** ****** ****** ****** ****** ****** ****** ****** ******
      ****** ****** ****** ****** ****** ****** ****** ****** ****** ******
      ****** ****** ****** ****** ****** ****** ****** ****** ****** ******
  14  ****** ****** ****** ****** ****** ****** ****** ****** ****** ******
      ****** ****** ****** ****** ****** ****** ****** ****** ****** ******
      ****** ****** ****** ****** ****** ****** ****** ****** ****** ******
  15  ****** ****** ****** ****** ****** ****** ****** ****** ****** ******
      ****** ****** ****** ****** ****** ****** ****** ****** ****** ******
      ****** ****** ****** ****** ****** ****** ****** ****** ****** ******
  16  ****** ****** ****** ****** ****** ****** ****** ****** ****** ******
      ****** ****** ****** ****** ****** ****** ****** ****** ****** ******
      ****** ****** ****** ****** ****** ****** ****** ****** ****** ******
  17  ****** ****** ****** ****** ****** ****** ****** ****** ****** ******
      ****** ****** ****** ****** ****** ****** ****** ****** ****** ******
      ****** ****** ****** ****** ****** ****** ****** ****** ****** ******
  18  ****** ****** ****** ****** ****** ****** ****** ****** ****** ******
      ****** ****** ****** ****** ****** ****** ****** ****** ****** ******
      ****** ****** ****** ****** ****** ****** ****** ****** ****** ******
  19  ****** ****** ****** ****** ****** ****** ****** ****** ****** ******
      ****** ****** ****** ****** ****** ****** ****** ****** ****** ******
      ****** ****** ****** ****** ****** ****** ****** ****** ****** ******
  20  ****** ****** ****** ****** ****** ****** ****** ****** ****** ******
      ****** ****** ****** ****** ****** ****** ****** ****** ****** ******
      ****** ****** ****** ****** ****** ****** ****** ****** ****** ******
  21  ****** ****** ****** ****** ****** ****** ****** ****** ****** ******
      ****** ****** ****** ****** ****** ****** ****** ****** ****** ******
      ****** ****** ****** ****** ****** ****** ****** ****** ****** ******
  22  ****** ****** ****** ****** ****** ****** ****** ****** ****** ******
      ****** ****** ****** ****** ****** ****** ****** ****** ****** ******
      ****** ****** ****** ****** ****** ****** ****** ****** ****** ******
  23  ****** ****** ****** ****** ****** ****** ****** ****** ****** ******
      ****** ****** ****** ****** ****** ****** ****** ****** ****** ******
      ****** ****** ****** ****** ****** ****** ****** ****** ****** ******
  24  ****** ****** ****** ****** ****** ****** ****** ****** ****** ******
      ****** ****** ****** ****** ****** ****** ****** ****** ****** ******
      ****** ****** ****** ****** ****** ****** ****** ****** ****** ******
  25  ****** ****** ****** ****** ****** ****** ****** ****** ****** ******
      ****** ****** ****** ****** ****** ****** ****** ****** ****** ******
      ****** ****** ****** ****** ****** ****** ****** ****** ****** ******

 HEAD WILL BE SAVED ON UNIT   51 AT END OF TIME STEP    1, STRESS PERIOD    6
1
  VOLUMETRIC BUDGET FOR ENTIRE MODEL AT END OF TIME STEP    1, STRESS PERIOD   6
  ------------------------------------------------------------------------------

     CUMULATIVE VOLUMES      L**3       RATES FOR THIS TIME STEP      L**3/T
     ------------------                 ------------------------

           IN:                                      IN:
           ---                                      ---
             STORAGE =    30046963.4880               STORAGE =           0.0000
       CONSTANT HEAD =    12824633.6874         CONSTANT HEAD =       28401.3567
               WELLS =           0.0000                 WELLS =           0.0000
            RECHARGE =    15097200.0000              RECHARGE =       55200.0000
      STREAM LEAKAGE =    15271722.9279        STREAM LEAKAGE =       31840.3128

            TOTAL IN =    73240520.1033              TOTAL IN =      115441.6695

          OUT:                                     OUT:
          ----                                     ----
             STORAGE =      839833.2864               STORAGE =        9219.3972
       CONSTANT HEAD =           0.0000         CONSTANT HEAD =           0.0000
               WELLS =    26056352.9602                 WELLS =       47548.0893
            RECHARGE =           0.0000              RECHARGE =           0.0000
      STREAM LEAKAGE =    46344335.8109        STREAM LEAKAGE =       58674.1803

           TOTAL OUT =    73240522.0576             TOTAL OUT =      115441.6668

            IN - OUT =          -1.9542              IN - OUT =       2.7814E-03

 PERCENT DISCREPANCY =          -0.00     PERCENT DISCREPANCY =           0.00






         TIME SUMMARY AT END OF TIME STEP    1 IN STRESS PERIOD    6
                    SECONDS     MINUTES      HOURS       DAYS        YEARS
                    -----------------------------------------------------------
   TIME STEP LENGTH 7.86240E+06 1.31040E+05  2184.0      91.000     0.24914    
 STRESS PERIOD TIME 7.86240E+06 1.31040E+05  2184.0      91.000     0.24914    
         TOTAL TIME 4.73472E+07 7.89120E+05  13152.      548.00      1.5003    
1
1
                            STRESS PERIOD NO.    7, LENGTH =   91.00000    
                            -----------------------------------------------

                              NUMBER OF TIME STEPS =     1

                               MULTIPLIER FOR DELT =     1.500

                            INITIAL TIME STEP SIZE =   91.00000    

 WELL NO.  LAYER   ROW   COL   STRESS RATE         
 --------------------------------------------------
      1      1     23     29      -1803.    
      2      1     18     28     -0.1266E+05
      3      1     15     21     -0.1818E+05
      4      1     17     29     -0.1491E+05

      4 WELLS

                 RECHARGE =   0.00000    

 REUSING STREAM SEGMENT DATA FROM LAST STRESS PERIOD
 
 SOLVING FOR HEAD 


     7 CALLS TO PCG ROUTINE FOR TIME STEP   1 IN STRESS PERIOD    7
    26 TOTAL ITERATIONS

 OUTPUT CONTROL FOR STRESS PERIOD    7   TIME STEP    1
    SAVE BUDGET
    SAVE HEAD FOR ALL LAYERS
    PRINT HEAD FOR ALL LAYERS
 UBDSV2 SAVING "STREAMFLOW OUT  " ON UNIT  50 AT TIME STEP  1, STRESS PERIOD   7



 STREAM LISTING     PERIOD      7   STEP        1

 LAYER ROW COL. STREAM  RCH.  FLOW INTO     FLOW TO   FLOW OUT OF   OVRLND.     DIRECT     STREAM       STREAM     STREAM     STREAM   STREAMBED  STREAMBED
                SEG.NO.  NO.  STRM. RCH.    AQUIFER    STRM. RCH.    RUNOFF     PRECIP       ET          HEAD       DEPTH      WIDTH   CONDCTNC.   GRADIENT

   1   13    1     1     1    1.0000E+05 -1.8206E+03   1.0182E+05  0.000E+00  0.000E+00  0.000E+00  4.84068E+01  1.454E-01  2.000E+01  2.000E+04 -9.103E-02
   1   13    2     1     2    1.0182E+05 -2.7955E+03   1.0462E+05  0.000E+00  0.000E+00  0.000E+00  4.79315E+01  1.474E-01  2.000E+01  2.000E+04 -1.398E-01
   1   14    3     1     3    1.0462E+05 -4.1508E+02   1.0503E+05  0.000E+00  0.000E+00  0.000E+00  4.74556E+01  1.488E-01  2.000E+01  2.000E+04 -2.075E-02
   1   15    4     1     4    1.0503E+05 -3.8037E+02   1.0541E+05  0.000E+00  0.000E+00  0.000E+00  4.69787E+01  1.491E-01  2.000E+01  2.000E+04 -1.902E-02
   1   16    5     1     5    1.0541E+05 -1.4596E+03   1.0687E+05  0.000E+00  0.000E+00  0.000E+00  4.65022E+01  1.499E-01  2.000E+01  2.000E+04 -7.298E-02
   1   16    6     1     6    1.0687E+05 -9.3380E+02   1.0780E+05  0.000E+00  0.000E+00  0.000E+00  4.60259E+01  1.509E-01  2.000E+01  2.000E+04 -4.669E-02
   1   16    7     1     7    1.0780E+05 -9.1878E+02   1.0872E+05  0.000E+00  0.000E+00  0.000E+00  4.55494E+01  1.517E-01  2.000E+01  2.000E+04 -4.594E-02
   1   16    8     1     8    1.0872E+05 -9.1030E+02   1.0963E+05  0.000E+00  0.000E+00  0.000E+00  4.50729E+01  1.525E-01  2.000E+01  2.000E+04 -4.552E-02
   1   16    9     1     9    1.0963E+05 -8.9194E+02   1.1053E+05  0.000E+00  0.000E+00  0.000E+00  4.45964E+01  1.532E-01  2.000E+01  2.000E+04 -4.460E-02
   1   16   10     1    10    1.1053E+05 -8.6187E+02   1.1139E+05  0.000E+00  0.000E+00  0.000E+00  4.41199E+01  1.540E-01  2.000E+01  2.000E+04 -4.309E-02
   1   16   11     1    11    1.1139E+05 -8.3288E+02   1.1222E+05  0.000E+00  0.000E+00  0.000E+00  4.36433E+01  1.547E-01  2.000E+01  2.000E+04 -4.164E-02
   1   16   12     1    12    1.1222E+05 -1.3396E+03   1.1356E+05  0.000E+00  0.000E+00  0.000E+00  4.31669E+01  1.556E-01  2.000E+01  2.000E+04 -6.698E-02
   1   15   13     1    13    1.1356E+05 -1.2566E+03   1.1482E+05  0.000E+00  0.000E+00  0.000E+00  4.26907E+01  1.566E-01  2.000E+01  2.000E+04 -6.283E-02
   1   14   14     1    14    1.1482E+05 -1.5144E+03   1.1633E+05  0.000E+00  0.000E+00  0.000E+00  4.22146E+01  1.578E-01  2.000E+01  2.000E+04 -7.572E-02
   1   13   15     1    15    1.1633E+05 -1.8527E+03   1.1818E+05  0.000E+00  0.000E+00  0.000E+00  4.17387E+01  1.592E-01  2.000E+01  2.000E+04 -9.263E-02
   1   12   16     1    16    1.1818E+05 -2.7345E+03   1.2092E+05  0.000E+00  0.000E+00  0.000E+00  4.12633E+01  1.610E-01  2.000E+01  2.000E+04 -1.367E-01
   1   12   17     1    17    1.2092E+05 -1.5844E+03   1.2250E+05  0.000E+00  0.000E+00  0.000E+00  4.07878E+01  1.628E-01  2.000E+01  2.000E+04 -7.922E-02
   1   12   18     1    18    1.2250E+05 -1.4039E+03   1.2391E+05  0.000E+00  0.000E+00  0.000E+00  4.03117E+01  1.639E-01  2.000E+01  2.000E+04 -7.020E-02
   1   12   19     1    19    1.2391E+05 -1.9288E+03   1.2584E+05  0.000E+00  0.000E+00  0.000E+00  3.98357E+01  1.653E-01  2.000E+01  2.000E+04 -9.644E-02
   1   13   20     1    20    1.2584E+05 -1.4813E+02   1.2598E+05  0.000E+00  0.000E+00  0.000E+00  3.93593E+01  1.661E-01  2.000E+01  2.000E+04 -7.407E-03
   1   14   21     1    21    1.2598E+05  6.3931E+03   1.1959E+05  0.000E+00  0.000E+00  0.000E+00  3.88795E+01  1.636E-01  2.000E+01  2.000E+04  3.197E-01
   1   14   22     1    22    1.1959E+05  6.0178E+03   1.1357E+05  0.000E+00  0.000E+00  0.000E+00  3.83972E+01  1.586E-01  2.000E+01  2.000E+04  3.009E-01
   1    9   30     2     1    5.0000E+04 -3.0944E+02   5.0309E+04  0.000E+00  0.000E+00  0.000E+00  4.02411E+01  1.161E-01  2.000E+01  2.000E+04 -1.547E-02
   1    9   29     2     2    5.0309E+04 -6.3158E+02   5.0941E+04  0.000E+00  0.000E+00  0.000E+00  3.99917E+01  1.167E-01  2.000E+01  2.000E+04 -3.158E-02
   1    9   28     2     3    5.0941E+04 -9.3353E+02   5.1875E+04  0.000E+00  0.000E+00  0.000E+00  3.97428E+01  1.178E-01  2.000E+01  2.000E+04 -4.668E-02
   1    9   27     2     4    5.1875E+04 -2.2469E+03   5.4121E+04  0.000E+00  0.000E+00  0.000E+00  3.94950E+01  1.200E-01  2.000E+01  2.000E+04 -1.123E-01
   1   10   26     2     5    5.4121E+04 -1.3412E+03   5.5463E+04  0.000E+00  0.000E+00  0.000E+00  3.92474E+01  1.224E-01  2.000E+01  2.000E+04 -6.706E-02
   1   11   25     2     6    5.5463E+04 -1.1742E+03   5.6637E+04  0.000E+00  0.000E+00  0.000E+00  3.89991E+01  1.241E-01  2.000E+01  2.000E+04 -5.871E-02
   1   12   24     2     7    5.6637E+04 -1.3399E+03   5.7977E+04  0.000E+00  0.000E+00  0.000E+00  3.87507E+01  1.257E-01  2.000E+01  2.000E+04 -6.699E-02
   1   13   23     2     8    5.7977E+04 -1.8573E+02   5.8162E+04  0.000E+00  0.000E+00  0.000E+00  3.85017E+01  1.267E-01  2.000E+01  2.000E+04 -9.286E-03
   1   14   22     2     9    5.8162E+04  3.0701E+03   5.5092E+04  0.000E+00  0.000E+00  0.000E+00  3.82498E+01  1.248E-01  2.000E+01  2.000E+04  1.535E-01
   1   14   22     3     1    1.6867E+05 -7.4872E+03   1.7615E+05  0.000E+00  0.000E+00  0.000E+00  3.77220E+01  1.664E-01  2.000E+01  2.000E+04 -3.744E-01
   1   15   23     3     2    1.7615E+05  3.4303E+02   1.7581E+05  0.000E+00  0.000E+00  0.000E+00  3.68352E+01  1.685E-01  2.000E+01  2.000E+04  1.715E-02
   1   15   24     3     3    1.7581E+05 -1.0325E+02   1.7591E+05  0.000E+00  0.000E+00  0.000E+00  3.59462E+01  1.684E-01  2.000E+01  2.000E+04 -5.163E-03
   1   15   25     3     4    1.7591E+05 -1.2540E+02   1.7604E+05  0.000E+00  0.000E+00  0.000E+00  3.50574E+01  1.685E-01  2.000E+01  2.000E+04 -6.270E-03
   1   15   26     3     5    1.7604E+05 -1.0711E+02   1.7615E+05  0.000E+00  0.000E+00  0.000E+00  3.41686E+01  1.686E-01  2.000E+01  2.000E+04 -5.356E-03
   1   16   27     3     6    1.7615E+05  1.9460E+02   1.7595E+05  0.000E+00  0.000E+00  0.000E+00  3.32796E+01  1.685E-01  2.000E+01  2.000E+04  9.730E-03
   1   17   28     3     7    1.7595E+05  9.8774E+03   1.6607E+05  0.000E+00  0.000E+00  0.000E+00  3.23878E+01  1.656E-01  2.000E+01  2.000E+04  4.939E-01
   1   18   29     3     8    1.6607E+05  8.5011E+03   1.5757E+05  0.000E+00  0.000E+00  0.000E+00  3.14936E+01  1.602E-01  2.000E+01  2.000E+04  4.251E-01
   1   18   30     3     9    1.5757E+05  7.6792E+02   1.5680E+05  0.000E+00  0.000E+00  0.000E+00  3.06019E+01  1.575E-01  2.000E+01  2.000E+04  3.840E-02



1
              HEAD IN LAYER   1 AT END OF TIME STEP   1 IN STRESS PERIOD    7
  ---------------------------------------------------------------------------

          1      2      3      4      5      6      7      8      9     10
         11     12     13     14     15     16     17     18     19     20
         21     22     23     24     25     26     27     28     29     30
 .........................................................................
   1  ****** ****** ****** ****** ****** ****** ****** ****** ****** ******
      ****** ****** ****** ****** ****** ****** ****** ****** ****** ******
      ****** ****** ****** ****** ****** ****** ****** ****** ****** ******
   2  ****** ****** ****** ****** ****** ****** ****** ****** ****** ******
      ****** ****** ****** ****** ****** ****** ****** ****** ****** ******
      ****** ****** ****** ****** ****** ****** ****** ****** ****** ******
   3  ****** ****** ****** ****** ****** ****** ****** ****** ****** ******
      ****** ****** ****** ****** ****** ****** ****** ****** ****** ******
      ****** ****** ****** ****** ****** ****** ****** ****** ****** ******
   4  ****** ****** ****** ****** ****** ****** ****** ****** ****** ******
      ****** ****** ****** ****** ****** ****** ****** ****** ****** ******
      ****** ****** ****** ****** ****** ****** ****** ****** ****** ******
   5  ****** ****** ****** ****** ****** ****** ****** ****** ****** ******
      ****** ****** ****** ****** ****** ****** ****** ****** ****** ******
      ****** ****** ****** ****** ****** ****** ****** ****** ****** ******
   6  ****** ****** ****** ****** ****** ****** ****** ****** ****** ******
      ****** ****** ****** ****** ****** ****** ****** ****** ****** ******
      ****** ****** ****** ****** ****** ****** ****** ****** ****** ******
   7  ****** ****** ****** ****** ****** ****** ****** ****** ****** ******
      ****** ****** ****** ****** ****** ****** ****** ****** ****** ******
      ****** ****** ****** ****** ****** ****** ****** ****** ****** ******
   8  ****** ****** ****** ****** ****** ****** ****** ****** ****** ******
      ****** ****** ****** ****** ****** ****** ****** ****** ****** ******
      ****** ****** ****** ****** ****** ****** ****** ****** ****** ******
   9  ****** ****** ****** ****** ****** ****** ****** ****** ****** ******
      ****** ****** ****** ****** ****** ****** ****** ****** ****** ******
      ****** ****** ****** ****** ****** ****** ****** ****** ****** ******
  10  ****** ****** ****** ****** ****** ****** ****** ****** ****** ******
      ****** ****** ****** ****** ****** ****** ****** ****** ****** ******
      ****** ****** ****** ****** ****** ****** ****** ****** ****** ******
  11  ****** ****** ****** ****** ****** ****** ****** ****** ****** ******
      ****** ****** ****** ****** ****** ****** ****** ****** ****** ******
      ****** ****** ****** ****** ****** ****** ****** ****** ****** ******
  12  ****** ****** ****** ****** ****** ****** ****** ****** ****** ******
      ****** ****** ****** ****** ****** ****** ****** ****** ****** ******
      ****** ****** ****** ****** ****** ****** ****** ****** ****** ******
  13  ****** ****** ****** ****** ****** ****** ****** ****** ****** ******
      ****** ****** ****** ****** ****** ****** ****** ****** ****** ******
      ****** ****** ****** ****** ****** ****** ****** ****** ****** ******
  14  ****** ****** ****** ****** ****** ****** ****** ****** ****** ******
      ****** ****** ****** ****** ****** ****** ****** ****** ****** ******
      ****** ****** ****** ****** ****** ****** ****** ****** ****** ******
  15  ****** ****** ****** ****** ****** ****** ****** ****** ****** ******
      ****** ****** ****** ****** ****** ****** ****** ****** ****** ******
      ****** ****** ****** ****** ****** ****** ****** ****** ****** ******
  16  ****** ****** ****** ****** ****** ****** ****** ****** ****** ******
      ****** ****** ****** ****** ****** ****** ****** ****** ****** ******
      ****** ****** ****** ****** ****** ****** ****** ****** ****** ******
  17  ****** ****** ****** ****** ****** ****** ****** ****** ****** ******
      ****** ****** ****** ****** ****** ****** ****** ****** ****** ******
      ****** ****** ****** ****** ****** ****** ****** ****** ****** ******
  18  ****** ****** ****** ****** ****** ****** ****** ****** ****** ******
      ****** ****** ****** ****** ****** ****** ****** ****** ****** ******
      ****** ****** ****** ****** ****** ****** ****** ****** ****** ******
  19  ****** ****** ****** ****** ****** ****** ****** ****** ****** ******
      ****** ****** ****** ****** ****** ****** ****** ****** ****** ******
      ****** ****** ****** ****** ****** ****** ****** ****** ****** ******
  20  ****** ****** ****** ****** ****** ****** ****** ****** ****** ******
      ****** ****** ****** ****** ****** ****** ****** ****** ****** ******
      ****** ****** ****** ****** ****** ****** ****** ****** ****** ******
  21  ****** ****** ****** ****** ****** ****** ****** ****** ****** ******
      ****** ****** ****** ****** ****** ****** ****** ****** ****** ******
      ****** ****** ****** ****** ****** ****** ****** ****** ****** ******
  22  ****** ****** ****** ****** ****** ****** ****** ****** ****** ******
      ****** ****** ****** ****** ****** ****** ****** ****** ****** ******
      ****** ****** ****** ****** ****** ****** ****** ****** ****** ******
  23  ****** ****** ****** ****** ****** ****** ****** ****** ****** ******
      ****** ****** ****** ****** ****** ****** ****** ****** ****** ******
      ****** ****** ****** ****** ****** ****** ****** ****** ****** ******
  24  ****** ****** ****** ****** ****** ****** ****** ****** ****** ******
      ****** ****** ****** ****** ****** ****** ****** ****** ****** ******
      ****** ****** ****** ****** ****** ****** ****** ****** ****** ******
  25  ****** ****** ****** ****** ****** ****** ****** ****** ****** ******
      ****** ****** ****** ****** ****** ****** ****** ****** ****** ******
      ****** ****** ****** ****** ****** ****** ****** ****** ****** ******

 HEAD WILL BE SAVED ON UNIT   51 AT END OF TIME STEP    1, STRESS PERIOD    7
1
  VOLUMETRIC BUDGET FOR ENTIRE MODEL AT END OF TIME STEP    1, STRESS PERIOD   7
  ------------------------------------------------------------------------------

     CUMULATIVE VOLUMES      L**3       RATES FOR THIS TIME STEP      L**3/T
     ------------------                 ------------------------

           IN:                                      IN:
           ---                                      ---
             STORAGE =    32054497.0016               STORAGE =       22060.8078
       CONSTANT HEAD =    15763136.8746         CONSTANT HEAD =       32291.2438
               WELLS =           0.0000                 WELLS =           0.0000
            RECHARGE =    15097200.0000              RECHARGE =           0.0000
      STREAM LEAKAGE =    18471747.0755        STREAM LEAKAGE =       35165.1005

            TOTAL IN =    81386580.9516              TOTAL IN =       89517.1522

          OUT:                                     OUT:
          ----                                     ----
             STORAGE =      839833.2864               STORAGE =           0.0000
       CONSTANT HEAD =           0.0000         CONSTANT HEAD =           0.0000
               WELLS =    30383229.0905                 WELLS =       47548.0893
            RECHARGE =           0.0000              RECHARGE =           0.0000
      STREAM LEAKAGE =    50163521.0014        STREAM LEAKAGE =       41969.0680

           TOTAL OUT =    81386583.3783             TOTAL OUT =       89517.1574

            IN - OUT =          -2.4266              IN - OUT =      -5.1912E-03

 PERCENT DISCREPANCY =          -0.00     PERCENT DISCREPANCY =          -0.00






         TIME SUMMARY AT END OF TIME STEP    1 IN STRESS PERIOD    7
                    SECONDS     MINUTES      HOURS       DAYS        YEARS
                    -----------------------------------------------------------
   TIME STEP LENGTH 7.86240E+06 1.31040E+05  2184.0      91.000     0.24914    
 STRESS PERIOD TIME 7.86240E+06 1.31040E+05  2184.0      91.000     0.24914    
         TOTAL TIME 5.52096E+07 9.20160E+05  15336.      639.00      1.7495    
1
1
                            STRESS PERIOD NO.    8, LENGTH =   91.00000    
                            -----------------------------------------------

                              NUMBER OF TIME STEPS =     1

                               MULTIPLIER FOR DELT =     1.500

                            INITIAL TIME STEP SIZE =   91.00000    

 WELL NO.  LAYER   ROW   COL   STRESS RATE         
 --------------------------------------------------
      1      1     23     29      -1803.    
      2      1     18     28     -0.1266E+05
      3      1     15     21     -0.1818E+05
      4      1     17     29     -0.1491E+05

      4 WELLS

                 RECHARGE =  1.000000E-03

 REUSING STREAM SEGMENT DATA FROM LAST STRESS PERIOD
 
 SOLVING FOR HEAD 


     6 CALLS TO PCG ROUTINE FOR TIME STEP   1 IN STRESS PERIOD    8
    22 TOTAL ITERATIONS

 OUTPUT CONTROL FOR STRESS PERIOD    8   TIME STEP    1
    SAVE BUDGET
    SAVE HEAD FOR ALL LAYERS
    PRINT HEAD FOR ALL LAYERS
 UBDSV2 SAVING "STREAMFLOW OUT  " ON UNIT  50 AT TIME STEP  1, STRESS PERIOD   8



 STREAM LISTING     PERIOD      8   STEP        1

 LAYER ROW COL. STREAM  RCH.  FLOW INTO     FLOW TO   FLOW OUT OF   OVRLND.     DIRECT     STREAM       STREAM     STREAM     STREAM   STREAMBED  STREAMBED
                SEG.NO.  NO.  STRM. RCH.    AQUIFER    STRM. RCH.    RUNOFF     PRECIP       ET          HEAD       DEPTH      WIDTH   CONDCTNC.   GRADIENT

   1   13    1     1     1    1.0000E+05 -1.9008E+03   1.0190E+05  0.000E+00  0.000E+00  0.000E+00  4.84068E+01  1.455E-01  2.000E+01  2.000E+04 -9.504E-02
   1   13    2     1     2    1.0190E+05 -2.8764E+03   1.0478E+05  0.000E+00  0.000E+00  0.000E+00  4.79316E+01  1.475E-01  2.000E+01  2.000E+04 -1.438E-01
   1   14    3     1     3    1.0478E+05 -4.8019E+02   1.0526E+05  0.000E+00  0.000E+00  0.000E+00  4.74558E+01  1.490E-01  2.000E+01  2.000E+04 -2.401E-02
   1   15    4     1     4    1.0526E+05 -4.4986E+02   1.0571E+05  0.000E+00  0.000E+00  0.000E+00  4.69789E+01  1.494E-01  2.000E+01  2.000E+04 -2.249E-02
   1   16    5     1     5    1.0571E+05 -1.6339E+03   1.0734E+05  0.000E+00  0.000E+00  0.000E+00  4.65025E+01  1.502E-01  2.000E+01  2.000E+04 -8.169E-02
   1   16    6     1     6    1.0734E+05 -1.0413E+03   1.0838E+05  0.000E+00  0.000E+00  0.000E+00  4.60264E+01  1.514E-01  2.000E+01  2.000E+04 -5.207E-02
   1   16    7     1     7    1.0838E+05 -1.0214E+03   1.0940E+05  0.000E+00  0.000E+00  0.000E+00  4.55500E+01  1.522E-01  2.000E+01  2.000E+04 -5.107E-02
   1   16    8     1     8    1.0940E+05 -1.0120E+03   1.1042E+05  0.000E+00  0.000E+00  0.000E+00  4.50735E+01  1.531E-01  2.000E+01  2.000E+04 -5.060E-02
   1   16    9     1     9    1.1042E+05 -9.9465E+02   1.1141E+05  0.000E+00  0.000E+00  0.000E+00  4.45971E+01  1.539E-01  2.000E+01  2.000E+04 -4.973E-02
   1   16   10     1    10    1.1141E+05 -9.6686E+02   1.1238E+05  0.000E+00  0.000E+00  0.000E+00  4.41207E+01  1.547E-01  2.000E+01  2.000E+04 -4.834E-02
   1   16   11     1    11    1.1238E+05 -9.4060E+02   1.1332E+05  0.000E+00  0.000E+00  0.000E+00  4.36442E+01  1.555E-01  2.000E+01  2.000E+04 -4.703E-02
   1   16   12     1    12    1.1332E+05 -1.5008E+03   1.1482E+05  0.000E+00  0.000E+00  0.000E+00  4.31679E+01  1.565E-01  2.000E+01  2.000E+04 -7.504E-02
   1   15   13     1    13    1.1482E+05 -1.4264E+03   1.1625E+05  0.000E+00  0.000E+00  0.000E+00  4.26918E+01  1.577E-01  2.000E+01  2.000E+04 -7.132E-02
   1   14   14     1    14    1.1625E+05 -1.6785E+03   1.1792E+05  0.000E+00  0.000E+00  0.000E+00  4.22158E+01  1.590E-01  2.000E+01  2.000E+04 -8.393E-02
   1   13   15     1    15    1.1792E+05 -2.0051E+03   1.1993E+05  0.000E+00  0.000E+00  0.000E+00  4.17401E+01  1.605E-01  2.000E+01  2.000E+04 -1.003E-01
   1   12   16     1    16    1.1993E+05 -2.8509E+03   1.2278E+05  0.000E+00  0.000E+00  0.000E+00  4.12647E+01  1.625E-01  2.000E+01  2.000E+04 -1.425E-01
   1   12   17     1    17    1.2278E+05 -1.6981E+03   1.2448E+05  0.000E+00  0.000E+00  0.000E+00  4.07893E+01  1.643E-01  2.000E+01  2.000E+04 -8.491E-02
   1   12   18     1    18    1.2448E+05 -1.5240E+03   1.2600E+05  0.000E+00  0.000E+00  0.000E+00  4.03133E+01  1.656E-01  2.000E+01  2.000E+04 -7.620E-02
   1   12   19     1    19    1.2600E+05 -2.0804E+03   1.2808E+05  0.000E+00  0.000E+00  0.000E+00  3.98374E+01  1.670E-01  2.000E+01  2.000E+04 -1.040E-01
   1   13   20     1    20    1.2808E+05 -3.2664E+02   1.2841E+05  0.000E+00  0.000E+00  0.000E+00  3.93611E+01  1.679E-01  2.000E+01  2.000E+04 -1.633E-02
   1   14   21     1    21    1.2841E+05  6.2361E+03   1.2217E+05  0.000E+00  0.000E+00  0.000E+00  3.88815E+01  1.656E-01  2.000E+01  2.000E+04  3.118E-01
   1   14   22     1    22    1.2217E+05  5.9708E+03   1.1620E+05  0.000E+00  0.000E+00  0.000E+00  3.83994E+01  1.607E-01  2.000E+01  2.000E+04  2.985E-01
   1    9   30     2     1    5.0000E+04 -4.7356E+02   5.0474E+04  0.000E+00  0.000E+00  0.000E+00  4.02412E+01  1.162E-01  2.000E+01  2.000E+04 -2.368E-02
   1    9   29     2     2    5.0474E+04 -7.9297E+02   5.1267E+04  0.000E+00  0.000E+00  0.000E+00  3.99921E+01  1.171E-01  2.000E+01  2.000E+04 -3.965E-02
   1    9   28     2     3    5.1267E+04 -1.0895E+03   5.2356E+04  0.000E+00  0.000E+00  0.000E+00  3.97434E+01  1.184E-01  2.000E+01  2.000E+04 -5.448E-02
   1    9   27     2     4    5.2356E+04 -2.4272E+03   5.4783E+04  0.000E+00  0.000E+00  0.000E+00  3.94958E+01  1.208E-01  2.000E+01  2.000E+04 -1.214E-01
   1   10   26     2     5    5.4783E+04 -1.5482E+03   5.6331E+04  0.000E+00  0.000E+00  0.000E+00  3.92484E+01  1.234E-01  2.000E+01  2.000E+04 -7.741E-02
   1   11   25     2     6    5.6331E+04 -1.3795E+03   5.7711E+04  0.000E+00  0.000E+00  0.000E+00  3.90004E+01  1.254E-01  2.000E+01  2.000E+04 -6.897E-02
   1   12   24     2     7    5.7711E+04 -1.5263E+03   5.9237E+04  0.000E+00  0.000E+00  0.000E+00  3.87523E+01  1.273E-01  2.000E+01  2.000E+04 -7.631E-02
   1   13   23     2     8    5.9237E+04 -2.6024E+02   5.9497E+04  0.000E+00  0.000E+00  0.000E+00  3.85034E+01  1.284E-01  2.000E+01  2.000E+04 -1.301E-02
   1   14   22     2     9    5.9497E+04  3.0166E+03   5.6481E+04  0.000E+00  0.000E+00  0.000E+00  3.82516E+01  1.266E-01  2.000E+01  2.000E+04  1.508E-01
   1   14   22     3     1    1.7268E+05 -7.5300E+03   1.8021E+05  0.000E+00  0.000E+00  0.000E+00  3.77243E+01  1.688E-01  2.000E+01  2.000E+04 -3.765E-01
   1   15   23     3     2    1.8021E+05  2.7940E+02   1.7993E+05  0.000E+00  0.000E+00  0.000E+00  3.68375E+01  1.708E-01  2.000E+01  2.000E+04  1.397E-02
   1   15   24     3     3    1.7993E+05 -1.6337E+02   1.8010E+05  0.000E+00  0.000E+00  0.000E+00  3.59486E+01  1.708E-01  2.000E+01  2.000E+04 -8.168E-03
   1   15   25     3     4    1.8010E+05 -1.8726E+02   1.8028E+05  0.000E+00  0.000E+00  0.000E+00  3.50598E+01  1.709E-01  2.000E+01  2.000E+04 -9.363E-03
   1   15   26     3     5    1.8028E+05 -1.8152E+02   1.8047E+05  0.000E+00  0.000E+00  0.000E+00  3.41710E+01  1.710E-01  2.000E+01  2.000E+04 -9.076E-03
   1   16   27     3     6    1.8047E+05  1.1324E+02   1.8035E+05  0.000E+00  0.000E+00  0.000E+00  3.32821E+01  1.710E-01  2.000E+01  2.000E+04  5.662E-03
   1   17   28     3     7    1.8035E+05  9.6752E+03   1.7068E+05  0.000E+00  0.000E+00  0.000E+00  3.23904E+01  1.682E-01  2.000E+01  2.000E+04  4.838E-01
   1   18   29     3     8    1.7068E+05  8.3391E+03   1.6234E+05  0.000E+00  0.000E+00  0.000E+00  3.14963E+01  1.630E-01  2.000E+01  2.000E+04  4.170E-01
   1   18   30     3     9    1.6234E+05  6.2338E+02   1.6171E+05  0.000E+00  0.000E+00  0.000E+00  3.06048E+01  1.603E-01  2.000E+01  2.000E+04  3.117E-02



1
              HEAD IN LAYER   1 AT END OF TIME STEP   1 IN STRESS PERIOD    8
  ---------------------------------------------------------------------------

          1      2      3      4      5      6      7      8      9     10
         11     12     13     14     15     16     17     18     19     20
         21     22     23     24     25     26     27     28     29     30
 .........................................................................
   1  ****** ****** ****** ****** ****** ****** ****** ****** ****** ******
      ****** ****** ****** ****** ****** ****** ****** ****** ****** ******
      ****** ****** ****** ****** ****** ****** ****** ****** ****** ******
   2  ****** ****** ****** ****** ****** ****** ****** ****** ****** ******
      ****** ****** ****** ****** ****** ****** ****** ****** ****** ******
      ****** ****** ****** ****** ****** ****** ****** ****** ****** ******
   3  ****** ****** ****** ****** ****** ****** ****** ****** ****** ******
      ****** ****** ****** ****** ****** ****** ****** ****** ****** ******
      ****** ****** ****** ****** ****** ****** ****** ****** ****** ******
   4  ****** ****** ****** ****** ****** ****** ****** ****** ****** ******
      ****** ****** ****** ****** ****** ****** ****** ****** ****** ******
      ****** ****** ****** ****** ****** ****** ****** ****** ****** ******
   5  ****** ****** ****** ****** ****** ****** ****** ****** ****** ******
      ****** ****** ****** ****** ****** ****** ****** ****** ****** ******
      ****** ****** ****** ****** ****** ****** ****** ****** ****** ******
   6  ****** ****** ****** ****** ****** ****** ****** ****** ****** ******
      ****** ****** ****** ****** ****** ****** ****** ****** ****** ******
      ****** ****** ****** ****** ****** ****** ****** ****** ****** ******
   7  ****** ****** ****** ****** ****** ****** ****** ****** ****** ******
      ****** ****** ****** ****** ****** ****** ****** ****** ****** ******
      ****** ****** ****** ****** ****** ****** ****** ****** ****** ******
   8  ****** ****** ****** ****** ****** ****** ****** ****** ****** ******
      ****** ****** ****** ****** ****** ****** ****** ****** ****** ******
      ****** ****** ****** ****** ****** ****** ****** ****** ****** ******
   9  ****** ****** ****** ****** ****** ****** ****** ****** ****** ******
      ****** ****** ****** ****** ****** ****** ****** ****** ****** ******
      ****** ****** ****** ****** ****** ****** ****** ****** ****** ******
  10  ****** ****** ****** ****** ****** ****** ****** ****** ****** ******
      ****** ****** ****** ****** ****** ****** ****** ****** ****** ******
      ****** ****** ****** ****** ****** ****** ****** ****** ****** ******
  11  ****** ****** ****** ****** ****** ****** ****** ****** ****** ******
      ****** ****** ****** ****** ****** ****** ****** ****** ****** ******
      ****** ****** ****** ****** ****** ****** ****** ****** ****** ******
  12  ****** ****** ****** ****** ****** ****** ****** ****** ****** ******
      ****** ****** ****** ****** ****** ****** ****** ****** ****** ******
      ****** ****** ****** ****** ****** ****** ****** ****** ****** ******
  13  ****** ****** ****** ****** ****** ****** ****** ****** ****** ******
      ****** ****** ****** ****** ****** ****** ****** ****** ****** ******
      ****** ****** ****** ****** ****** ****** ****** ****** ****** ******
  14  ****** ****** ****** ****** ****** ****** ****** ****** ****** ******
      ****** ****** ****** ****** ****** ****** ****** ****** ****** ******
      ****** ****** ****** ****** ****** ****** ****** ****** ****** ******
  15  ****** ****** ****** ****** ****** ****** ****** ****** ****** ******
      ****** ****** ****** ****** ****** ****** ****** ****** ****** ******
      ****** ****** ****** ****** ****** ****** ****** ****** ****** ******
  16  ****** ****** ****** ****** ****** ****** ****** ****** ****** ******
      ****** ****** ****** ****** ****** ****** ****** ****** ****** ******
      ****** ****** ****** ****** ****** ****** ****** ****** ****** ******
  17  ****** ****** ****** ****** ****** ****** ****** ****** ****** ******
      ****** ****** ****** ****** ****** ****** ****** ****** ****** ******
      ****** ****** ****** ****** ****** ****** ****** ****** ****** ******
  18  ****** ****** ****** ****** ****** ****** ****** ****** ****** ******
      ****** ****** ****** ****** ****** ****** ****** ****** ****** ******
      ****** ****** ****** ****** ****** ****** ****** ****** ****** ******
  19  ****** ****** ****** ****** ****** ****** ****** ****** ****** ******
      ****** ****** ****** ****** ****** ****** ****** ****** ****** ******
      ****** ****** ****** ****** ****** ****** ****** ****** ****** ******
  20  ****** ****** ****** ****** ****** ****** ****** ****** ****** ******
      ****** ****** ****** ****** ****** ****** ****** ****** ****** ******
      ****** ****** ****** ****** ****** ****** ****** ****** ****** ******
  21  ****** ****** ****** ****** ****** ****** ****** ****** ****** ******
      ****** ****** ****** ****** ****** ****** ****** ****** ****** ******
      ****** ****** ****** ****** ****** ****** ****** ****** ****** ******
  22  ****** ****** ****** ****** ****** ****** ****** ****** ****** ******
      ****** ****** ****** ****** ****** ****** ****** ****** ****** ******
      ****** ****** ****** ****** ****** ****** ****** ****** ****** ******
  23  ****** ****** ****** ****** ****** ****** ****** ****** ****** ******
      ****** ****** ****** ****** ****** ****** ****** ****** ****** ******
      ****** ****** ****** ****** ****** ****** ****** ****** ****** ******
  24  ****** ****** ****** ****** ****** ****** ****** ****** ****** ******
      ****** ****** ****** ****** ****** ****** ****** ****** ****** ******
      ****** ****** ****** ****** ****** ****** ****** ****** ****** ******
  25  ****** ****** ****** ****** ****** ****** ****** ****** ****** ******
      ****** ****** ****** ****** ****** ****** ****** ****** ****** ******
      ****** ****** ****** ****** ****** ****** ****** ****** ****** ******

 HEAD WILL BE SAVED ON UNIT   51 AT END OF TIME STEP    1, STRESS PERIOD    8
1
  VOLUMETRIC BUDGET FOR ENTIRE MODEL AT END OF TIME STEP    1, STRESS PERIOD   8
  ------------------------------------------------------------------------------

     CUMULATIVE VOLUMES      L**3       RATES FOR THIS TIME STEP      L**3/T
     ------------------                 ------------------------

           IN:                                      IN:
           ---                                      ---
             STORAGE =    32170168.8690               STORAGE =        1271.1194
       CONSTANT HEAD =    18672485.2984         CONSTANT HEAD =       31970.8618
               WELLS =           0.0000                 WELLS =           0.0000
            RECHARGE =    17608800.0000              RECHARGE =       27600.0000
      STREAM LEAKAGE =    21588841.2088        STREAM LEAKAGE =       34253.7817

            TOTAL IN =    90040295.3762              TOTAL IN =       95095.7629

          OUT:                                     OUT:
          ----                                     ----
             STORAGE =      983560.2079               STORAGE =        1579.4167
       CONSTANT HEAD =           0.0000         CONSTANT HEAD =           0.0000
               WELLS =    34710105.2207                 WELLS =       47548.0893
            RECHARGE =           0.0000              RECHARGE =           0.0000
      STREAM LEAKAGE =    54346631.6158        STREAM LEAKAGE =       45968.2485

           TOTAL OUT =    90040297.0443             TOTAL OUT =       95095.7546

            IN - OUT =          -1.6682              IN - OUT =       8.3351E-03

 PERCENT DISCREPANCY =          -0.00     PERCENT DISCREPANCY =           0.00






         TIME SUMMARY AT END OF TIME STEP    1 IN STRESS PERIOD    8
                    SECONDS     MINUTES      HOURS       DAYS        YEARS
                    -----------------------------------------------------------
   TIME STEP LENGTH 7.86240E+06 1.31040E+05  2184.0      91.000     0.24914    
 STRESS PERIOD TIME 7.86240E+06 1.31040E+05  2184.0      91.000     0.24914    
         TOTAL TIME 6.30720E+07 1.05120E+06  17520.      730.00      1.9986    
1
1
                            STRESS PERIOD NO.    9, LENGTH =   92.00000    
                            -----------------------------------------------

                              NUMBER OF TIME STEPS =     1

                               MULTIPLIER FOR DELT =     1.500

                            INITIAL TIME STEP SIZE =   92.00000    

 WELL NO.  LAYER   ROW   COL   STRESS RATE         
 --------------------------------------------------
      1      1     23     29      -1803.    
      2      1     18     28     -0.1266E+05
      3      1     15     21     -0.1818E+05
      4      1     17     29     -0.1491E+05

      4 WELLS

                 RECHARGE =  5.000000E-04

 REUSING STREAM SEGMENT DATA FROM LAST STRESS PERIOD
 
 SOLVING FOR HEAD 


     7 CALLS TO PCG ROUTINE FOR TIME STEP   1 IN STRESS PERIOD    9
    24 TOTAL ITERATIONS

 OUTPUT CONTROL FOR STRESS PERIOD    9   TIME STEP    1
    SAVE BUDGET
    SAVE HEAD FOR ALL LAYERS
    PRINT HEAD FOR ALL LAYERS
 UBDSV2 SAVING "STREAMFLOW OUT  " ON UNIT  50 AT TIME STEP  1, STRESS PERIOD   9



 STREAM LISTING     PERIOD      9   STEP        1

 LAYER ROW COL. STREAM  RCH.  FLOW INTO     FLOW TO   FLOW OUT OF   OVRLND.     DIRECT     STREAM       STREAM     STREAM     STREAM   STREAMBED  STREAMBED
                SEG.NO.  NO.  STRM. RCH.    AQUIFER    STRM. RCH.    RUNOFF     PRECIP       ET          HEAD       DEPTH      WIDTH   CONDCTNC.   GRADIENT

   1   13    1     1     1    1.0000E+05 -1.6916E+03   1.0169E+05  0.000E+00  0.000E+00  0.000E+00  4.84067E+01  1.454E-01  2.000E+01  2.000E+04 -8.458E-02
   1   13    2     1     2    1.0169E+05 -2.6396E+03   1.0433E+05  0.000E+00  0.000E+00  0.000E+00  4.79313E+01  1.473E-01  2.000E+01  2.000E+04 -1.320E-01
   1   14    3     1     3    1.0433E+05 -4.1022E+02   1.0474E+05  0.000E+00  0.000E+00  0.000E+00  4.74554E+01  1.486E-01  2.000E+01  2.000E+04 -2.051E-02
   1   15    4     1     4    1.0474E+05 -3.7870E+02   1.0512E+05  0.000E+00  0.000E+00  0.000E+00  4.69784E+01  1.489E-01  2.000E+01  2.000E+04 -1.893E-02
   1   16    5     1     5    1.0512E+05 -1.4418E+03   1.0656E+05  0.000E+00  0.000E+00  0.000E+00  4.65019E+01  1.497E-01  2.000E+01  2.000E+04 -7.209E-02
   1   16    6     1     6    1.0656E+05 -9.2190E+02   1.0748E+05  0.000E+00  0.000E+00  0.000E+00  4.60257E+01  1.507E-01  2.000E+01  2.000E+04 -4.610E-02
   1   16    7     1     7    1.0748E+05 -9.0570E+02   1.0839E+05  0.000E+00  0.000E+00  0.000E+00  4.55492E+01  1.514E-01  2.000E+01  2.000E+04 -4.528E-02
   1   16    8     1     8    1.0839E+05 -8.9784E+02   1.0929E+05  0.000E+00  0.000E+00  0.000E+00  4.50726E+01  1.522E-01  2.000E+01  2.000E+04 -4.489E-02
   1   16    9     1     9    1.0929E+05 -8.8201E+02   1.1017E+05  0.000E+00  0.000E+00  0.000E+00  4.45961E+01  1.529E-01  2.000E+01  2.000E+04 -4.410E-02
   1   16   10     1    10    1.1017E+05 -8.5606E+02   1.1103E+05  0.000E+00  0.000E+00  0.000E+00  4.41196E+01  1.537E-01  2.000E+01  2.000E+04 -4.280E-02
   1   16   11     1    11    1.1103E+05 -8.3057E+02   1.1186E+05  0.000E+00  0.000E+00  0.000E+00  4.36430E+01  1.544E-01  2.000E+01  2.000E+04 -4.153E-02
   1   16   12     1    12    1.1186E+05 -1.3126E+03   1.1317E+05  0.000E+00  0.000E+00  0.000E+00  4.31666E+01  1.553E-01  2.000E+01  2.000E+04 -6.563E-02
   1   15   13     1    13    1.1317E+05 -1.2184E+03   1.1439E+05  0.000E+00  0.000E+00  0.000E+00  4.26904E+01  1.563E-01  2.000E+01  2.000E+04 -6.092E-02
   1   14   14     1    14    1.1439E+05 -1.4580E+03   1.1584E+05  0.000E+00  0.000E+00  0.000E+00  4.22142E+01  1.574E-01  2.000E+01  2.000E+04 -7.290E-02
   1   13   15     1    15    1.1584E+05 -1.7796E+03   1.1762E+05  0.000E+00  0.000E+00  0.000E+00  4.17383E+01  1.587E-01  2.000E+01  2.000E+04 -8.898E-02
   1   12   16     1    16    1.1762E+05 -2.6188E+03   1.2024E+05  0.000E+00  0.000E+00  0.000E+00  4.12628E+01  1.605E-01  2.000E+01  2.000E+04 -1.309E-01
   1   12   17     1    17    1.2024E+05 -1.5378E+03   1.2178E+05  0.000E+00  0.000E+00  0.000E+00  4.07872E+01  1.622E-01  2.000E+01  2.000E+04 -7.689E-02
   1   12   18     1    18    1.2178E+05 -1.3707E+03   1.2315E+05  0.000E+00  0.000E+00  0.000E+00  4.03111E+01  1.634E-01  2.000E+01  2.000E+04 -6.854E-02
   1   12   19     1    19    1.2315E+05 -1.8960E+03   1.2505E+05  0.000E+00  0.000E+00  0.000E+00  3.98351E+01  1.647E-01  2.000E+01  2.000E+04 -9.480E-02
   1   13   20     1    20    1.2505E+05 -1.5379E+02   1.2520E+05  0.000E+00  0.000E+00  0.000E+00  3.93587E+01  1.655E-01  2.000E+01  2.000E+04 -7.690E-03
   1   14   21     1    21    1.2520E+05  6.4082E+03   1.1879E+05  0.000E+00  0.000E+00  0.000E+00  3.88789E+01  1.630E-01  2.000E+01  2.000E+04  3.204E-01
   1   14   22     1    22    1.1879E+05  6.0088E+03   1.1278E+05  0.000E+00  0.000E+00  0.000E+00  3.83966E+01  1.580E-01  2.000E+01  2.000E+04  3.004E-01
   1    9   30     2     1    5.0000E+04 -3.5096E+02   5.0351E+04  0.000E+00  0.000E+00  0.000E+00  4.02411E+01  1.161E-01  2.000E+01  2.000E+04 -1.755E-02
   1    9   29     2     2    5.0351E+04 -6.7021E+02   5.1021E+04  0.000E+00  0.000E+00  0.000E+00  3.99918E+01  1.168E-01  2.000E+01  2.000E+04 -3.351E-02
   1    9   28     2     3    5.1021E+04 -9.6498E+02   5.1986E+04  0.000E+00  0.000E+00  0.000E+00  3.97429E+01  1.179E-01  2.000E+01  2.000E+04 -4.825E-02
   1    9   27     2     4    5.1986E+04 -2.2525E+03   5.4239E+04  0.000E+00  0.000E+00  0.000E+00  3.94951E+01  1.201E-01  2.000E+01  2.000E+04 -1.126E-01
   1   10   26     2     5    5.4239E+04 -1.3760E+03   5.5615E+04  0.000E+00  0.000E+00  0.000E+00  3.92476E+01  1.226E-01  2.000E+01  2.000E+04 -6.880E-02
   1   11   25     2     6    5.5615E+04 -1.2147E+03   5.6829E+04  0.000E+00  0.000E+00  0.000E+00  3.89993E+01  1.243E-01  2.000E+01  2.000E+04 -6.073E-02
   1   12   24     2     7    5.6829E+04 -1.3749E+03   5.8204E+04  0.000E+00  0.000E+00  0.000E+00  3.87510E+01  1.260E-01  2.000E+01  2.000E+04 -6.874E-02
   1   13   23     2     8    5.8204E+04 -2.1334E+02   5.8418E+04  0.000E+00  0.000E+00  0.000E+00  3.85021E+01  1.271E-01  2.000E+01  2.000E+04 -1.067E-02
   1   14   22     2     9    5.8418E+04  3.0806E+03   5.5337E+04  0.000E+00  0.000E+00  0.000E+00  3.82502E+01  1.252E-01  2.000E+01  2.000E+04  1.540E-01
   1   14   22     3     1    1.6812E+05 -7.4895E+03   1.7561E+05  0.000E+00  0.000E+00  0.000E+00  3.77217E+01  1.661E-01  2.000E+01  2.000E+04 -3.745E-01
   1   15   23     3     2    1.7561E+05  3.3221E+02   1.7528E+05  0.000E+00  0.000E+00  0.000E+00  3.68349E+01  1.682E-01  2.000E+01  2.000E+04  1.661E-02
   1   15   24     3     3    1.7528E+05 -1.2020E+02   1.7540E+05  0.000E+00  0.000E+00  0.000E+00  3.59459E+01  1.681E-01  2.000E+01  2.000E+04 -6.010E-03
   1   15   25     3     4    1.7540E+05 -1.4384E+02   1.7554E+05  0.000E+00  0.000E+00  0.000E+00  3.50571E+01  1.682E-01  2.000E+01  2.000E+04 -7.192E-03
   1   15   26     3     5    1.7554E+05 -1.3383E+02   1.7568E+05  0.000E+00  0.000E+00  0.000E+00  3.41683E+01  1.683E-01  2.000E+01  2.000E+04 -6.691E-03
   1   16   27     3     6    1.7568E+05  1.6943E+02   1.7551E+05  0.000E+00  0.000E+00  0.000E+00  3.32794E+01  1.683E-01  2.000E+01  2.000E+04  8.471E-03
   1   17   28     3     7    1.7551E+05  9.8294E+03   1.6568E+05  0.000E+00  0.000E+00  0.000E+00  3.23876E+01  1.654E-01  2.000E+01  2.000E+04  4.915E-01
   1   18   29     3     8    1.6568E+05  8.5164E+03   1.5716E+05  0.000E+00  0.000E+00  0.000E+00  3.14933E+01  1.600E-01  2.000E+01  2.000E+04  4.258E-01
   1   18   30     3     9    1.5716E+05  7.5633E+02   1.5641E+05  0.000E+00  0.000E+00  0.000E+00  3.06017E+01  1.572E-01  2.000E+01  2.000E+04  3.782E-02



1
              HEAD IN LAYER   1 AT END OF TIME STEP   1 IN STRESS PERIOD    9
  ---------------------------------------------------------------------------

          1      2      3      4      5      6      7      8      9     10
         11     12     13     14     15     16     17     18     19     20
         21     22     23     24     25     26     27     28     29     30
 .........................................................................
   1  ****** ****** ****** ****** ****** ****** ****** ****** ****** ******
      ****** ****** ****** ****** ****** ****** ****** ****** ****** ******
      ****** ****** ****** ****** ****** ****** ****** ****** ****** ******
   2  ****** ****** ****** ****** ****** ****** ****** ****** ****** ******
      ****** ****** ****** ****** ****** ****** ****** ****** ****** ******
      ****** ****** ****** ****** ****** ****** ****** ****** ****** ******
   3  ****** ****** ****** ****** ****** ****** ****** ****** ****** ******
      ****** ****** ****** ****** ****** ****** ****** ****** ****** ******
      ****** ****** ****** ****** ****** ****** ****** ****** ****** ******
   4  ****** ****** ****** ****** ****** ****** ****** ****** ****** ******
      ****** ****** ****** ****** ****** ****** ****** ****** ****** ******
      ****** ****** ****** ****** ****** ****** ****** ****** ****** ******
   5  ****** ****** ****** ****** ****** ****** ****** ****** ****** ******
      ****** ****** ****** ****** ****** ****** ****** ****** ****** ******
      ****** ****** ****** ****** ****** ****** ****** ****** ****** ******
   6  ****** ****** ****** ****** ****** ****** ****** ****** ****** ******
      ****** ****** ****** ****** ****** ****** ****** ****** ****** ******
      ****** ****** ****** ****** ****** ****** ****** ****** ****** ******
   7  ****** ****** ****** ****** ****** ****** ****** ****** ****** ******
      ****** ****** ****** ****** ****** ****** ****** ****** ****** ******
      ****** ****** ****** ****** ****** ****** ****** ****** ****** ******
   8  ****** ****** ****** ****** ****** ****** ****** ****** ****** ******
      ****** ****** ****** ****** ****** ****** ****** ****** ****** ******
      ****** ****** ****** ****** ****** ****** ****** ****** ****** ******
   9  ****** ****** ****** ****** ****** ****** ****** ****** ****** ******
      ****** ****** ****** ****** ****** ****** ****** ****** ****** ******
      ****** ****** ****** ****** ****** ****** ****** ****** ****** ******
  10  ****** ****** ****** ****** ****** ****** ****** ****** ****** ******
      ****** ****** ****** ****** ****** ****** ****** ****** ****** ******
      ****** ****** ****** ****** ****** ****** ****** ****** ****** ******
  11  ****** ****** ****** ****** ****** ****** ****** ****** ****** ******
      ****** ****** ****** ****** ****** ****** ****** ****** ****** ******
      ****** ****** ****** ****** ****** ****** ****** ****** ****** ******
  12  ****** ****** ****** ****** ****** ****** ****** ****** ****** ******
      ****** ****** ****** ****** ****** ****** ****** ****** ****** ******
      ****** ****** ****** ****** ****** ****** ****** ****** ****** ******
  13  ****** ****** ****** ****** ****** ****** ****** ****** ****** ******
      ****** ****** ****** ****** ****** ****** ****** ****** ****** ******
      ****** ****** ****** ****** ****** ****** ****** ****** ****** ******
  14  ****** ****** ****** ****** ****** ****** ****** ****** ****** ******
      ****** ****** ****** ****** ****** ****** ****** ****** ****** ******
      ****** ****** ****** ****** ****** ****** ****** ****** ****** ******
  15  ****** ****** ****** ****** ****** ****** ****** ****** ****** ******
      ****** ****** ****** ****** ****** ****** ****** ****** ****** ******
      ****** ****** ****** ****** ****** ****** ****** ****** ****** ******
  16  ****** ****** ****** ****** ****** ****** ****** ****** ****** ******
      ****** ****** ****** ****** ****** ****** ****** ****** ****** ******
      ****** ****** ****** ****** ****** ****** ****** ****** ****** ******
  17  ****** ****** ****** ****** ****** ****** ****** ****** ****** ******
      ****** ****** ****** ****** ****** ****** ****** ****** ****** ******
      ****** ****** ****** ****** ****** ****** ****** ****** ****** ******
  18  ****** ****** ****** ****** ****** ****** ****** ****** ****** ******
      ****** ****** ****** ****** ****** ****** ****** ****** ****** ******
      ****** ****** ****** ****** ****** ****** ****** ****** ****** ******
  19  ****** ****** ****** ****** ****** ****** ****** ****** ****** ******
      ****** ****** ****** ****** ****** ****** ****** ****** ****** ******
      ****** ****** ****** ****** ****** ****** ****** ****** ****** ******
  20  ****** ****** ****** ****** ****** ****** ****** ****** ****** ******
      ****** ****** ****** ****** ****** ****** ****** ****** ****** ******
      ****** ****** ****** ****** ****** ****** ****** ****** ****** ******
  21  ****** ****** ****** ****** ****** ****** ****** ****** ****** ******
      ****** ****** ****** ****** ****** ****** ****** ****** ****** ******
      ****** ****** ****** ****** ****** ****** ****** ****** ****** ******
  22  ****** ****** ****** ****** ****** ****** ****** ****** ****** ******
      ****** ****** ****** ****** ****** ****** ****** ****** ****** ******
      ****** ****** ****** ****** ****** ****** ****** ****** ****** ******
  23  ****** ****** ****** ****** ****** ****** ****** ****** ****** ******
      ****** ****** ****** ****** ****** ****** ****** ****** ****** ******
      ****** ****** ****** ****** ****** ****** ****** ****** ****** ******
  24  ****** ****** ****** ****** ****** ****** ****** ****** ****** ******
      ****** ****** ****** ****** ****** ****** ****** ****** ****** ******
      ****** ****** ****** ****** ****** ****** ****** ****** ****** ******
  25  ****** ****** ****** ****** ****** ****** ****** ****** ****** ******
      ****** ****** ****** ****** ****** ****** ****** ****** ****** ******
      ****** ****** ****** ****** ****** ****** ****** ****** ****** ******

 HEAD WILL BE SAVED ON UNIT   51 AT END OF TIME STEP    1, STRESS PERIOD    9
1
  VOLUMETRIC BUDGET FOR ENTIRE MODEL AT END OF TIME STEP    1, STRESS PERIOD   9
  ------------------------------------------------------------------------------

     CUMULATIVE VOLUMES      L**3       RATES FOR THIS TIME STEP      L**3/T
     ------------------                 ------------------------

           IN:                                      IN:
           ---                                      ---
             STORAGE =    32817391.0194               STORAGE =        7035.0234
       CONSTANT HEAD =    21719367.3166         CONSTANT HEAD =       33118.2828
               WELLS =           0.0000                 WELLS =           0.0000
            RECHARGE =    18878400.0000              RECHARGE =       13800.0000
      STREAM LEAKAGE =    24818165.5056        STREAM LEAKAGE =       35101.3511

            TOTAL IN =    98233323.8416              TOTAL IN =       89054.6572

          OUT:                                     OUT:
          ----                                     ----
             STORAGE =      983560.2079               STORAGE =           0.0000
       CONSTANT HEAD =           0.0000         CONSTANT HEAD =           0.0000
               WELLS =    39084529.4403                 WELLS =       47548.0893
            RECHARGE =           0.0000              RECHARGE =           0.0000
      STREAM LEAKAGE =    58165235.9645        STREAM LEAKAGE =       41506.5690

           TOTAL OUT =    98233325.6127             TOTAL OUT =       89054.6584

            IN - OUT =          -1.7711              IN - OUT =      -1.1185E-03

 PERCENT DISCREPANCY =          -0.00     PERCENT DISCREPANCY =          -0.00






         TIME SUMMARY AT END OF TIME STEP    1 IN STRESS PERIOD    9
                    SECONDS     MINUTES      HOURS       DAYS        YEARS
                    -----------------------------------------------------------
   TIME STEP LENGTH 7.94880E+06 1.32480E+05  2208.0      92.000     0.25188    
 STRESS PERIOD TIME 7.94880E+06 1.32480E+05  2208.0      92.000     0.25188    
         TOTAL TIME 7.10208E+07 1.18368E+06  19728.      822.00      2.2505    
1
1
                            STRESS PERIOD NO.   10, LENGTH =   91.00000    
                            -----------------------------------------------

                              NUMBER OF TIME STEPS =     1

                               MULTIPLIER FOR DELT =     1.500

                            INITIAL TIME STEP SIZE =   91.00000    

 WELL NO.  LAYER   ROW   COL   STRESS RATE         
 --------------------------------------------------
      1      1     23     29      -1803.    
      2      1     18     28     -0.1266E+05
      3      1     15     21     -0.1818E+05
      4      1     17     29     -0.1491E+05

      4 WELLS

                 RECHARGE =  2.000000E-03

 REUSING STREAM SEGMENT DATA FROM LAST STRESS PERIOD
 
 SOLVING FOR HEAD 


     7 CALLS TO PCG ROUTINE FOR TIME STEP   1 IN STRESS PERIOD   10
    26 TOTAL ITERATIONS

 OUTPUT CONTROL FOR STRESS PERIOD   10   TIME STEP    1
    SAVE BUDGET
    SAVE HEAD FOR ALL LAYERS
    PRINT HEAD FOR ALL LAYERS
 UBDSV2 SAVING "STREAMFLOW OUT  " ON UNIT  50 AT TIME STEP  1, STRESS PERIOD  10



 STREAM LISTING     PERIOD     10   STEP        1

 LAYER ROW COL. STREAM  RCH.  FLOW INTO     FLOW TO   FLOW OUT OF   OVRLND.     DIRECT     STREAM       STREAM     STREAM     STREAM   STREAMBED  STREAMBED
                SEG.NO.  NO.  STRM. RCH.    AQUIFER    STRM. RCH.    RUNOFF     PRECIP       ET          HEAD       DEPTH      WIDTH   CONDCTNC.   GRADIENT

   1   13    1     1     1    1.0000E+05 -2.1478E+03   1.0215E+05  0.000E+00  0.000E+00  0.000E+00  4.84069E+01  1.456E-01  2.000E+01  2.000E+04 -1.074E-01
   1   13    2     1     2    1.0215E+05 -3.1455E+03   1.0529E+05  0.000E+00  0.000E+00  0.000E+00  4.79319E+01  1.479E-01  2.000E+01  2.000E+04 -1.573E-01
   1   14    3     1     3    1.0529E+05 -5.9739E+02   1.0589E+05  0.000E+00  0.000E+00  0.000E+00  4.74563E+01  1.495E-01  2.000E+01  2.000E+04 -2.987E-02
   1   15    4     1     4    1.0589E+05 -5.7864E+02   1.0647E+05  0.000E+00  0.000E+00  0.000E+00  4.69795E+01  1.500E-01  2.000E+01  2.000E+04 -2.893E-02
   1   16    5     1     5    1.0647E+05 -2.0611E+03   1.0853E+05  0.000E+00  0.000E+00  0.000E+00  4.65033E+01  1.511E-01  2.000E+01  2.000E+04 -1.031E-01
   1   16    6     1     6    1.0853E+05 -1.2846E+03   1.0982E+05  0.000E+00  0.000E+00  0.000E+00  4.60275E+01  1.525E-01  2.000E+01  2.000E+04 -6.423E-02
   1   16    7     1     7    1.0982E+05 -1.2506E+03   1.1107E+05  0.000E+00  0.000E+00  0.000E+00  4.55513E+01  1.535E-01  2.000E+01  2.000E+04 -6.253E-02
   1   16    8     1     8    1.1107E+05 -1.2373E+03   1.1230E+05  0.000E+00  0.000E+00  0.000E+00  4.50750E+01  1.546E-01  2.000E+01  2.000E+04 -6.186E-02
   1   16    9     1     9    1.1230E+05 -1.2198E+03   1.1352E+05  0.000E+00  0.000E+00  0.000E+00  4.45988E+01  1.556E-01  2.000E+01  2.000E+04 -6.099E-02
   1   16   10     1    10    1.1352E+05 -1.1939E+03   1.1472E+05  0.000E+00  0.000E+00  0.000E+00  4.41225E+01  1.566E-01  2.000E+01  2.000E+04 -5.970E-02
   1   16   11     1    11    1.1472E+05 -1.1717E+03   1.1589E+05  0.000E+00  0.000E+00  0.000E+00  4.36462E+01  1.576E-01  2.000E+01  2.000E+04 -5.859E-02
   1   16   12     1    12    1.1589E+05 -1.8823E+03   1.1777E+05  0.000E+00  0.000E+00  0.000E+00  4.31702E+01  1.588E-01  2.000E+01  2.000E+04 -9.411E-02
   1   15   13     1    13    1.1777E+05 -1.8060E+03   1.1958E+05  0.000E+00  0.000E+00  0.000E+00  4.26944E+01  1.603E-01  2.000E+01  2.000E+04 -9.030E-02
   1   14   14     1    14    1.1958E+05 -2.0535E+03   1.2163E+05  0.000E+00  0.000E+00  0.000E+00  4.22187E+01  1.619E-01  2.000E+01  2.000E+04 -1.027E-01
   1   13   15     1    15    1.2163E+05 -2.3657E+03   1.2400E+05  0.000E+00  0.000E+00  0.000E+00  4.17432E+01  1.636E-01  2.000E+01  2.000E+04 -1.183E-01
   1   12   16     1    16    1.2400E+05 -3.1846E+03   1.2718E+05  0.000E+00  0.000E+00  0.000E+00  4.12681E+01  1.658E-01  2.000E+01  2.000E+04 -1.592E-01
   1   12   17     1    17    1.2718E+05 -1.9652E+03   1.2915E+05  0.000E+00  0.000E+00  0.000E+00  4.07929E+01  1.679E-01  2.000E+01  2.000E+04 -9.826E-02
   1   12   18     1    18    1.2915E+05 -1.7937E+03   1.3094E+05  0.000E+00  0.000E+00  0.000E+00  4.03171E+01  1.693E-01  2.000E+01  2.000E+04 -8.969E-02
   1   12   19     1    19    1.3094E+05 -2.4165E+03   1.3336E+05  0.000E+00  0.000E+00  0.000E+00  3.98414E+01  1.710E-01  2.000E+01  2.000E+04 -1.208E-01
   1   13   20     1    20    1.3336E+05 -6.7579E+02   1.3403E+05  0.000E+00  0.000E+00  0.000E+00  3.93654E+01  1.722E-01  2.000E+01  2.000E+04 -3.379E-02
   1   14   21     1    21    1.3403E+05  5.8833E+03   1.2815E+05  0.000E+00  0.000E+00  0.000E+00  3.88861E+01  1.702E-01  2.000E+01  2.000E+04  2.942E-01
   1   14   22     1    22    1.2815E+05  5.8831E+03   1.2227E+05  0.000E+00  0.000E+00  0.000E+00  3.84042E+01  1.655E-01  2.000E+01  2.000E+04  2.942E-01
   1    9   30     2     1    5.0000E+04 -7.6568E+02   5.0766E+04  0.000E+00  0.000E+00  0.000E+00  4.02414E+01  1.164E-01  2.000E+01  2.000E+04 -3.828E-02
   1    9   29     2     2    5.0766E+04 -1.0827E+03   5.1848E+04  0.000E+00  0.000E+00  0.000E+00  3.99927E+01  1.177E-01  2.000E+01  2.000E+04 -5.413E-02
   1    9   28     2     3    5.1848E+04 -1.3767E+03   5.3225E+04  0.000E+00  0.000E+00  0.000E+00  3.97444E+01  1.194E-01  2.000E+01  2.000E+04 -6.884E-02
   1    9   27     2     4    5.3225E+04 -2.8068E+03   5.6032E+04  0.000E+00  0.000E+00  0.000E+00  3.94972E+01  1.222E-01  2.000E+01  2.000E+04 -1.403E-01
   1   10   26     2     5    5.6032E+04 -1.9301E+03   5.7962E+04  0.000E+00  0.000E+00  0.000E+00  3.92503E+01  1.253E-01  2.000E+01  2.000E+04 -9.650E-02
   1   11   25     2     6    5.7962E+04 -1.7441E+03   5.9706E+04  0.000E+00  0.000E+00  0.000E+00  3.90027E+01  1.277E-01  2.000E+01  2.000E+04 -8.721E-02
   1   12   24     2     7    5.9706E+04 -1.8542E+03   6.1560E+04  0.000E+00  0.000E+00  0.000E+00  3.87551E+01  1.301E-01  2.000E+01  2.000E+04 -9.271E-02
   1   13   23     2     8    6.1560E+04 -3.6221E+02   6.1922E+04  0.000E+00  0.000E+00  0.000E+00  3.85065E+01  1.315E-01  2.000E+01  2.000E+04 -1.811E-02
   1   14   22     2     9    6.1922E+04  2.8971E+03   5.9025E+04  0.000E+00  0.000E+00  0.000E+00  3.82549E+01  1.299E-01  2.000E+01  2.000E+04  1.449E-01
   1   14   22     3     1    1.8129E+05 -7.6157E+03   1.8891E+05  0.000E+00  0.000E+00  0.000E+00  3.77292E+01  1.737E-01  2.000E+01  2.000E+04 -3.808E-01
   1   15   23     3     2    1.8891E+05  1.6980E+02   1.8874E+05  0.000E+00  0.000E+00  0.000E+00  3.68424E+01  1.758E-01  2.000E+01  2.000E+04  8.490E-03
   1   15   24     3     3    1.8874E+05 -2.5729E+02   1.8899E+05  0.000E+00  0.000E+00  0.000E+00  3.59536E+01  1.758E-01  2.000E+01  2.000E+04 -1.286E-02
   1   15   25     3     4    1.8899E+05 -2.8435E+02   1.8928E+05  0.000E+00  0.000E+00  0.000E+00  3.50648E+01  1.759E-01  2.000E+01  2.000E+04 -1.422E-02
   1   15   26     3     5    1.8928E+05 -2.9602E+02   1.8957E+05  0.000E+00  0.000E+00  0.000E+00  3.41761E+01  1.761E-01  2.000E+01  2.000E+04 -1.480E-02
   1   16   27     3     6    1.8957E+05 -1.6354E+01   1.8959E+05  0.000E+00  0.000E+00  0.000E+00  3.32873E+01  1.762E-01  2.000E+01  2.000E+04 -8.177E-04
   1   17   28     3     7    1.8959E+05  9.3090E+03   1.8028E+05  0.000E+00  0.000E+00  0.000E+00  3.23958E+01  1.736E-01  2.000E+01  2.000E+04  4.654E-01
   1   18   29     3     8    1.8028E+05  7.9657E+03   1.7232E+05  0.000E+00  0.000E+00  0.000E+00  3.15020E+01  1.687E-01  2.000E+01  2.000E+04  3.983E-01
   1   18   30     3     9    1.7232E+05  3.3163E+02   1.7198E+05  0.000E+00  0.000E+00  0.000E+00  3.06107E+01  1.663E-01  2.000E+01  2.000E+04  1.658E-02



1
              HEAD IN LAYER   1 AT END OF TIME STEP   1 IN STRESS PERIOD   10
  ---------------------------------------------------------------------------

          1      2      3      4      5      6      7      8      9     10
         11     12     13     14     15     16     17     18     19     20
         21     22     23     24     25     26     27     28     29     30
 .........................................................................
   1  ****** ****** ****** ****** ****** ****** ****** ****** ****** ******
      ****** ****** ****** ****** ****** ****** ****** ****** ****** ******
      ****** ****** ****** ****** ****** ****** ****** ****** ****** ******
   2  ****** ****** ****** ****** ****** ****** ****** ****** ****** ******
      ****** ****** ****** ****** ****** ****** ****** ****** ****** ******
      ****** ****** ****** ****** ****** ****** ****** ****** ****** ******
   3  ****** ****** ****** ****** ****** ****** ****** ****** ****** ******
      ****** ****** ****** ****** ****** ****** ****** ****** ****** ******
      ****** ****** ****** ****** ****** ****** ****** ****** ****** ******
   4  ****** ****** ****** ****** ****** ****** ****** ****** ****** ******
      ****** ****** ****** ****** ****** ****** ****** ****** ****** ******
      ****** ****** ****** ****** ****** ****** ****** ****** ****** ******
   5  ****** ****** ****** ****** ****** ****** ****** ****** ****** ******
      ****** ****** ****** ****** ****** ****** ****** ****** ****** ******
      ****** ****** ****** ****** ****** ****** ****** ****** ****** ******
   6  ****** ****** ****** ****** ****** ****** ****** ****** ****** ******
      ****** ****** ****** ****** ****** ****** ****** ****** ****** ******
      ****** ****** ****** ****** ****** ****** ****** ****** ****** ******
   7  ****** ****** ****** ****** ****** ****** ****** ****** ****** ******
      ****** ****** ****** ****** ****** ****** ****** ****** ****** ******
      ****** ****** ****** ****** ****** ****** ****** ****** ****** ******
   8  ****** ****** ****** ****** ****** ****** ****** ****** ****** ******
      ****** ****** ****** ****** ****** ****** ****** ****** ****** ******
      ****** ****** ****** ****** ****** ****** ****** ****** ****** ******
   9  ****** ****** ****** ****** ****** ****** ****** ****** ****** ******
      ****** ****** ****** ****** ****** ****** ****** ****** ****** ******
      ****** ****** ****** ****** ****** ****** ****** ****** ****** ******
  10  ****** ****** ****** ****** ****** ****** ****** ****** ****** ******
      ****** ****** ****** ****** ****** ****** ****** ****** ****** ******
      ****** ****** ****** ****** ****** ****** ****** ****** ****** ******
  11  ****** ****** ****** ****** ****** ****** ****** ****** ****** ******
      ****** ****** ****** ****** ****** ****** ****** ****** ****** ******
      ****** ****** ****** ****** ****** ****** ****** ****** ****** ******
  12  ****** ****** ****** ****** ****** ****** ****** ****** ****** ******
      ****** ****** ****** ****** ****** ****** ****** ****** ****** ******
      ****** ****** ****** ****** ****** ****** ****** ****** ****** ******
  13  ****** ****** ****** ****** ****** ****** ****** ****** ****** ******
      ****** ****** ****** ****** ****** ****** ****** ****** ****** ******
      ****** ****** ****** ****** ****** ****** ****** ****** ****** ******
  14  ****** ****** ****** ****** ****** ****** ****** ****** ****** ******
      ****** ****** ****** ****** ****** ****** ****** ****** ****** ******
      ****** ****** ****** ****** ****** ****** ****** ****** ****** ******
  15  ****** ****** ****** ****** ****** ****** ****** ****** ****** ******
      ****** ****** ****** ****** ****** ****** ****** ****** ****** ******
      ****** ****** ****** ****** ****** ****** ****** ****** ****** ******
  16  ****** ****** ****** ****** ****** ****** ****** ****** ****** ******
      ****** ****** ****** ****** ****** ****** ****** ****** ****** ******
      ****** ****** ****** ****** ****** ****** ****** ****** ****** ******
  17  ****** ****** ****** ****** ****** ****** ****** ****** ****** ******
      ****** ****** ****** ****** ****** ****** ****** ****** ****** ******
      ****** ****** ****** ****** ****** ****** ****** ****** ****** ******
  18  ****** ****** ****** ****** ****** ****** ****** ****** ****** ******
      ****** ****** ****** ****** ****** ****** ****** ****** ****** ******
      ****** ****** ****** ****** ****** ****** ****** ****** ****** ******
  19  ****** ****** ****** ****** ****** ****** ****** ****** ****** ******
      ****** ****** ****** ****** ****** ****** ****** ****** ****** ******
      ****** ****** ****** ****** ****** ****** ****** ****** ****** ******
  20  ****** ****** ****** ****** ****** ****** ****** ****** ****** ******
      ****** ****** ****** ****** ****** ****** ****** ****** ****** ******
      ****** ****** ****** ****** ****** ****** ****** ****** ****** ******
  21  ****** ****** ****** ****** ****** ****** ****** ****** ****** ******
      ****** ****** ****** ****** ****** ****** ****** ****** ****** ******
      ****** ****** ****** ****** ****** ****** ****** ****** ****** ******
  22  ****** ****** ****** ****** ****** ****** ****** ****** ****** ******
      ****** ****** ****** ****** ****** ****** ****** ****** ****** ******
      ****** ****** ****** ****** ****** ****** ****** ****** ****** ******
  23  ****** ****** ****** ****** ****** ****** ****** ****** ****** ******
      ****** ****** ****** ****** ****** ****** ****** ****** ****** ******
      ****** ****** ****** ****** ****** ****** ****** ****** ****** ******
  24  ****** ****** ****** ****** ****** ****** ****** ****** ****** ******
      ****** ****** ****** ****** ****** ****** ****** ****** ****** ******
      ****** ****** ****** ****** ****** ****** ****** ****** ****** ******
  25  ****** ****** ****** ****** ****** ****** ****** ****** ****** ******
      ****** ****** ****** ****** ****** ****** ****** ****** ****** ******
      ****** ****** ****** ****** ****** ****** ****** ****** ****** ******

 HEAD WILL BE SAVED ON UNIT   51 AT END OF TIME STEP    1, STRESS PERIOD   10
1
  VOLUMETRIC BUDGET FOR ENTIRE MODEL AT END OF TIME STEP    1, STRESS PERIOD  10
  ------------------------------------------------------------------------------

     CUMULATIVE VOLUMES      L**3       RATES FOR THIS TIME STEP      L**3/T
     ------------------                 ------------------------

           IN:                                      IN:
           ---                                      ---
             STORAGE =    32817391.0194               STORAGE =           0.0000
       CONSTANT HEAD =    24463112.5880         CONSTANT HEAD =       30151.0469
               WELLS =           0.0000                 WELLS =           0.0000
            RECHARGE =    23901600.0000              RECHARGE =       55200.0000
      STREAM LEAKAGE =    27770177.2574        STREAM LEAKAGE =       32439.6896

            TOTAL IN =   108952280.8648              TOTAL IN =      117790.7365

          OUT:                                     OUT:
          ----                                     ----
             STORAGE =     2423053.5299               STORAGE =       15818.6079
       CONSTANT HEAD =           0.0000         CONSTANT HEAD =           0.0000
               WELLS =    43411405.5706                 WELLS =       47548.0893
            RECHARGE =           0.0000              RECHARGE =           0.0000
      STREAM LEAKAGE =    63117823.2583        STREAM LEAKAGE =       54424.0362

           TOTAL OUT =   108952282.3587             TOTAL OUT =      117790.7335

            IN - OUT =          -1.4939              IN - OUT =       3.0459E-03

 PERCENT DISCREPANCY =          -0.00     PERCENT DISCREPANCY =           0.00






         TIME SUMMARY AT END OF TIME STEP    1 IN STRESS PERIOD   10
                    SECONDS     MINUTES      HOURS       DAYS        YEARS
                    -----------------------------------------------------------
   TIME STEP LENGTH 7.86240E+06 1.31040E+05  2184.0      91.000     0.24914    
 STRESS PERIOD TIME 7.86240E+06 1.31040E+05  2184.0      91.000     0.24914    
         TOTAL TIME 7.88832E+07 1.31472E+06  21912.      913.00      2.4997    
1
1
                            STRESS PERIOD NO.   11, LENGTH =   91.00000    
                            -----------------------------------------------

                              NUMBER OF TIME STEPS =     1

                               MULTIPLIER FOR DELT =     1.500

                            INITIAL TIME STEP SIZE =   91.00000    

 WELL NO.  LAYER   ROW   COL   STRESS RATE         
 --------------------------------------------------
      1      1     23     29      -1803.    
      2      1     18     28     -0.1266E+05
      3      1     15     21     -0.1818E+05
      4      1     17     29     -0.1491E+05

      4 WELLS

                 RECHARGE =   0.00000    

 REUSING STREAM SEGMENT DATA FROM LAST STRESS PERIOD
 
 SOLVING FOR HEAD 


     7 CALLS TO PCG ROUTINE FOR TIME STEP   1 IN STRESS PERIOD   11
    26 TOTAL ITERATIONS

 OUTPUT CONTROL FOR STRESS PERIOD   11   TIME STEP    1
    SAVE BUDGET
    SAVE HEAD FOR ALL LAYERS
    PRINT HEAD FOR ALL LAYERS
 UBDSV2 SAVING "STREAMFLOW OUT  " ON UNIT  50 AT TIME STEP  1, STRESS PERIOD  11



 STREAM LISTING     PERIOD     11   STEP        1

 LAYER ROW COL. STREAM  RCH.  FLOW INTO     FLOW TO   FLOW OUT OF   OVRLND.     DIRECT     STREAM       STREAM     STREAM     STREAM   STREAMBED  STREAMBED
                SEG.NO.  NO.  STRM. RCH.    AQUIFER    STRM. RCH.    RUNOFF     PRECIP       ET          HEAD       DEPTH      WIDTH   CONDCTNC.   GRADIENT

   1   13    1     1     1    1.0000E+05 -1.5829E+03   1.0158E+05  0.000E+00  0.000E+00  0.000E+00  4.84067E+01  1.453E-01  2.000E+01  2.000E+04 -7.914E-02
   1   13    2     1     2    1.0158E+05 -2.5166E+03   1.0410E+05  0.000E+00  0.000E+00  0.000E+00  4.79312E+01  1.471E-01  2.000E+01  2.000E+04 -1.258E-01
   1   14    3     1     3    1.0410E+05 -3.6699E+02   1.0447E+05  0.000E+00  0.000E+00  0.000E+00  4.74552E+01  1.483E-01  2.000E+01  2.000E+04 -1.835E-02
   1   15    4     1     4    1.0447E+05 -3.3714E+02   1.0480E+05  0.000E+00  0.000E+00  0.000E+00  4.69782E+01  1.486E-01  2.000E+01  2.000E+04 -1.686E-02
   1   16    5     1     5    1.0480E+05 -1.3736E+03   1.0618E+05  0.000E+00  0.000E+00  0.000E+00  4.65016E+01  1.494E-01  2.000E+01  2.000E+04 -6.868E-02
   1   16    6     1     6    1.0618E+05 -8.7063E+02   1.0705E+05  0.000E+00  0.000E+00  0.000E+00  4.60253E+01  1.503E-01  2.000E+01  2.000E+04 -4.353E-02
   1   16    7     1     7    1.0705E+05 -8.5430E+02   1.0790E+05  0.000E+00  0.000E+00  0.000E+00  4.55488E+01  1.510E-01  2.000E+01  2.000E+04 -4.271E-02
   1   16    8     1     8    1.0790E+05 -8.4647E+02   1.0875E+05  0.000E+00  0.000E+00  0.000E+00  4.50722E+01  1.518E-01  2.000E+01  2.000E+04 -4.232E-02
   1   16    9     1     9    1.0875E+05 -8.3121E+02   1.0958E+05  0.000E+00  0.000E+00  0.000E+00  4.45956E+01  1.525E-01  2.000E+01  2.000E+04 -4.156E-02
   1   16   10     1    10    1.0958E+05 -8.0629E+02   1.1039E+05  0.000E+00  0.000E+00  0.000E+00  4.41191E+01  1.532E-01  2.000E+01  2.000E+04 -4.031E-02
   1   16   11     1    11    1.1039E+05 -7.8217E+02   1.1117E+05  0.000E+00  0.000E+00  0.000E+00  4.36424E+01  1.538E-01  2.000E+01  2.000E+04 -3.911E-02
   1   16   12     1    12    1.1117E+05 -1.2369E+03   1.1241E+05  0.000E+00  0.000E+00  0.000E+00  4.31660E+01  1.547E-01  2.000E+01  2.000E+04 -6.184E-02
   1   15   13     1    13    1.1241E+05 -1.1184E+03   1.1352E+05  0.000E+00  0.000E+00  0.000E+00  4.26897E+01  1.556E-01  2.000E+01  2.000E+04 -5.592E-02
   1   14   14     1    14    1.1352E+05 -1.3487E+03   1.1487E+05  0.000E+00  0.000E+00  0.000E+00  4.22135E+01  1.566E-01  2.000E+01  2.000E+04 -6.743E-02
   1   13   15     1    15    1.1487E+05 -1.6669E+03   1.1654E+05  0.000E+00  0.000E+00  0.000E+00  4.17374E+01  1.579E-01  2.000E+01  2.000E+04 -8.334E-02
   1   12   16     1    16    1.1654E+05 -2.5099E+03   1.1905E+05  0.000E+00  0.000E+00  0.000E+00  4.12619E+01  1.596E-01  2.000E+01  2.000E+04 -1.255E-01
   1   12   17     1    17    1.1905E+05 -1.4598E+03   1.2051E+05  0.000E+00  0.000E+00  0.000E+00  4.07862E+01  1.612E-01  2.000E+01  2.000E+04 -7.299E-02
   1   12   18     1    18    1.2051E+05 -1.2957E+03   1.2180E+05  0.000E+00  0.000E+00  0.000E+00  4.03100E+01  1.623E-01  2.000E+01  2.000E+04 -6.479E-02
   1   12   19     1    19    1.2180E+05 -1.8051E+03   1.2361E+05  0.000E+00  0.000E+00  0.000E+00  3.98340E+01  1.635E-01  2.000E+01  2.000E+04 -9.026E-02
   1   13   20     1    20    1.2361E+05 -6.3843E+01   1.2367E+05  0.000E+00  0.000E+00  0.000E+00  3.93575E+01  1.643E-01  2.000E+01  2.000E+04 -3.192E-03
   1   14   21     1    21    1.2367E+05  6.4803E+03   1.1719E+05  0.000E+00  0.000E+00  0.000E+00  3.88776E+01  1.617E-01  2.000E+01  2.000E+04  3.240E-01
   1   14   22     1    22    1.1719E+05  6.0284E+03   1.1116E+05  0.000E+00  0.000E+00  0.000E+00  3.83953E+01  1.566E-01  2.000E+01  2.000E+04  3.014E-01
   1    9   30     2     1    5.0000E+04 -2.7797E+02   5.0278E+04  0.000E+00  0.000E+00  0.000E+00  4.02411E+01  1.161E-01  2.000E+01  2.000E+04 -1.390E-02
   1    9   29     2     2    5.0278E+04 -5.9804E+02   5.0876E+04  0.000E+00  0.000E+00  0.000E+00  3.99917E+01  1.167E-01  2.000E+01  2.000E+04 -2.990E-02
   1    9   28     2     3    5.0876E+04 -8.9436E+02   5.1770E+04  0.000E+00  0.000E+00  0.000E+00  3.97427E+01  1.177E-01  2.000E+01  2.000E+04 -4.472E-02
   1    9   27     2     4    5.1770E+04 -2.1679E+03   5.3938E+04  0.000E+00  0.000E+00  0.000E+00  3.94948E+01  1.198E-01  2.000E+01  2.000E+04 -1.084E-01
   1   10   26     2     5    5.3938E+04 -1.2767E+03   5.5215E+04  0.000E+00  0.000E+00  0.000E+00  3.92471E+01  1.221E-01  2.000E+01  2.000E+04 -6.383E-02
   1   11   25     2     6    5.5215E+04 -1.1145E+03   5.6329E+04  0.000E+00  0.000E+00  0.000E+00  3.89987E+01  1.237E-01  2.000E+01  2.000E+04 -5.572E-02
   1   12   24     2     7    5.6329E+04 -1.2815E+03   5.7611E+04  0.000E+00  0.000E+00  0.000E+00  3.87503E+01  1.253E-01  2.000E+01  2.000E+04 -6.407E-02
   1   13   23     2     8    5.7611E+04 -1.7644E+02   5.7787E+04  0.000E+00  0.000E+00  0.000E+00  3.85013E+01  1.263E-01  2.000E+01  2.000E+04 -8.822E-03
   1   14   22     2     9    5.7787E+04  3.1096E+03   5.4678E+04  0.000E+00  0.000E+00  0.000E+00  3.82493E+01  1.243E-01  2.000E+01  2.000E+04  1.555E-01
   1   14   22     3     1    1.6584E+05 -7.4701E+03   1.7331E+05  0.000E+00  0.000E+00  0.000E+00  3.77203E+01  1.648E-01  2.000E+01  2.000E+04 -3.735E-01
   1   15   23     3     2    1.7331E+05  3.6190E+02   1.7295E+05  0.000E+00  0.000E+00  0.000E+00  3.68335E+01  1.669E-01  2.000E+01  2.000E+04  1.809E-02
   1   15   24     3     3    1.7295E+05 -9.2124E+01   1.7304E+05  0.000E+00  0.000E+00  0.000E+00  3.59445E+01  1.668E-01  2.000E+01  2.000E+04 -4.606E-03
   1   15   25     3     4    1.7304E+05 -1.1536E+02   1.7316E+05  0.000E+00  0.000E+00  0.000E+00  3.50557E+01  1.668E-01  2.000E+01  2.000E+04 -5.768E-03
   1   15   26     3     5    1.7316E+05 -1.0031E+02   1.7326E+05  0.000E+00  0.000E+00  0.000E+00  3.41669E+01  1.669E-01  2.000E+01  2.000E+04 -5.015E-03
   1   16   27     3     6    1.7326E+05  2.0671E+02   1.7305E+05  0.000E+00  0.000E+00  0.000E+00  3.32780E+01  1.669E-01  2.000E+01  2.000E+04  1.034E-02
   1   17   28     3     7    1.7305E+05  9.9190E+03   1.6313E+05  0.000E+00  0.000E+00  0.000E+00  3.23861E+01  1.639E-01  2.000E+01  2.000E+04  4.959E-01
   1   18   29     3     8    1.6313E+05  8.5878E+03   1.5455E+05  0.000E+00  0.000E+00  0.000E+00  3.14918E+01  1.584E-01  2.000E+01  2.000E+04  4.294E-01
   1   18   30     3     9    1.5455E+05  8.2068E+02   1.5372E+05  0.000E+00  0.000E+00  0.000E+00  3.06001E+01  1.556E-01  2.000E+01  2.000E+04  4.103E-02



1
              HEAD IN LAYER   1 AT END OF TIME STEP   1 IN STRESS PERIOD   11
  ---------------------------------------------------------------------------

          1      2      3      4      5      6      7      8      9     10
         11     12     13     14     15     16     17     18     19     20
         21     22     23     24     25     26     27     28     29     30
 .........................................................................
   1  ****** ****** ****** ****** ****** ****** ****** ****** ****** ******
      ****** ****** ****** ****** ****** ****** ****** ****** ****** ******
      ****** ****** ****** ****** ****** ****** ****** ****** ****** ******
   2  ****** ****** ****** ****** ****** ****** ****** ****** ****** ******
      ****** ****** ****** ****** ****** ****** ****** ****** ****** ******
      ****** ****** ****** ****** ****** ****** ****** ****** ****** ******
   3  ****** ****** ****** ****** ****** ****** ****** ****** ****** ******
      ****** ****** ****** ****** ****** ****** ****** ****** ****** ******
      ****** ****** ****** ****** ****** ****** ****** ****** ****** ******
   4  ****** ****** ****** ****** ****** ****** ****** ****** ****** ******
      ****** ****** ****** ****** ****** ****** ****** ****** ****** ******
      ****** ****** ****** ****** ****** ****** ****** ****** ****** ******
   5  ****** ****** ****** ****** ****** ****** ****** ****** ****** ******
      ****** ****** ****** ****** ****** ****** ****** ****** ****** ******
      ****** ****** ****** ****** ****** ****** ****** ****** ****** ******
   6  ****** ****** ****** ****** ****** ****** ****** ****** ****** ******
      ****** ****** ****** ****** ****** ****** ****** ****** ****** ******
      ****** ****** ****** ****** ****** ****** ****** ****** ****** ******
   7  ****** ****** ****** ****** ****** ****** ****** ****** ****** ******
      ****** ****** ****** ****** ****** ****** ****** ****** ****** ******
      ****** ****** ****** ****** ****** ****** ****** ****** ****** ******
   8  ****** ****** ****** ****** ****** ****** ****** ****** ****** ******
      ****** ****** ****** ****** ****** ****** ****** ****** ****** ******
      ****** ****** ****** ****** ****** ****** ****** ****** ****** ******
   9  ****** ****** ****** ****** ****** ****** ****** ****** ****** ******
      ****** ****** ****** ****** ****** ****** ****** ****** ****** ******
      ****** ****** ****** ****** ****** ****** ****** ****** ****** ******
  10  ****** ****** ****** ****** ****** ****** ****** ****** ****** ******
      ****** ****** ****** ****** ****** ****** ****** ****** ****** ******
      ****** ****** ****** ****** ****** ****** ****** ****** ****** ******
  11  ****** ****** ****** ****** ****** ****** ****** ****** ****** ******
      ****** ****** ****** ****** ****** ****** ****** ****** ****** ******
      ****** ****** ****** ****** ****** ****** ****** ****** ****** ******
  12  ****** ****** ****** ****** ****** ****** ****** ****** ****** ******
      ****** ****** ****** ****** ****** ****** ****** ****** ****** ******
      ****** ****** ****** ****** ****** ****** ****** ****** ****** ******
  13  ****** ****** ****** ****** ****** ****** ****** ****** ****** ******
      ****** ****** ****** ****** ****** ****** ****** ****** ****** ******
      ****** ****** ****** ****** ****** ****** ****** ****** ****** ******
  14  ****** ****** ****** ****** ****** ****** ****** ****** ****** ******
      ****** ****** ****** ****** ****** ****** ****** ****** ****** ******
      ****** ****** ****** ****** ****** ****** ****** ****** ****** ******
  15  ****** ****** ****** ****** ****** ****** ****** ****** ****** ******
      ****** ****** ****** ****** ****** ****** ****** ****** ****** ******
      ****** ****** ****** ****** ****** ****** ****** ****** ****** ******
  16  ****** ****** ****** ****** ****** ****** ****** ****** ****** ******
      ****** ****** ****** ****** ****** ****** ****** ****** ****** ******
      ****** ****** ****** ****** ****** ****** ****** ****** ****** ******
  17  ****** ****** ****** ****** ****** ****** ****** ****** ****** ******
      ****** ****** ****** ****** ****** ****** ****** ****** ****** ******
      ****** ****** ****** ****** ****** ****** ****** ****** ****** ******
  18  ****** ****** ****** ****** ****** ****** ****** ****** ****** ******
      ****** ****** ****** ****** ****** ****** ****** ****** ****** ******
      ****** ****** ****** ****** ****** ****** ****** ****** ****** ******
  19  ****** ****** ****** ****** ****** ****** ****** ****** ****** ******
      ****** ****** ****** ****** ****** ****** ****** ****** ****** ******
      ****** ****** ****** ****** ****** ****** ****** ****** ****** ******
  20  ****** ****** ****** ****** ****** ****** ****** ****** ****** ******
      ****** ****** ****** ****** ****** ****** ****** ****** ****** ******
      ****** ****** ****** ****** ****** ****** ****** ****** ****** ******
  21  ****** ****** ****** ****** ****** ****** ****** ****** ****** ******
      ****** ****** ****** ****** ****** ****** ****** ****** ****** ******
      ****** ****** ****** ****** ****** ****** ****** ****** ****** ******
  22  ****** ****** ****** ****** ****** ****** ****** ****** ****** ******
      ****** ****** ****** ****** ****** ****** ****** ****** ****** ******
      ****** ****** ****** ****** ****** ****** ****** ****** ****** ******
  23  ****** ****** ****** ****** ****** ****** ****** ****** ****** ******
      ****** ****** ****** ****** ****** ****** ****** ****** ****** ******
      ****** ****** ****** ****** ****** ****** ****** ****** ****** ******
  24  ****** ****** ****** ****** ****** ****** ****** ****** ****** ******
      ****** ****** ****** ****** ****** ****** ****** ****** ****** ******
      ****** ****** ****** ****** ****** ****** ****** ****** ****** ******
  25  ****** ****** ****** ****** ****** ****** ****** ****** ****** ******
      ****** ****** ****** ****** ****** ****** ****** ****** ****** ******
      ****** ****** ****** ****** ****** ****** ****** ****** ****** ******

 HEAD WILL BE SAVED ON UNIT   51 AT END OF TIME STEP    1, STRESS PERIOD   11
1
  VOLUMETRIC BUDGET FOR ENTIRE MODEL AT END OF TIME STEP    1, STRESS PERIOD  11
  ------------------------------------------------------------------------------

     CUMULATIVE VOLUMES      L**3       RATES FOR THIS TIME STEP      L**3/T
     ------------------                 ------------------------

           IN:                                      IN:
           ---                                      ---
             STORAGE =    34441399.6453               STORAGE =       17846.2486
       CONSTANT HEAD =    27504925.9104         CONSTANT HEAD =       33426.5200
               WELLS =           0.0000                 WELLS =           0.0000
            RECHARGE =    23901600.0000              RECHARGE =           0.0000
      STREAM LEAKAGE =    31001970.5430        STREAM LEAKAGE =       35514.2119

            TOTAL IN =   116849896.0987              TOTAL IN =       86786.9806

          OUT:                                     OUT:
          ----                                     ----
             STORAGE =     2423053.5299               STORAGE =           0.0000
       CONSTANT HEAD =           0.0000         CONSTANT HEAD =           0.0000
               WELLS =    47738281.7008                 WELLS =       47548.0893
            RECHARGE =           0.0000              RECHARGE =           0.0000
      STREAM LEAKAGE =    66688562.7804        STREAM LEAKAGE =       39238.8958

           TOTAL OUT =   116849898.0111             TOTAL OUT =       86786.9852

            IN - OUT =          -1.9124              IN - OUT =      -4.5997E-03

 PERCENT DISCREPANCY =          -0.00     PERCENT DISCREPANCY =          -0.00






         TIME SUMMARY AT END OF TIME STEP    1 IN STRESS PERIOD   11
                    SECONDS     MINUTES      HOURS       DAYS        YEARS
                    -----------------------------------------------------------
   TIME STEP LENGTH 7.86240E+06 1.31040E+05  2184.0      91.000     0.24914    
 STRESS PERIOD TIME 7.86240E+06 1.31040E+05  2184.0      91.000     0.24914    
         TOTAL TIME 8.67456E+07 1.44576E+06  24096.      1004.0      2.7488    
1
1
                            STRESS PERIOD NO.   12, LENGTH =   91.00000    
                            -----------------------------------------------

                              NUMBER OF TIME STEPS =     1

                               MULTIPLIER FOR DELT =     1.500

                            INITIAL TIME STEP SIZE =   91.00000    

 WELL NO.  LAYER   ROW   COL   STRESS RATE         
 --------------------------------------------------
      1      1     23     29      -1803.    
      2      1     18     28     -0.1266E+05
      3      1     15     21     -0.1818E+05
      4      1     17     29     -0.1491E+05

      4 WELLS

                 RECHARGE =  1.000000E-03

 REUSING STREAM SEGMENT DATA FROM LAST STRESS PERIOD
 
 SOLVING FOR HEAD 


     7 CALLS TO PCG ROUTINE FOR TIME STEP   1 IN STRESS PERIOD   12
    24 TOTAL ITERATIONS

 OUTPUT CONTROL FOR STRESS PERIOD   12   TIME STEP    1
    SAVE BUDGET
    SAVE HEAD FOR ALL LAYERS
    PRINT HEAD FOR ALL LAYERS
 UBDSV2 SAVING "STREAMFLOW OUT  " ON UNIT  50 AT TIME STEP  1, STRESS PERIOD  12



 STREAM LISTING     PERIOD     12   STEP        1

 LAYER ROW COL. STREAM  RCH.  FLOW INTO     FLOW TO   FLOW OUT OF   OVRLND.     DIRECT     STREAM       STREAM     STREAM     STREAM   STREAMBED  STREAMBED
                SEG.NO.  NO.  STRM. RCH.    AQUIFER    STRM. RCH.    RUNOFF     PRECIP       ET          HEAD       DEPTH      WIDTH   CONDCTNC.   GRADIENT

   1   13    1     1     1    1.0000E+05 -1.7292E+03   1.0173E+05  0.000E+00  0.000E+00  0.000E+00  4.84068E+01  1.454E-01  2.000E+01  2.000E+04 -8.646E-02
   1   13    2     1     2    1.0173E+05 -2.6741E+03   1.0440E+05  0.000E+00  0.000E+00  0.000E+00  4.79314E+01  1.473E-01  2.000E+01  2.000E+04 -1.337E-01
   1   14    3     1     3    1.0440E+05 -4.4592E+02   1.0485E+05  0.000E+00  0.000E+00  0.000E+00  4.74554E+01  1.486E-01  2.000E+01  2.000E+04 -2.230E-02
   1   15    4     1     4    1.0485E+05 -4.1980E+02   1.0527E+05  0.000E+00  0.000E+00  0.000E+00  4.69785E+01  1.490E-01  2.000E+01  2.000E+04 -2.099E-02
   1   16    5     1     5    1.0527E+05 -1.5836E+03   1.0685E+05  0.000E+00  0.000E+00  0.000E+00  4.65021E+01  1.499E-01  2.000E+01  2.000E+04 -7.918E-02
   1   16    6     1     6    1.0685E+05 -1.0013E+03   1.0785E+05  0.000E+00  0.000E+00  0.000E+00  4.60259E+01  1.509E-01  2.000E+01  2.000E+04 -5.007E-02
   1   16    7     1     7    1.0785E+05 -9.7997E+02   1.0883E+05  0.000E+00  0.000E+00  0.000E+00  4.55495E+01  1.518E-01  2.000E+01  2.000E+04 -4.900E-02
   1   16    8     1     8    1.0883E+05 -9.7108E+02   1.0980E+05  0.000E+00  0.000E+00  0.000E+00  4.50731E+01  1.526E-01  2.000E+01  2.000E+04 -4.855E-02
   1   16    9     1     9    1.0980E+05 -9.5620E+02   1.1076E+05  0.000E+00  0.000E+00  0.000E+00  4.45966E+01  1.534E-01  2.000E+01  2.000E+04 -4.781E-02
   1   16   10     1    10    1.1076E+05 -9.3254E+02   1.1169E+05  0.000E+00  0.000E+00  0.000E+00  4.41201E+01  1.542E-01  2.000E+01  2.000E+04 -4.663E-02
   1   16   11     1    11    1.1169E+05 -9.1055E+02   1.1260E+05  0.000E+00  0.000E+00  0.000E+00  4.36436E+01  1.550E-01  2.000E+01  2.000E+04 -4.553E-02
   1   16   12     1    12    1.1260E+05 -1.4388E+03   1.1404E+05  0.000E+00  0.000E+00  0.000E+00  4.31673E+01  1.559E-01  2.000E+01  2.000E+04 -7.194E-02
   1   15   13     1    13    1.1404E+05 -1.3361E+03   1.1538E+05  0.000E+00  0.000E+00  0.000E+00  4.26912E+01  1.571E-01  2.000E+01  2.000E+04 -6.681E-02
   1   14   14     1    14    1.1538E+05 -1.5673E+03   1.1695E+05  0.000E+00  0.000E+00  0.000E+00  4.22151E+01  1.583E-01  2.000E+01  2.000E+04 -7.837E-02
   1   13   15     1    15    1.1695E+05 -1.8785E+03   1.1882E+05  0.000E+00  0.000E+00  0.000E+00  4.17392E+01  1.597E-01  2.000E+01  2.000E+04 -9.392E-02
   1   12   16     1    16    1.1882E+05 -2.6956E+03   1.2152E+05  0.000E+00  0.000E+00  0.000E+00  4.12638E+01  1.615E-01  2.000E+01  2.000E+04 -1.348E-01
   1   12   17     1    17    1.2152E+05 -1.6144E+03   1.2313E+05  0.000E+00  0.000E+00  0.000E+00  4.07882E+01  1.632E-01  2.000E+01  2.000E+04 -8.072E-02
   1   12   18     1    18    1.2313E+05 -1.4523E+03   1.2459E+05  0.000E+00  0.000E+00  0.000E+00  4.03122E+01  1.645E-01  2.000E+01  2.000E+04 -7.261E-02
   1   12   19     1    19    1.2459E+05 -1.9987E+03   1.2659E+05  0.000E+00  0.000E+00  0.000E+00  3.98363E+01  1.658E-01  2.000E+01  2.000E+04 -9.993E-02
   1   13   20     1    20    1.2659E+05 -2.7467E+02   1.2686E+05  0.000E+00  0.000E+00  0.000E+00  3.93599E+01  1.667E-01  2.000E+01  2.000E+04 -1.373E-02
   1   14   21     1    21    1.2686E+05  6.2861E+03   1.2057E+05  0.000E+00  0.000E+00  0.000E+00  3.88803E+01  1.644E-01  2.000E+01  2.000E+04  3.143E-01
   1   14   22     1    22    1.2057E+05  5.9759E+03   1.1460E+05  0.000E+00  0.000E+00  0.000E+00  3.83981E+01  1.594E-01  2.000E+01  2.000E+04  2.988E-01
   1    9   30     2     1    5.0000E+04 -4.5462E+02   5.0455E+04  0.000E+00  0.000E+00  0.000E+00  4.02412E+01  1.162E-01  2.000E+01  2.000E+04 -2.273E-02
   1    9   29     2     2    5.0455E+04 -7.7266E+02   5.1227E+04  0.000E+00  0.000E+00  0.000E+00  3.99920E+01  1.170E-01  2.000E+01  2.000E+04 -3.863E-02
   1    9   28     2     3    5.1227E+04 -1.0655E+03   5.2293E+04  0.000E+00  0.000E+00  0.000E+00  3.97433E+01  1.183E-01  2.000E+01  2.000E+04 -5.328E-02
   1    9   27     2     4    5.2293E+04 -2.3777E+03   5.4671E+04  0.000E+00  0.000E+00  0.000E+00  3.94956E+01  1.206E-01  2.000E+01  2.000E+04 -1.189E-01
   1   10   26     2     5    5.4671E+04 -1.5070E+03   5.6178E+04  0.000E+00  0.000E+00  0.000E+00  3.92483E+01  1.233E-01  2.000E+01  2.000E+04 -7.535E-02
   1   11   25     2     6    5.6178E+04 -1.3410E+03   5.7519E+04  0.000E+00  0.000E+00  0.000E+00  3.90001E+01  1.251E-01  2.000E+01  2.000E+04 -6.705E-02
   1   12   24     2     7    5.7519E+04 -1.4882E+03   5.9007E+04  0.000E+00  0.000E+00  0.000E+00  3.87520E+01  1.270E-01  2.000E+01  2.000E+04 -7.441E-02
   1   13   23     2     8    5.9007E+04 -2.5417E+02   5.9261E+04  0.000E+00  0.000E+00  0.000E+00  3.85031E+01  1.281E-01  2.000E+01  2.000E+04 -1.271E-02
   1   14   22     2     9    5.9261E+04  3.0411E+03   5.6220E+04  0.000E+00  0.000E+00  0.000E+00  3.82513E+01  1.263E-01  2.000E+01  2.000E+04  1.521E-01
   1   14   22     3     1    1.7082E+05 -7.5204E+03   1.7834E+05  0.000E+00  0.000E+00  0.000E+00  3.77232E+01  1.677E-01  2.000E+01  2.000E+04 -3.760E-01
   1   15   23     3     2    1.7834E+05  2.8989E+02   1.7805E+05  0.000E+00  0.000E+00  0.000E+00  3.68364E+01  1.698E-01  2.000E+01  2.000E+04  1.449E-02
   1   15   24     3     3    1.7805E+05 -1.5719E+02   1.7821E+05  0.000E+00  0.000E+00  0.000E+00  3.59475E+01  1.697E-01  2.000E+01  2.000E+04 -7.860E-03
   1   15   25     3     4    1.7821E+05 -1.8170E+02   1.7839E+05  0.000E+00  0.000E+00  0.000E+00  3.50587E+01  1.698E-01  2.000E+01  2.000E+04 -9.085E-03
   1   15   26     3     5    1.7839E+05 -1.7778E+02   1.7857E+05  0.000E+00  0.000E+00  0.000E+00  3.41699E+01  1.699E-01  2.000E+01  2.000E+04 -8.889E-03
   1   16   27     3     6    1.7857E+05  1.1994E+02   1.7845E+05  0.000E+00  0.000E+00  0.000E+00  3.32810E+01  1.699E-01  2.000E+01  2.000E+04  5.997E-03
   1   17   28     3     7    1.7845E+05  9.6983E+03   1.6875E+05  0.000E+00  0.000E+00  0.000E+00  3.23893E+01  1.671E-01  2.000E+01  2.000E+04  4.849E-01
   1   18   29     3     8    1.6875E+05  8.3874E+03   1.6036E+05  0.000E+00  0.000E+00  0.000E+00  3.14952E+01  1.618E-01  2.000E+01  2.000E+04  4.194E-01
   1   18   30     3     9    1.6036E+05  6.5275E+02   1.5971E+05  0.000E+00  0.000E+00  0.000E+00  3.06036E+01  1.592E-01  2.000E+01  2.000E+04  3.264E-02



1
              HEAD IN LAYER   1 AT END OF TIME STEP   1 IN STRESS PERIOD   12
  ---------------------------------------------------------------------------

          1      2      3      4      5      6      7      8      9     10
         11     12     13     14     15     16     17     18     19     20
         21     22     23     24     25     26     27     28     29     30
 .........................................................................
   1  ****** ****** ****** ****** ****** ****** ****** ****** ****** ******
      ****** ****** ****** ****** ****** ****** ****** ****** ****** ******
      ****** ****** ****** ****** ****** ****** ****** ****** ****** ******
   2  ****** ****** ****** ****** ****** ****** ****** ****** ****** ******
      ****** ****** ****** ****** ****** ****** ****** ****** ****** ******
      ****** ****** ****** ****** ****** ****** ****** ****** ****** ******
   3  ****** ****** ****** ****** ****** ****** ****** ****** ****** ******
      ****** ****** ****** ****** ****** ****** ****** ****** ****** ******
      ****** ****** ****** ****** ****** ****** ****** ****** ****** ******
   4  ****** ****** ****** ****** ****** ****** ****** ****** ****** ******
      ****** ****** ****** ****** ****** ****** ****** ****** ****** ******
      ****** ****** ****** ****** ****** ****** ****** ****** ****** ******
   5  ****** ****** ****** ****** ****** ****** ****** ****** ****** ******
      ****** ****** ****** ****** ****** ****** ****** ****** ****** ******
      ****** ****** ****** ****** ****** ****** ****** ****** ****** ******
   6  ****** ****** ****** ****** ****** ****** ****** ****** ****** ******
      ****** ****** ****** ****** ****** ****** ****** ****** ****** ******
      ****** ****** ****** ****** ****** ****** ****** ****** ****** ******
   7  ****** ****** ****** ****** ****** ****** ****** ****** ****** ******
      ****** ****** ****** ****** ****** ****** ****** ****** ****** ******
      ****** ****** ****** ****** ****** ****** ****** ****** ****** ******
   8  ****** ****** ****** ****** ****** ****** ****** ****** ****** ******
      ****** ****** ****** ****** ****** ****** ****** ****** ****** ******
      ****** ****** ****** ****** ****** ****** ****** ****** ****** ******
   9  ****** ****** ****** ****** ****** ****** ****** ****** ****** ******
      ****** ****** ****** ****** ****** ****** ****** ****** ****** ******
      ****** ****** ****** ****** ****** ****** ****** ****** ****** ******
  10  ****** ****** ****** ****** ****** ****** ****** ****** ****** ******
      ****** ****** ****** ****** ****** ****** ****** ****** ****** ******
      ****** ****** ****** ****** ****** ****** ****** ****** ****** ******
  11  ****** ****** ****** ****** ****** ****** ****** ****** ****** ******
      ****** ****** ****** ****** ****** ****** ****** ****** ****** ******
      ****** ****** ****** ****** ****** ****** ****** ****** ****** ******
  12  ****** ****** ****** ****** ****** ****** ****** ****** ****** ******
      ****** ****** ****** ****** ****** ****** ****** ****** ****** ******
      ****** ****** ****** ****** ****** ****** ****** ****** ****** ******
  13  ****** ****** ****** ****** ****** ****** ****** ****** ****** ******
      ****** ****** ****** ****** ****** ****** ****** ****** ****** ******
      ****** ****** ****** ****** ****** ****** ****** ****** ****** ******
  14  ****** ****** ****** ****** ****** ****** ****** ****** ****** ******
      ****** ****** ****** ****** ****** ****** ****** ****** ****** ******
      ****** ****** ****** ****** ****** ****** ****** ****** ****** ******
  15  ****** ****** ****** ****** ****** ****** ****** ****** ****** ******
      ****** ****** ****** ****** ****** ****** ****** ****** ****** ******
      ****** ****** ****** ****** ****** ****** ****** ****** ****** ******
  16  ****** ****** ****** ****** ****** ****** ****** ****** ****** ******
      ****** ****** ****** ****** ****** ****** ****** ****** ****** ******
      ****** ****** ****** ****** ****** ****** ****** ****** ****** ******
  17  ****** ****** ****** ****** ****** ****** ****** ****** ****** ******
      ****** ****** ****** ****** ****** ****** ****** ****** ****** ******
      ****** ****** ****** ****** ****** ****** ****** ****** ****** ******
  18  ****** ****** ****** ****** ****** ****** ****** ****** ****** ******
      ****** ****** ****** ****** ****** ****** ****** ****** ****** ******
      ****** ****** ****** ****** ****** ****** ****** ****** ****** ******
  19  ****** ****** ****** ****** ****** ****** ****** ****** ****** ******
      ****** ****** ****** ****** ****** ****** ****** ****** ****** ******
      ****** ****** ****** ****** ****** ****** ****** ****** ****** ******
  20  ****** ****** ****** ****** ****** ****** ****** ****** ****** ******
      ****** ****** ****** ****** ****** ****** ****** ****** ****** ******
      ****** ****** ****** ****** ****** ****** ****** ****** ****** ******
  21  ****** ****** ****** ****** ****** ****** ****** ****** ****** ******
      ****** ****** ****** ****** ****** ****** ****** ****** ****** ******
      ****** ****** ****** ****** ****** ****** ****** ****** ****** ******
  22  ****** ****** ****** ****** ****** ****** ****** ****** ****** ******
      ****** ****** ****** ****** ****** ****** ****** ****** ****** ******
      ****** ****** ****** ****** ****** ****** ****** ****** ****** ******
  23  ****** ****** ****** ****** ****** ****** ****** ****** ****** ******
      ****** ****** ****** ****** ****** ****** ****** ****** ****** ******
      ****** ****** ****** ****** ****** ****** ****** ****** ****** ******
  24  ****** ****** ****** ****** ****** ****** ****** ****** ****** ******
      ****** ****** ****** ****** ****** ****** ****** ****** ****** ******
      ****** ****** ****** ****** ****** ****** ****** ****** ****** ******
  25  ****** ****** ****** ****** ****** ****** ****** ****** ****** ******
      ****** ****** ****** ****** ****** ****** ****** ****** ****** ******
      ****** ****** ****** ****** ****** ****** ****** ****** ****** ******

 HEAD WILL BE SAVED ON UNIT   51 AT END OF TIME STEP    1, STRESS PERIOD   12
1
  VOLUMETRIC BUDGET FOR ENTIRE MODEL AT END OF TIME STEP    1, STRESS PERIOD  12
  ------------------------------------------------------------------------------

     CUMULATIVE VOLUMES      L**3       RATES FOR THIS TIME STEP      L**3/T
     ------------------                 ------------------------

           IN:                                      IN:
           ---                                      ---
             STORAGE =    34441835.6682               STORAGE =           4.7915
       CONSTANT HEAD =    30482718.6538         CONSTANT HEAD =       32722.9972
               WELLS =           0.0000                 WELLS =           0.0000
            RECHARGE =    26413200.0000              RECHARGE =       27600.0000
      STREAM LEAKAGE =    34137040.3173        STREAM LEAKAGE =       34451.3162

            TOTAL IN =   125474794.6394              TOTAL IN =       94779.1048

          OUT:                                     OUT:
          ----                                     ----
             STORAGE =     2702645.3450               STORAGE =        3072.4375
       CONSTANT HEAD =           0.0000         CONSTANT HEAD =           0.0000
               WELLS =    52065157.8311                 WELLS =       47548.0893
            RECHARGE =           0.0000              RECHARGE =           0.0000
      STREAM LEAKAGE =    70706993.2905        STREAM LEAKAGE =       44158.5770

           TOTAL OUT =   125474796.4666             TOTAL OUT =       94779.1039

            IN - OUT =          -1.8272              IN - OUT =       9.3675E-04

 PERCENT DISCREPANCY =          -0.00     PERCENT DISCREPANCY =           0.00






         TIME SUMMARY AT END OF TIME STEP    1 IN STRESS PERIOD   12
                    SECONDS     MINUTES      HOURS       DAYS        YEARS
                    -----------------------------------------------------------
   TIME STEP LENGTH 7.86240E+06 1.31040E+05  2184.0      91.000     0.24914    
 STRESS PERIOD TIME 7.86240E+06 1.31040E+05  2184.0      91.000     0.24914    
         TOTAL TIME 9.46080E+07 1.57680E+06  26280.      1095.0      2.9979    
1

 Run end date and time (yyyy/mm/dd hh:mm:ss): 2019/03/14  3:15:32
 Elapsed run time:  0.116 Seconds

