                                  MODFLOW-2005     
      U.S. GEOLOGICAL SURVEY MODULAR FINITE-DIFFERENCE GROUND-WATER FLOW MODEL
                            VERSION 1.11.00 8/8/2013

 LIST FILE: supply2.lst
                         UNIT   10

 OPENING ..\data\supply.dis
 FILE TYPE:DIS   UNIT   11   STATUS:OLD    
 FORMAT:FORMATTED              ACCESS:SEQUENTIAL          

 OPENING ..\data\supply.ba6
 FILE TYPE:BAS6   UNIT   12   STATUS:OLD    
 FORMAT:FORMATTED              ACCESS:SEQUENTIAL          

 OPENING ..\data\supply_het.bc6
 FILE TYPE:BCF6   UNIT   13   STATUS:OLD    
 FORMAT:FORMATTED              ACCESS:SEQUENTIAL          

 OPENING ..\data\supply.rch
 FILE TYPE:RCH   UNIT   15   STATUS:OLD    
 FORMAT:FORMATTED              ACCESS:SEQUENTIAL          

 OPENING ..\data\supply2.sfr
 FILE TYPE:SFR   UNIT   16   STATUS:OLD    
 FORMAT:FORMATTED              ACCESS:SEQUENTIAL          

 OPENING ..\data\supply.oc
 FILE TYPE:OC   UNIT   17   STATUS:OLD    
 FORMAT:FORMATTED              ACCESS:SEQUENTIAL          

 OPENING ..\data\supply.pcg
 FILE TYPE:PCG   UNIT   18   STATUS:OLD    
 FORMAT:FORMATTED              ACCESS:SEQUENTIAL          

 OPENING supply2.wel
 FILE TYPE:WEL   UNIT   19   STATUS:OLD    
 FORMAT:FORMATTED              ACCESS:SEQUENTIAL          

 OPENING supply2sf.cbc
 FILE TYPE:DATA(BINARY)   UNIT   50   STATUS:UNKNOWN
 FORMAT:BINARY                 ACCESS:SEQUENTIAL          

 OPENING supply2hd.bhd
 FILE TYPE:DATA(BINARY)   UNIT   51   STATUS:UNKNOWN
 FORMAT:BINARY                 ACCESS:SEQUENTIAL          

 BAS -- BASIC PACKAGE, VERSION 7, 5/2/2005 INPUT READ FROM UNIT   12
 
 MODFLOW was compiled using uniform precision
 Precision of REAL and DOUBLE PRECISION variables:          15

 DISCRETIZATION INPUT DATA READ FROM UNIT   11
    1 LAYERS        25 ROWS        30 COLUMNS
   12 STRESS PERIOD(S) IN SIMULATION
 MODEL TIME UNIT IS DAYS
 MODEL LENGTH UNIT IS UNDEFINED
  Confining bed flag for each layer:
   0

                     DELR =   200.000    

                     DELC =   200.000    

 TOP ELEVATION OF LAYER 1 =  100.0000    

   MODEL LAYER BOTTOM EL. =   0.00000     FOR LAYER   1


 STRESS PERIOD     LENGTH       TIME STEPS     MULTIPLIER FOR DELT    SS FLAG
 ----------------------------------------------------------------------------
        1         92.00000          1                    1.500         TR
        2         91.00000          1                    1.500         TR
        3         91.00000          1                    1.500         TR
        4         91.00000          1                    1.500         TR
        5         92.00000          1                    1.500         TR
        6         91.00000          1                    1.500         TR
        7         91.00000          1                    1.500         TR
        8         91.00000          1                    1.500         TR
        9         92.00000          1                    1.500         TR
       10         91.00000          1                    1.500         TR
       11         91.00000          1                    1.500         TR
       12         91.00000          1                    1.500         TR

 TRANSIENT SIMULATION



 
 #MODOFC transient water supply sample problem                                   
 #                                                                               
 THE FREE FORMAT OPTION HAS BEEN SELECTED



                     BOUNDARY ARRAY FOR LAYER   1
 READING ON UNIT   12 WITH FORMAT: (20I4)              

 AQUIFER HEAD WILL BE SET TO   0.0000     AT ALL NO-FLOW NODES (IBOUND=0).



                       INITIAL HEAD FOR LAYER   1
 READING ON UNIT   12 WITH FORMAT: (10F13.0)           

 OUTPUT CONTROL IS SPECIFIED ONLY AT TIME STEPS FOR WHICH OUTPUT IS DESIRED
 COMPACT CELL-BY-CELL BUDGET FILES WILL BE WRITTEN
 HEAD PRINT FORMAT CODE IS  18    DRAWDOWN PRINT FORMAT CODE IS   0
 HEADS WILL BE SAVED ON UNIT   51    DRAWDOWNS WILL BE SAVED ON UNIT    0

 BCF -- BLOCK-CENTERED FLOW PACKAGE, VERSION 7, 5/2/2005
         INPUT READ FROM UNIT 13
 TRANSIENT SIMULATION
 HEAD AT CELLS THAT CONVERT TO DRY=   0.0000    
 WETTING CAPABILITY IS NOT ACTIVE
      LAYER  LAYER-TYPE CODE     INTERBLOCK T
      --------------------------------------------
         1            0          0 -- HARMONIC    

 COLUMN TO ROW ANISOTROPY =  1.000000    

     PRIMARY STORAGE COEF =  5.000000E-02 FOR LAYER   1



               TRANSMIS. ALONG ROWS FOR LAYER   1
 READING ON UNIT   13 WITH FORMAT: (FREE)              

 WEL -- WELL PACKAGE, VERSION 7, 5/2/2005 INPUT READ FROM UNIT   19
 # Well package input file written by MMProc
 No named parameters
 MAXIMUM OF      4 ACTIVE WELLS AT ONE TIME


     0 Well parameters

 RCH -- RECHARGE PACKAGE, VERSION 7, 5/2/2005 INPUT READ FROM UNIT   15
 No named parameters
 OPTION 1 -- RECHARGE TO TOP LAYER


     0 Recharge parameters

 SFR7 -- STREAMFLOW ROUTING PACKAGE, VERSION 1.0.7, 2013-01-15
         INPUT READ FROM UNIT  16
 #  Supply2 test problem for GWM-VI
 #  The eighth entry in the first data line is ISTCB2 -
 #    Setting this to a negative number indicates that
 #    streamflows out of the reach will be saved to a
 #    binary file.  The absolute value of ISTCB2 is the
 #    unit to which unformatted flows will be written.
 #
 No named parameters
 Segment information will not be 
 read by reach
 No named parameters
 No specifed inflow files


 NUMBER OF STREAM REACHES IS   40

 NUMBER OF STREAM SEGMENTS IS    3

 NUMBER OF STREAM PARAMETERS IS    0

 NUMBER OF STREAM SEGMENTS DEFINED USING PARAMETERS IS              0

 MAXIMUM ERROR FOR STREAM LEAKAGE RATES IS  1.00E-04

 CONSTANT FOR MANNINGS EQUATION IS  1.2839E+05





   STREAM NETWORK DESCRIPTION: 

   LAYER    ROW    COL   SEGMENT   REACH     LENGTH
                          NUMBER   NUMBER    IN CELL        
   --------------------------------------------------
      1     13      1       1        1    2.0000E+02
      1     13      2       1        2    2.0000E+02
      1     14      3       1        3    2.0000E+02
      1     15      4       1        4    2.0000E+02
      1     16      5       1        5    2.0000E+02
      1     16      6       1        6    2.0000E+02
      1     16      7       1        7    2.0000E+02
      1     16      8       1        8    2.0000E+02
      1     16      9       1        9    2.0000E+02
      1     16     10       1       10    2.0000E+02
      1     16     11       1       11    2.0000E+02
      1     16     12       1       12    2.0000E+02
      1     15     13       1       13    2.0000E+02
      1     14     14       1       14    2.0000E+02
      1     13     15       1       15    2.0000E+02
      1     12     16       1       16    2.0000E+02
      1     12     17       1       17    2.0000E+02
      1     12     18       1       18    2.0000E+02
      1     12     19       1       19    2.0000E+02
      1     13     20       1       20    2.0000E+02
      1     14     21       1       21    2.0000E+02
      1     14     22       1       22    2.0000E+02
      1      9     30       2        1    2.0000E+02
      1      9     29       2        2    2.0000E+02
      1      9     28       2        3    2.0000E+02
      1      9     27       2        4    2.0000E+02
      1     10     26       2        5    2.0000E+02
      1     11     25       2        6    2.0000E+02
      1     12     24       2        7    2.0000E+02
      1     13     23       2        8    2.0000E+02
      1     14     22       2        9    2.0000E+02
      1     14     22       3        1    2.0000E+02
      1     15     23       3        2    2.0000E+02
      1     15     24       3        3    2.0000E+02
      1     15     25       3        4    2.0000E+02
      1     15     26       3        5    2.0000E+02
      1     16     27       3        6    2.0000E+02
      1     17     28       3        7    2.0000E+02
      1     18     29       3        8    2.0000E+02
      1     18     30       3        9    2.0000E+02




 PCG -- CONJUGATE-GRADIENT SOLUTION PACKAGE, VERSION 7, 5/2/2005
 MAXIMUM OF    500 CALLS OF SOLUTION ROUTINE
 MAXIMUM OF      5 INTERNAL ITERATIONS PER CALL TO SOLUTION ROUTINE
 MATRIX PRECONDITIONING TYPE :    1



                                    SOLUTION BY THE CONJUGATE-GRADIENT METHOD
                                   -------------------------------------------
                    MAXIMUM NUMBER OF CALLS TO PCG ROUTINE =      500
                        MAXIMUM ITERATIONS PER CALL TO PCG =        5
                               MATRIX PRECONDITIONING TYPE =        1
        RELAXATION FACTOR (ONLY USED WITH PRECOND. TYPE 1) =    0.10000E+01
 PARAMETER OF POLYNOMIAL PRECOND. = 2 (2) OR IS CALCULATED :        0
                         HEAD CHANGE CRITERION FOR CLOSURE =    0.10000E-05
                     RESIDUAL CHANGE CRITERION FOR CLOSURE =    0.10000E+01
            PCG HEAD AND RESIDUAL CHANGE PRINTOUT INTERVAL =        1
     PRINTING FROM SOLVER IS LIMITED(1) OR SUPPRESSED (>1) =        1
                            STEADY-STATE DAMPING PARAMETER =    0.10000E+01
                               TRANSIENT DAMPING PARAMETER =    0.10000E+01
1
                            STRESS PERIOD NO.    1, LENGTH =   92.00000    
                            -----------------------------------------------

                              NUMBER OF TIME STEPS =     1

                               MULTIPLIER FOR DELT =     1.500

                            INITIAL TIME STEP SIZE =   92.00000    

 WELL NO.  LAYER   ROW   COL   STRESS RATE         
 --------------------------------------------------
      1      1     16     16      -9666.    
      2      1      6     22      -5938.    
      3      1     19     13     -0.1394E+05
      4      1      6     21      -5885.    

      4 WELLS

                 RECHARGE =  5.000000E-04



 CLASSIFICATION & COUNT OF STREAM SEGMENTS BASED ON SOURCE OF INFLOW:

                HEADWATER     DIVERSION     RECEIVES TRIBUTARY FLOW
                ---------     ---------     -----------------------
                     2              0               1



                    INPUT DATA FOR EACH STREAM SEGMENT
 ---------------------------------------------------------------------------------------------

 SEGMENT    SEG.     INFLOW   OVERLAND   STREAM    STREAM   ICALC  OUTFLOW  DIVERSION PRIORITY
    NO.    LENGTH     RATE     RUNOFF      ET       PPT.    METH.  TO SEG.  FROM SEG.    NO.

      1  4.400E+03 1.000E+05 0.000E+00 0.000E+00 0.000E+00    1        3        0        0
      2  1.800E+03 5.000E+04 0.000E+00 0.000E+00 0.000E+00    1        3        0        0
      3  1.800E+03 0.000E+00 0.000E+00 0.000E+00 0.000E+00    1        0        0        0


         STREAMBED PROPERTIES AND STREAM DIMENSIONS

 SEGMENT     BED HYD. COND.      BED THICKNESS     ELEV.-TOP OF BED     WIDTH OF STREAM     DEPTH OF STREAM    STREAM ROUGHNESS
    No.     UPPER     LOWER     UPPER     LOWER     UPPER     LOWER     UPPER     LOWER     UPPER     LOWER   CHANNEL      BANK

     1  5.000E+00 5.000E+00 1.000E+00 1.000E+00 4.850E+01 3.800E+01 2.000E+01 2.000E+01                     5.000E-02
     2  5.000E+00 5.000E+00 1.000E+00 1.000E+00 4.025E+01 3.800E+01 2.000E+01 2.000E+01                     5.000E-02
     3  5.000E+00 5.000E+00 1.000E+00 1.000E+00 3.800E+01 3.000E+01 2.000E+01 2.000E+01                     5.000E-02



 
 SOLVING FOR HEAD 


     9 CALLS TO PCG ROUTINE FOR TIME STEP   1 IN STRESS PERIOD    1
    36 TOTAL ITERATIONS

 OUTPUT CONTROL FOR STRESS PERIOD    1   TIME STEP    1
    SAVE BUDGET
    SAVE HEAD FOR ALL LAYERS
    PRINT HEAD FOR ALL LAYERS
 UBDSV2 SAVING "STREAMFLOW OUT  " ON UNIT  50 AT TIME STEP  1, STRESS PERIOD   1



 STREAM LISTING     PERIOD      1   STEP        1

 LAYER ROW COL. STREAM  RCH.  FLOW INTO     FLOW TO   FLOW OUT OF   OVRLND.     DIRECT     STREAM       STREAM     STREAM     STREAM   STREAMBED  STREAMBED
                SEG.NO.  NO.  STRM. RCH.    AQUIFER    STRM. RCH.    RUNOFF     PRECIP       ET          HEAD       DEPTH      WIDTH   CONDCTNC.   GRADIENT

   1   13    1     1     1    1.0000E+05 -6.1032E+03   1.0610E+05  0.000E+00  0.000E+00  0.000E+00  4.84086E+01  1.473E-01  2.000E+01  2.000E+04 -3.052E-01
   1   13    2     1     2    1.0610E+05 -7.5735E+03   1.1368E+05  0.000E+00  0.000E+00  0.000E+00  4.79372E+01  1.531E-01  2.000E+01  2.000E+04 -3.787E-01
   1   14    3     1     3    1.1368E+05 -2.1925E+03   1.1587E+05  0.000E+00  0.000E+00  0.000E+00  4.74639E+01  1.571E-01  2.000E+01  2.000E+04 -1.096E-01
   1   15    4     1     4    1.1587E+05 -2.2574E+03   1.1813E+05  0.000E+00  0.000E+00  0.000E+00  4.69885E+01  1.589E-01  2.000E+01  2.000E+04 -1.129E-01
   1   16    5     1     5    1.1813E+05 -7.0343E+03   1.2516E+05  0.000E+00  0.000E+00  0.000E+00  4.65150E+01  1.627E-01  2.000E+01  2.000E+04 -3.517E-01
   1   16    6     1     6    1.2516E+05 -4.1683E+03   1.2933E+05  0.000E+00  0.000E+00  0.000E+00  4.60422E+01  1.672E-01  2.000E+01  2.000E+04 -2.084E-01
   1   16    7     1     7    1.2933E+05 -3.9505E+03   1.3328E+05  0.000E+00  0.000E+00  0.000E+00  4.55681E+01  1.703E-01  2.000E+01  2.000E+04 -1.975E-01
   1   16    8     1     8    1.3328E+05 -3.8242E+03   1.3710E+05  0.000E+00  0.000E+00  0.000E+00  4.50938E+01  1.733E-01  2.000E+01  2.000E+04 -1.912E-01
   1   16    9     1     9    1.3710E+05 -3.6796E+03   1.4078E+05  0.000E+00  0.000E+00  0.000E+00  4.46194E+01  1.762E-01  2.000E+01  2.000E+04 -1.840E-01
   1   16   10     1    10    1.4078E+05 -3.4659E+03   1.4425E+05  0.000E+00  0.000E+00  0.000E+00  4.41448E+01  1.789E-01  2.000E+01  2.000E+04 -1.733E-01
   1   16   11     1    11    1.4425E+05 -3.1516E+03   1.4740E+05  0.000E+00  0.000E+00  0.000E+00  4.36700E+01  1.814E-01  2.000E+01  2.000E+04 -1.576E-01
   1   16   12     1    12    1.4740E+05 -4.6627E+03   1.5206E+05  0.000E+00  0.000E+00  0.000E+00  4.31957E+01  1.843E-01  2.000E+01  2.000E+04 -2.331E-01
   1   15   13     1    13    1.5206E+05 -5.4964E+03   1.5756E+05  0.000E+00  0.000E+00  0.000E+00  4.27221E+01  1.880E-01  2.000E+01  2.000E+04 -2.748E-01
   1   14   14     1    14    1.5756E+05 -6.2695E+03   1.6383E+05  0.000E+00  0.000E+00  0.000E+00  4.22491E+01  1.923E-01  2.000E+01  2.000E+04 -3.135E-01
   1   13   15     1    15    1.6383E+05 -7.0512E+03   1.7088E+05  0.000E+00  0.000E+00  0.000E+00  4.17766E+01  1.970E-01  2.000E+01  2.000E+04 -3.526E-01
   1   12   16     1    16    1.7088E+05 -8.2777E+03   1.7916E+05  0.000E+00  0.000E+00  0.000E+00  4.13047E+01  2.024E-01  2.000E+01  2.000E+04 -4.139E-01
   1   12   17     1    17    1.7916E+05 -5.6873E+03   1.8485E+05  0.000E+00  0.000E+00  0.000E+00  4.08322E+01  2.072E-01  2.000E+01  2.000E+04 -2.844E-01
   1   12   18     1    18    1.8485E+05 -5.5620E+03   1.9041E+05  0.000E+00  0.000E+00  0.000E+00  4.03587E+01  2.110E-01  2.000E+01  2.000E+04 -2.781E-01
   1   12   19     1    19    1.9041E+05 -7.0862E+03   1.9749E+05  0.000E+00  0.000E+00  0.000E+00  3.98857E+01  2.152E-01  2.000E+01  2.000E+04 -3.543E-01
   1   13   20     1    20    1.9749E+05 -6.1444E+03   2.0364E+05  0.000E+00  0.000E+00  0.000E+00  3.94128E+01  2.196E-01  2.000E+01  2.000E+04 -3.072E-01
   1   14   21     1    21    2.0364E+05 -5.7840E+03   2.0942E+05  0.000E+00  0.000E+00  0.000E+00  3.89394E+01  2.235E-01  2.000E+01  2.000E+04 -2.892E-01
   1   14   22     1    22    2.0942E+05  3.7094E+03   2.0571E+05  0.000E+00  0.000E+00  0.000E+00  3.84628E+01  2.242E-01  2.000E+01  2.000E+04  1.855E-01
   1    9   30     2     1    5.0000E+04 -4.7316E+03   5.4732E+04  0.000E+00  0.000E+00  0.000E+00  4.02441E+01  1.191E-01  2.000E+01  2.000E+04 -2.366E-01
   1    9   29     2     2    5.4732E+04 -5.0048E+03   5.9736E+04  0.000E+00  0.000E+00  0.000E+00  4.00007E+01  1.257E-01  2.000E+01  2.000E+04 -2.502E-01
   1    9   28     2     3    5.9736E+04 -5.2324E+03   6.4969E+04  0.000E+00  0.000E+00  0.000E+00  3.97573E+01  1.323E-01  2.000E+01  2.000E+04 -2.616E-01
   1    9   27     2     4    6.4969E+04 -7.7580E+03   7.2727E+04  0.000E+00  0.000E+00  0.000E+00  3.95154E+01  1.404E-01  2.000E+01  2.000E+04 -3.879E-01
   1   10   26     2     5    7.2727E+04 -6.8426E+03   7.9569E+04  0.000E+00  0.000E+00  0.000E+00  3.92741E+01  1.491E-01  2.000E+01  2.000E+04 -3.421E-01
   1   11   25     2     6    7.9569E+04 -6.3464E+03   8.5916E+04  0.000E+00  0.000E+00  0.000E+00  3.90318E+01  1.568E-01  2.000E+01  2.000E+04 -3.173E-01
   1   12   24     2     7    8.5916E+04 -5.9134E+03   9.1829E+04  0.000E+00  0.000E+00  0.000E+00  3.87886E+01  1.636E-01  2.000E+01  2.000E+04 -2.957E-01
   1   13   23     2     8    9.1829E+04 -1.5987E+03   9.3428E+04  0.000E+00  0.000E+00  0.000E+00  3.85427E+01  1.677E-01  2.000E+01  2.000E+04 -7.993E-02
   1   14   22     2     9    9.3428E+04  3.2131E+02   9.3107E+04  0.000E+00  0.000E+00  0.000E+00  3.82934E+01  1.684E-01  2.000E+01  2.000E+04  1.607E-02
   1   14   22     3     1    2.9882E+05 -9.7609E+03   3.0858E+05  0.000E+00  0.000E+00  0.000E+00  3.77893E+01  2.338E-01  2.000E+01  2.000E+04 -4.880E-01
   1   15   23     3     2    3.0858E+05 -1.9213E+03   3.1050E+05  0.000E+00  0.000E+00  0.000E+00  3.69031E+01  2.364E-01  2.000E+01  2.000E+04 -9.607E-02
   1   15   24     3     3    3.1050E+05 -1.5197E+03   3.1202E+05  0.000E+00  0.000E+00  0.000E+00  3.60150E+01  2.372E-01  2.000E+01  2.000E+04 -7.598E-02
   1   15   25     3     4    3.1202E+05 -1.5748E+03   3.1360E+05  0.000E+00  0.000E+00  0.000E+00  3.51268E+01  2.379E-01  2.000E+01  2.000E+04 -7.874E-02
   1   15   26     3     5    3.1360E+05 -1.8809E+03   3.1548E+05  0.000E+00  0.000E+00  0.000E+00  3.42387E+01  2.387E-01  2.000E+01  2.000E+04 -9.405E-02
   1   16   27     3     6    3.1548E+05 -2.1611E+03   3.1764E+05  0.000E+00  0.000E+00  0.000E+00  3.33508E+01  2.396E-01  2.000E+01  2.000E+04 -1.081E-01
   1   17   28     3     7    3.1764E+05 -6.5631E+03   3.2420E+05  0.000E+00  0.000E+00  0.000E+00  3.24638E+01  2.416E-01  2.000E+01  2.000E+04 -3.282E-01
   1   18   29     3     8    3.2420E+05 -7.9540E+03   3.3216E+05  0.000E+00  0.000E+00  0.000E+00  3.15782E+01  2.449E-01  2.000E+01  2.000E+04 -3.977E-01
   1   18   30     3     9    3.3216E+05 -7.1516E+03   3.3931E+05  0.000E+00  0.000E+00  0.000E+00  3.06927E+01  2.483E-01  2.000E+01  2.000E+04 -3.576E-01



1
              HEAD IN LAYER   1 AT END OF TIME STEP   1 IN STRESS PERIOD    1
  ---------------------------------------------------------------------------

          1      2      3      4      5      6      7      8      9     10
         11     12     13     14     15     16     17     18     19     20
         21     22     23     24     25     26     27     28     29     30
 .........................................................................
   1  ****** ****** ****** ****** ****** ****** ****** ****** ****** ******
      ****** ****** ****** ****** ****** ****** ****** ****** ****** ******
      ****** ****** ****** ****** ****** ****** ****** ****** ****** ******
   2  ****** ****** ****** ****** ****** ****** ****** ****** ****** ******
      ****** ****** ****** ****** ****** ****** ****** ****** ****** ******
      ****** ****** ****** ****** ****** ****** ****** ****** ****** ******
   3  ****** ****** ****** ****** ****** ****** ****** ****** ****** ******
      ****** ****** ****** ****** ****** ****** ****** ****** ****** ******
      ****** ****** ****** ****** ****** ****** ****** ****** ****** ******
   4  ****** ****** ****** ****** ****** ****** ****** ****** ****** ******
      ****** ****** ****** ****** ****** ****** ****** ****** ****** ******
      ****** ****** ****** ****** ****** ****** ****** ****** ****** ******
   5  ****** ****** ****** ****** ****** ****** ****** ****** ****** ******
      ****** ****** ****** ****** ****** ****** ****** ****** ****** ******
      ****** ****** ****** ****** ****** ****** ****** ****** ****** ******
   6  ****** ****** ****** ****** ****** ****** ****** ****** ****** ******
      ****** ****** ****** ****** ****** ****** ****** ****** ****** ******
      ****** ****** ****** ****** ****** ****** ****** ****** ****** ******
   7  ****** ****** ****** ****** ****** ****** ****** ****** ****** ******
      ****** ****** ****** ****** ****** ****** ****** ****** ****** ******
      ****** ****** ****** ****** ****** ****** ****** ****** ****** ******
   8  ****** ****** ****** ****** ****** ****** ****** ****** ****** ******
      ****** ****** ****** ****** ****** ****** ****** ****** ****** ******
      ****** ****** ****** ****** ****** ****** ****** ****** ****** ******
   9  ****** ****** ****** ****** ****** ****** ****** ****** ****** ******
      ****** ****** ****** ****** ****** ****** ****** ****** ****** ******
      ****** ****** ****** ****** ****** ****** ****** ****** ****** ******
  10  ****** ****** ****** ****** ****** ****** ****** ****** ****** ******
      ****** ****** ****** ****** ****** ****** ****** ****** ****** ******
      ****** ****** ****** ****** ****** ****** ****** ****** ****** ******
  11  ****** ****** ****** ****** ****** ****** ****** ****** ****** ******
      ****** ****** ****** ****** ****** ****** ****** ****** ****** ******
      ****** ****** ****** ****** ****** ****** ****** ****** ****** ******
  12  ****** ****** ****** ****** ****** ****** ****** ****** ****** ******
      ****** ****** ****** ****** ****** ****** ****** ****** ****** ******
      ****** ****** ****** ****** ****** ****** ****** ****** ****** ******
  13  ****** ****** ****** ****** ****** ****** ****** ****** ****** ******
      ****** ****** ****** ****** ****** ****** ****** ****** ****** ******
      ****** ****** ****** ****** ****** ****** ****** ****** ****** ******
  14  ****** ****** ****** ****** ****** ****** ****** ****** ****** ******
      ****** ****** ****** ****** ****** ****** ****** ****** ****** ******
      ****** ****** ****** ****** ****** ****** ****** ****** ****** ******
  15  ****** ****** ****** ****** ****** ****** ****** ****** ****** ******
      ****** ****** ****** ****** ****** ****** ****** ****** ****** ******
      ****** ****** ****** ****** ****** ****** ****** ****** ****** ******
  16  ****** ****** ****** ****** ****** ****** ****** ****** ****** ******
      ****** ****** ****** ****** ****** ****** ****** ****** ****** ******
      ****** ****** ****** ****** ****** ****** ****** ****** ****** ******
  17  ****** ****** ****** ****** ****** ****** ****** ****** ****** ******
      ****** ****** ****** ****** ****** ****** ****** ****** ****** ******
      ****** ****** ****** ****** ****** ****** ****** ****** ****** ******
  18  ****** ****** ****** ****** ****** ****** ****** ****** ****** ******
      ****** ****** ****** ****** ****** ****** ****** ****** ****** ******
      ****** ****** ****** ****** ****** ****** ****** ****** ****** ******
  19  ****** ****** ****** ****** ****** ****** ****** ****** ****** ******
      ****** ****** ****** ****** ****** ****** ****** ****** ****** ******
      ****** ****** ****** ****** ****** ****** ****** ****** ****** ******
  20  ****** ****** ****** ****** ****** ****** ****** ****** ****** ******
      ****** ****** ****** ****** ****** ****** ****** ****** ****** ******
      ****** ****** ****** ****** ****** ****** ****** ****** ****** ******
  21  ****** ****** ****** ****** ****** ****** ****** ****** ****** ******
      ****** ****** ****** ****** ****** ****** ****** ****** ****** ******
      ****** ****** ****** ****** ****** ****** ****** ****** ****** ******
  22  ****** ****** ****** ****** ****** ****** ****** ****** ****** ******
      ****** ****** ****** ****** ****** ****** ****** ****** ****** ******
      ****** ****** ****** ****** ****** ****** ****** ****** ****** ******
  23  ****** ****** ****** ****** ****** ****** ****** ****** ****** ******
      ****** ****** ****** ****** ****** ****** ****** ****** ****** ******
      ****** ****** ****** ****** ****** ****** ****** ****** ****** ******
  24  ****** ****** ****** ****** ****** ****** ****** ****** ****** ******
      ****** ****** ****** ****** ****** ****** ****** ****** ****** ******
      ****** ****** ****** ****** ****** ****** ****** ****** ****** ******
  25  ****** ****** ****** ****** ****** ****** ****** ****** ****** ******
      ****** ****** ****** ****** ****** ****** ****** ****** ****** ******
      ****** ****** ****** ****** ****** ****** ****** ****** ****** ******

 HEAD WILL BE SAVED ON UNIT   51 AT END OF TIME STEP    1, STRESS PERIOD    1
1
  VOLUMETRIC BUDGET FOR ENTIRE MODEL AT END OF TIME STEP    1, STRESS PERIOD   1
  ------------------------------------------------------------------------------

     CUMULATIVE VOLUMES      L**3       RATES FOR THIS TIME STEP      L**3/T
     ------------------                 ------------------------

           IN:                                      IN:
           ---                                      ---
             STORAGE =    18203105.9253               STORAGE =      197859.8470
       CONSTANT HEAD =     1203078.0782         CONSTANT HEAD =       13076.9356
               WELLS =           0.0000                 WELLS =           0.0000
            RECHARGE =     1269600.0000              RECHARGE =       13800.0000
      STREAM LEAKAGE =      370821.5519        STREAM LEAKAGE =        4030.6690

            TOTAL IN =    21046605.5554              TOTAL IN =      228767.4517

          OUT:                                     OUT:
          ----                                     ----
             STORAGE =           0.0000               STORAGE =           0.0000
       CONSTANT HEAD =           0.0000         CONSTANT HEAD =           0.0000
               WELLS =     3259529.2526                 WELLS =       35429.6658
            RECHARGE =           0.0000              RECHARGE =           0.0000
      STREAM LEAKAGE =    17787076.6003        STREAM LEAKAGE =      193337.7891

           TOTAL OUT =    21046605.8530             TOTAL OUT =      228767.4549

            IN - OUT =          -0.2976              IN - OUT =      -3.2351E-03

 PERCENT DISCREPANCY =          -0.00     PERCENT DISCREPANCY =          -0.00






         TIME SUMMARY AT END OF TIME STEP    1 IN STRESS PERIOD    1
                    SECONDS     MINUTES      HOURS       DAYS        YEARS
                    -----------------------------------------------------------
   TIME STEP LENGTH 7.94880E+06 1.32480E+05  2208.0      92.000     0.25188    
 STRESS PERIOD TIME 7.94880E+06 1.32480E+05  2208.0      92.000     0.25188    
         TOTAL TIME 7.94880E+06 1.32480E+05  2208.0      92.000     0.25188    
1
1
                            STRESS PERIOD NO.    2, LENGTH =   91.00000    
                            -----------------------------------------------

                              NUMBER OF TIME STEPS =     1

                               MULTIPLIER FOR DELT =     1.500

                            INITIAL TIME STEP SIZE =   91.00000    

 WELL NO.  LAYER   ROW   COL   STRESS RATE         
 --------------------------------------------------
      1      1     16     16      -9666.    
      2      1      6     22      -5938.    
      3      1     19     13     -0.1394E+05
      4      1      6     21      -5885.    

      4 WELLS

                 RECHARGE =  2.000000E-03

 REUSING STREAM SEGMENT DATA FROM LAST STRESS PERIOD
 
 SOLVING FOR HEAD 


     7 CALLS TO PCG ROUTINE FOR TIME STEP   1 IN STRESS PERIOD    2
    27 TOTAL ITERATIONS

 OUTPUT CONTROL FOR STRESS PERIOD    2   TIME STEP    1
    SAVE BUDGET
    SAVE HEAD FOR ALL LAYERS
    PRINT HEAD FOR ALL LAYERS
 UBDSV2 SAVING "STREAMFLOW OUT  " ON UNIT  50 AT TIME STEP  1, STRESS PERIOD   2



 STREAM LISTING     PERIOD      2   STEP        1

 LAYER ROW COL. STREAM  RCH.  FLOW INTO     FLOW TO   FLOW OUT OF   OVRLND.     DIRECT     STREAM       STREAM     STREAM     STREAM   STREAMBED  STREAMBED
                SEG.NO.  NO.  STRM. RCH.    AQUIFER    STRM. RCH.    RUNOFF     PRECIP       ET          HEAD       DEPTH      WIDTH   CONDCTNC.   GRADIENT

   1   13    1     1     1    1.0000E+05 -3.9648E+03   1.0396E+05  0.000E+00  0.000E+00  0.000E+00  4.84077E+01  1.464E-01  2.000E+01  2.000E+04 -1.982E-01
   1   13    2     1     2    1.0396E+05 -5.2288E+03   1.0919E+05  0.000E+00  0.000E+00  0.000E+00  4.79344E+01  1.503E-01  2.000E+01  2.000E+04 -2.614E-01
   1   14    3     1     3    1.0919E+05 -1.1020E+03   1.1030E+05  0.000E+00  0.000E+00  0.000E+00  4.74598E+01  1.530E-01  2.000E+01  2.000E+04 -5.510E-02
   1   15    4     1     4    1.1030E+05 -1.1175E+03   1.1141E+05  0.000E+00  0.000E+00  0.000E+00  4.69834E+01  1.539E-01  2.000E+01  2.000E+04 -5.587E-02
   1   16    5     1     5    1.1141E+05 -3.9680E+03   1.1538E+05  0.000E+00  0.000E+00  0.000E+00  4.65083E+01  1.560E-01  2.000E+01  2.000E+04 -1.984E-01
   1   16    6     1     6    1.1538E+05 -2.2744E+03   1.1766E+05  0.000E+00  0.000E+00  0.000E+00  4.60335E+01  1.585E-01  2.000E+01  2.000E+04 -1.137E-01
   1   16    7     1     7    1.1766E+05 -2.1082E+03   1.1976E+05  0.000E+00  0.000E+00  0.000E+00  4.55581E+01  1.603E-01  2.000E+01  2.000E+04 -1.054E-01
   1   16    8     1     8    1.1976E+05 -1.9642E+03   1.2173E+05  0.000E+00  0.000E+00  0.000E+00  4.50824E+01  1.620E-01  2.000E+01  2.000E+04 -9.821E-02
   1   16    9     1     9    1.2173E+05 -1.7701E+03   1.2350E+05  0.000E+00  0.000E+00  0.000E+00  4.46067E+01  1.635E-01  2.000E+01  2.000E+04 -8.851E-02
   1   16   10     1    10    1.2350E+05 -1.4831E+03   1.2498E+05  0.000E+00  0.000E+00  0.000E+00  4.41307E+01  1.648E-01  2.000E+01  2.000E+04 -7.415E-02
   1   16   11     1    11    1.2498E+05 -1.0654E+03   1.2605E+05  0.000E+00  0.000E+00  0.000E+00  4.36544E+01  1.658E-01  2.000E+01  2.000E+04 -5.327E-02
   1   16   12     1    12    1.2605E+05 -1.1441E+03   1.2719E+05  0.000E+00  0.000E+00  0.000E+00  4.31780E+01  1.667E-01  2.000E+01  2.000E+04 -5.721E-02
   1   15   13     1    13    1.2719E+05 -1.7980E+03   1.2899E+05  0.000E+00  0.000E+00  0.000E+00  4.27019E+01  1.678E-01  2.000E+01  2.000E+04 -8.990E-02
   1   14   14     1    14    1.2899E+05 -2.5445E+03   1.3153E+05  0.000E+00  0.000E+00  0.000E+00  4.22263E+01  1.695E-01  2.000E+01  2.000E+04 -1.272E-01
   1   13   15     1    15    1.3153E+05 -3.4271E+03   1.3496E+05  0.000E+00  0.000E+00  0.000E+00  4.17514E+01  1.718E-01  2.000E+01  2.000E+04 -1.714E-01
   1   12   16     1    16    1.3496E+05 -4.9487E+03   1.3991E+05  0.000E+00  0.000E+00  0.000E+00  4.12773E+01  1.751E-01  2.000E+01  2.000E+04 -2.474E-01
   1   12   17     1    17    1.3991E+05 -2.9892E+03   1.4290E+05  0.000E+00  0.000E+00  0.000E+00  4.08031E+01  1.781E-01  2.000E+01  2.000E+04 -1.495E-01
   1   12   18     1    18    1.4290E+05 -2.8495E+03   1.4575E+05  0.000E+00  0.000E+00  0.000E+00  4.03280E+01  1.803E-01  2.000E+01  2.000E+04 -1.425E-01
   1   12   19     1    19    1.4575E+05 -3.7111E+03   1.4946E+05  0.000E+00  0.000E+00  0.000E+00  3.98532E+01  1.827E-01  2.000E+01  2.000E+04 -1.856E-01
   1   13   20     1    20    1.4946E+05 -2.7602E+03   1.5222E+05  0.000E+00  0.000E+00  0.000E+00  3.93783E+01  1.851E-01  2.000E+01  2.000E+04 -1.380E-01
   1   14   21     1    21    1.5222E+05 -2.7620E+03   1.5498E+05  0.000E+00  0.000E+00  0.000E+00  3.89030E+01  1.871E-01  2.000E+01  2.000E+04 -1.381E-01
   1   14   22     1    22    1.5498E+05  4.5059E+03   1.5048E+05  0.000E+00  0.000E+00  0.000E+00  3.84251E+01  1.865E-01  2.000E+01  2.000E+04  2.253E-01
   1    9   30     2     1    5.0000E+04 -1.9287E+03   5.1929E+04  0.000E+00  0.000E+00  0.000E+00  4.02422E+01  1.172E-01  2.000E+01  2.000E+04 -9.643E-02
   1    9   29     2     2    5.1929E+04 -2.2062E+03   5.4135E+04  0.000E+00  0.000E+00  0.000E+00  3.99950E+01  1.200E-01  2.000E+01  2.000E+04 -1.103E-01
   1    9   28     2     3    5.4135E+04 -2.4275E+03   5.6562E+04  0.000E+00  0.000E+00  0.000E+00  3.97482E+01  1.232E-01  2.000E+01  2.000E+04 -1.214E-01
   1    9   27     2     4    5.6562E+04 -4.0387E+03   6.0601E+04  0.000E+00  0.000E+00  0.000E+00  3.95024E+01  1.274E-01  2.000E+01  2.000E+04 -2.019E-01
   1   10   26     2     5    6.0601E+04 -3.0342E+03   6.3635E+04  0.000E+00  0.000E+00  0.000E+00  3.92570E+01  1.320E-01  2.000E+01  2.000E+04 -1.517E-01
   1   11   25     2     6    6.3635E+04 -2.7232E+03   6.6358E+04  0.000E+00  0.000E+00  0.000E+00  3.90106E+01  1.356E-01  2.000E+01  2.000E+04 -1.362E-01
   1   12   24     2     7    6.6358E+04 -2.6668E+03   6.9025E+04  0.000E+00  0.000E+00  0.000E+00  3.87640E+01  1.390E-01  2.000E+01  2.000E+04 -1.333E-01
   1   13   23     2     8    6.9025E+04 -5.3367E+02   6.9559E+04  0.000E+00  0.000E+00  0.000E+00  3.85159E+01  1.409E-01  2.000E+01  2.000E+04 -2.668E-02
   1   14   22     2     9    6.9559E+04  1.3121E+03   6.8247E+04  0.000E+00  0.000E+00  0.000E+00  3.82654E+01  1.404E-01  2.000E+01  2.000E+04  6.561E-02
   1   14   22     3     1    2.1872E+05 -8.9991E+03   2.2772E+05  0.000E+00  0.000E+00  0.000E+00  3.77499E+01  1.943E-01  2.000E+01  2.000E+04 -4.500E-01
   1   15   23     3     2    2.2772E+05 -9.3771E+02   2.2866E+05  0.000E+00  0.000E+00  0.000E+00  3.68636E+01  1.969E-01  2.000E+01  2.000E+04 -4.689E-02
   1   15   24     3     3    2.2866E+05 -6.4314E+02   2.2930E+05  0.000E+00  0.000E+00  0.000E+00  3.59751E+01  1.973E-01  2.000E+01  2.000E+04 -3.216E-02
   1   15   25     3     4    2.2930E+05 -6.6001E+02   2.2996E+05  0.000E+00  0.000E+00  0.000E+00  3.50865E+01  1.977E-01  2.000E+01  2.000E+04 -3.300E-02
   1   15   26     3     5    2.2996E+05 -7.6765E+02   2.3073E+05  0.000E+00  0.000E+00  0.000E+00  3.41980E+01  1.980E-01  2.000E+01  2.000E+04 -3.838E-02
   1   16   27     3     6    2.3073E+05 -8.8919E+02   2.3162E+05  0.000E+00  0.000E+00  0.000E+00  3.33096E+01  1.985E-01  2.000E+01  2.000E+04 -4.446E-02
   1   17   28     3     7    2.3162E+05 -3.2155E+03   2.3483E+05  0.000E+00  0.000E+00  0.000E+00  3.24217E+01  1.995E-01  2.000E+01  2.000E+04 -1.608E-01
   1   18   29     3     8    2.3483E+05 -4.9562E+03   2.3979E+05  0.000E+00  0.000E+00  0.000E+00  3.15349E+01  2.016E-01  2.000E+01  2.000E+04 -2.478E-01
   1   18   30     3     9    2.3979E+05 -4.6270E+03   2.4442E+05  0.000E+00  0.000E+00  0.000E+00  3.06485E+01  2.040E-01  2.000E+01  2.000E+04 -2.314E-01



1
              HEAD IN LAYER   1 AT END OF TIME STEP   1 IN STRESS PERIOD    2
  ---------------------------------------------------------------------------

          1      2      3      4      5      6      7      8      9     10
         11     12     13     14     15     16     17     18     19     20
         21     22     23     24     25     26     27     28     29     30
 .........................................................................
   1  ****** ****** ****** ****** ****** ****** ****** ****** ****** ******
      ****** ****** ****** ****** ****** ****** ****** ****** ****** ******
      ****** ****** ****** ****** ****** ****** ****** ****** ****** ******
   2  ****** ****** ****** ****** ****** ****** ****** ****** ****** ******
      ****** ****** ****** ****** ****** ****** ****** ****** ****** ******
      ****** ****** ****** ****** ****** ****** ****** ****** ****** ******
   3  ****** ****** ****** ****** ****** ****** ****** ****** ****** ******
      ****** ****** ****** ****** ****** ****** ****** ****** ****** ******
      ****** ****** ****** ****** ****** ****** ****** ****** ****** ******
   4  ****** ****** ****** ****** ****** ****** ****** ****** ****** ******
      ****** ****** ****** ****** ****** ****** ****** ****** ****** ******
      ****** ****** ****** ****** ****** ****** ****** ****** ****** ******
   5  ****** ****** ****** ****** ****** ****** ****** ****** ****** ******
      ****** ****** ****** ****** ****** ****** ****** ****** ****** ******
      ****** ****** ****** ****** ****** ****** ****** ****** ****** ******
   6  ****** ****** ****** ****** ****** ****** ****** ****** ****** ******
      ****** ****** ****** ****** ****** ****** ****** ****** ****** ******
      ****** ****** ****** ****** ****** ****** ****** ****** ****** ******
   7  ****** ****** ****** ****** ****** ****** ****** ****** ****** ******
      ****** ****** ****** ****** ****** ****** ****** ****** ****** ******
      ****** ****** ****** ****** ****** ****** ****** ****** ****** ******
   8  ****** ****** ****** ****** ****** ****** ****** ****** ****** ******
      ****** ****** ****** ****** ****** ****** ****** ****** ****** ******
      ****** ****** ****** ****** ****** ****** ****** ****** ****** ******
   9  ****** ****** ****** ****** ****** ****** ****** ****** ****** ******
      ****** ****** ****** ****** ****** ****** ****** ****** ****** ******
      ****** ****** ****** ****** ****** ****** ****** ****** ****** ******
  10  ****** ****** ****** ****** ****** ****** ****** ****** ****** ******
      ****** ****** ****** ****** ****** ****** ****** ****** ****** ******
      ****** ****** ****** ****** ****** ****** ****** ****** ****** ******
  11  ****** ****** ****** ****** ****** ****** ****** ****** ****** ******
      ****** ****** ****** ****** ****** ****** ****** ****** ****** ******
      ****** ****** ****** ****** ****** ****** ****** ****** ****** ******
  12  ****** ****** ****** ****** ****** ****** ****** ****** ****** ******
      ****** ****** ****** ****** ****** ****** ****** ****** ****** ******
      ****** ****** ****** ****** ****** ****** ****** ****** ****** ******
  13  ****** ****** ****** ****** ****** ****** ****** ****** ****** ******
      ****** ****** ****** ****** ****** ****** ****** ****** ****** ******
      ****** ****** ****** ****** ****** ****** ****** ****** ****** ******
  14  ****** ****** ****** ****** ****** ****** ****** ****** ****** ******
      ****** ****** ****** ****** ****** ****** ****** ****** ****** ******
      ****** ****** ****** ****** ****** ****** ****** ****** ****** ******
  15  ****** ****** ****** ****** ****** ****** ****** ****** ****** ******
      ****** ****** ****** ****** ****** ****** ****** ****** ****** ******
      ****** ****** ****** ****** ****** ****** ****** ****** ****** ******
  16  ****** ****** ****** ****** ****** ****** ****** ****** ****** ******
      ****** ****** ****** ****** ****** ****** ****** ****** ****** ******
      ****** ****** ****** ****** ****** ****** ****** ****** ****** ******
  17  ****** ****** ****** ****** ****** ****** ****** ****** ****** ******
      ****** ****** ****** ****** ****** ****** ****** ****** ****** ******
      ****** ****** ****** ****** ****** ****** ****** ****** ****** ******
  18  ****** ****** ****** ****** ****** ****** ****** ****** ****** ******
      ****** ****** ****** ****** ****** ****** ****** ****** ****** ******
      ****** ****** ****** ****** ****** ****** ****** ****** ****** ******
  19  ****** ****** ****** ****** ****** ****** ****** ****** ****** ******
      ****** ****** ****** ****** ****** ****** ****** ****** ****** ******
      ****** ****** ****** ****** ****** ****** ****** ****** ****** ******
  20  ****** ****** ****** ****** ****** ****** ****** ****** ****** ******
      ****** ****** ****** ****** ****** ****** ****** ****** ****** ******
      ****** ****** ****** ****** ****** ****** ****** ****** ****** ******
  21  ****** ****** ****** ****** ****** ****** ****** ****** ****** ******
      ****** ****** ****** ****** ****** ****** ****** ****** ****** ******
      ****** ****** ****** ****** ****** ****** ****** ****** ****** ******
  22  ****** ****** ****** ****** ****** ****** ****** ****** ****** ******
      ****** ****** ****** ****** ****** ****** ****** ****** ****** ******
      ****** ****** ****** ****** ****** ****** ****** ****** ****** ******
  23  ****** ****** ****** ****** ****** ****** ****** ****** ****** ******
      ****** ****** ****** ****** ****** ****** ****** ****** ****** ******
      ****** ****** ****** ****** ****** ****** ****** ****** ****** ******
  24  ****** ****** ****** ****** ****** ****** ****** ****** ****** ******
      ****** ****** ****** ****** ****** ****** ****** ****** ****** ******
      ****** ****** ****** ****** ****** ****** ****** ****** ****** ******
  25  ****** ****** ****** ****** ****** ****** ****** ****** ****** ******
      ****** ****** ****** ****** ****** ****** ****** ****** ****** ******
      ****** ****** ****** ****** ****** ****** ****** ****** ****** ******

 HEAD WILL BE SAVED ON UNIT   51 AT END OF TIME STEP    1, STRESS PERIOD    2
1
  VOLUMETRIC BUDGET FOR ENTIRE MODEL AT END OF TIME STEP    1, STRESS PERIOD   2
  ------------------------------------------------------------------------------

     CUMULATIVE VOLUMES      L**3       RATES FOR THIS TIME STEP      L**3/T
     ------------------                 ------------------------

           IN:                                      IN:
           ---                                      ---
             STORAGE =    23350540.0416               STORAGE =       56565.2101
       CONSTANT HEAD =     2848519.5770         CONSTANT HEAD =       18081.7747
               WELLS =           0.0000                 WELLS =           0.0000
            RECHARGE =     6292800.0000              RECHARGE =       55200.0000
      STREAM LEAKAGE =      900256.5040        STREAM LEAKAGE =        5817.9665

            TOTAL IN =    33392116.1225              TOTAL IN =      135664.9513

          OUT:                                     OUT:
          ----                                     ----
             STORAGE =           0.0000               STORAGE =           0.0000
       CONSTANT HEAD =           0.0000         CONSTANT HEAD =           0.0000
               WELLS =     6483628.8395                 WELLS =       35429.6658
            RECHARGE =           0.0000              RECHARGE =           0.0000
      STREAM LEAKAGE =    26908488.5748        STREAM LEAKAGE =      100235.2964

           TOTAL OUT =    33392117.4143             TOTAL OUT =      135664.9622

            IN - OUT =          -1.2918              IN - OUT =      -1.0924E-02

 PERCENT DISCREPANCY =          -0.00     PERCENT DISCREPANCY =          -0.00






         TIME SUMMARY AT END OF TIME STEP    1 IN STRESS PERIOD    2
                    SECONDS     MINUTES      HOURS       DAYS        YEARS
                    -----------------------------------------------------------
   TIME STEP LENGTH 7.86240E+06 1.31040E+05  2184.0      91.000     0.24914    
 STRESS PERIOD TIME 7.86240E+06 1.31040E+05  2184.0      91.000     0.24914    
         TOTAL TIME 1.58112E+07 2.63520E+05  4392.0      183.00     0.50103    
1
1
                            STRESS PERIOD NO.    3, LENGTH =   91.00000    
                            -----------------------------------------------

                              NUMBER OF TIME STEPS =     1

                               MULTIPLIER FOR DELT =     1.500

                            INITIAL TIME STEP SIZE =   91.00000    

 WELL NO.  LAYER   ROW   COL   STRESS RATE         
 --------------------------------------------------
      1      1     16     16      -9666.    
      2      1      6     22      -5938.    
      3      1     19     13     -0.1394E+05
      4      1      6     21      -5885.    

      4 WELLS

                 RECHARGE =   0.00000    

 REUSING STREAM SEGMENT DATA FROM LAST STRESS PERIOD
 
 SOLVING FOR HEAD 


     7 CALLS TO PCG ROUTINE FOR TIME STEP   1 IN STRESS PERIOD    3
    27 TOTAL ITERATIONS

 OUTPUT CONTROL FOR STRESS PERIOD    3   TIME STEP    1
    SAVE BUDGET
    SAVE HEAD FOR ALL LAYERS
    PRINT HEAD FOR ALL LAYERS
 UBDSV2 SAVING "STREAMFLOW OUT  " ON UNIT  50 AT TIME STEP  1, STRESS PERIOD   3



 STREAM LISTING     PERIOD      3   STEP        1

 LAYER ROW COL. STREAM  RCH.  FLOW INTO     FLOW TO   FLOW OUT OF   OVRLND.     DIRECT     STREAM       STREAM     STREAM     STREAM   STREAMBED  STREAMBED
                SEG.NO.  NO.  STRM. RCH.    AQUIFER    STRM. RCH.    RUNOFF     PRECIP       ET          HEAD       DEPTH      WIDTH   CONDCTNC.   GRADIENT

   1   13    1     1     1    1.0000E+05 -2.6996E+03   1.0270E+05  0.000E+00  0.000E+00  0.000E+00  4.84072E+01  1.458E-01  2.000E+01  2.000E+04 -1.350E-01
   1   13    2     1     2    1.0270E+05 -3.8112E+03   1.0651E+05  0.000E+00  0.000E+00  0.000E+00  4.79327E+01  1.486E-01  2.000E+01  2.000E+04 -1.906E-01
   1   14    3     1     3    1.0651E+05 -6.3554E+02   1.0715E+05  0.000E+00  0.000E+00  0.000E+00  4.74573E+01  1.505E-01  2.000E+01  2.000E+04 -3.178E-02
   1   15    4     1     4    1.0715E+05 -6.0291E+02   1.0775E+05  0.000E+00  0.000E+00  0.000E+00  4.69806E+01  1.510E-01  2.000E+01  2.000E+04 -3.015E-02
   1   16    5     1     5    1.0775E+05 -2.0872E+03   1.0984E+05  0.000E+00  0.000E+00  0.000E+00  4.65044E+01  1.522E-01  2.000E+01  2.000E+04 -1.044E-01
   1   16    6     1     6    1.0984E+05 -1.2173E+03   1.1105E+05  0.000E+00  0.000E+00  0.000E+00  4.60285E+01  1.535E-01  2.000E+01  2.000E+04 -6.086E-02
   1   16    7     1     7    1.1105E+05 -1.1043E+03   1.1216E+05  0.000E+00  0.000E+00  0.000E+00  4.55522E+01  1.545E-01  2.000E+01  2.000E+04 -5.522E-02
   1   16    8     1     8    1.1216E+05 -9.6985E+02   1.1313E+05  0.000E+00  0.000E+00  0.000E+00  4.50758E+01  1.554E-01  2.000E+01  2.000E+04 -4.849E-02
   1   16    9     1     9    1.1313E+05 -7.6929E+02   1.1390E+05  0.000E+00  0.000E+00  0.000E+00  4.45993E+01  1.561E-01  2.000E+01  2.000E+04 -3.846E-02
   1   16   10     1    10    1.1390E+05 -4.6892E+02   1.1437E+05  0.000E+00  0.000E+00  0.000E+00  4.41225E+01  1.566E-01  2.000E+01  2.000E+04 -2.345E-02
   1   16   11     1    11    1.1437E+05 -2.6149E+01   1.1439E+05  0.000E+00  0.000E+00  0.000E+00  4.36454E+01  1.568E-01  2.000E+01  2.000E+04 -1.307E-03
   1   16   12     1    12    1.1439E+05  6.8019E+02   1.1371E+05  0.000E+00  0.000E+00  0.000E+00  4.31679E+01  1.565E-01  2.000E+01  2.000E+04  3.401E-02
   1   15   13     1    13    1.1371E+05  6.9878E+00   1.1371E+05  0.000E+00  0.000E+00  0.000E+00  4.26903E+01  1.562E-01  2.000E+01  2.000E+04  3.494E-04
   1   14   14     1    14    1.1371E+05 -7.2058E+02   1.1443E+05  0.000E+00  0.000E+00  0.000E+00  4.22134E+01  1.565E-01  2.000E+01  2.000E+04 -3.603E-02
   1   13   15     1    15    1.1443E+05 -1.6226E+03   1.1605E+05  0.000E+00  0.000E+00  0.000E+00  4.17370E+01  1.575E-01  2.000E+01  2.000E+04 -8.113E-02
   1   12   16     1    16    1.1605E+05 -3.1030E+03   1.1915E+05  0.000E+00  0.000E+00  0.000E+00  4.12617E+01  1.594E-01  2.000E+01  2.000E+04 -1.552E-01
   1   12   17     1    17    1.1915E+05 -1.6315E+03   1.2078E+05  0.000E+00  0.000E+00  0.000E+00  4.07863E+01  1.613E-01  2.000E+01  2.000E+04 -8.158E-02
   1   12   18     1    18    1.2078E+05 -1.5056E+03   1.2229E+05  0.000E+00  0.000E+00  0.000E+00  4.03103E+01  1.626E-01  2.000E+01  2.000E+04 -7.528E-02
   1   12   19     1    19    1.2229E+05 -2.0239E+03   1.2431E+05  0.000E+00  0.000E+00  0.000E+00  3.98345E+01  1.640E-01  2.000E+01  2.000E+04 -1.012E-01
   1   13   20     1    20    1.2431E+05 -1.1972E+03   1.2551E+05  0.000E+00  0.000E+00  0.000E+00  3.93585E+01  1.653E-01  2.000E+01  2.000E+04 -5.986E-02
   1   14   21     1    21    1.2551E+05 -1.1551E+03   1.2666E+05  0.000E+00  0.000E+00  0.000E+00  3.88821E+01  1.662E-01  2.000E+01  2.000E+04 -5.776E-02
   1   14   22     1    22    1.2666E+05  4.8787E+03   1.2179E+05  0.000E+00  0.000E+00  0.000E+00  3.84034E+01  1.648E-01  2.000E+01  2.000E+04  2.439E-01
   1    9   30     2     1    5.0000E+04 -6.8507E+02   5.0685E+04  0.000E+00  0.000E+00  0.000E+00  4.02413E+01  1.163E-01  2.000E+01  2.000E+04 -3.425E-02
   1    9   29     2     2    5.0685E+04 -9.6098E+02   5.1646E+04  0.000E+00  0.000E+00  0.000E+00  3.99925E+01  1.175E-01  2.000E+01  2.000E+04 -4.805E-02
   1    9   28     2     3    5.1646E+04 -1.1605E+03   5.2807E+04  0.000E+00  0.000E+00  0.000E+00  3.97439E+01  1.189E-01  2.000E+01  2.000E+04 -5.803E-02
   1    9   27     2     4    5.2807E+04 -2.1839E+03   5.4990E+04  0.000E+00  0.000E+00  0.000E+00  3.94962E+01  1.212E-01  2.000E+01  2.000E+04 -1.092E-01
   1   10   26     2     5    5.4990E+04 -1.3226E+03   5.6313E+04  0.000E+00  0.000E+00  0.000E+00  3.92486E+01  1.236E-01  2.000E+01  2.000E+04 -6.613E-02
   1   11   25     2     6    5.6313E+04 -1.1361E+03   5.7449E+04  0.000E+00  0.000E+00  0.000E+00  3.90002E+01  1.252E-01  2.000E+01  2.000E+04 -5.680E-02
   1   12   24     2     7    5.7449E+04 -1.2475E+03   5.8697E+04  0.000E+00  0.000E+00  0.000E+00  3.87518E+01  1.268E-01  2.000E+01  2.000E+04 -6.238E-02
   1   13   23     2     8    5.8697E+04 -1.8832E+02   5.8885E+04  0.000E+00  0.000E+00  0.000E+00  3.85027E+01  1.277E-01  2.000E+01  2.000E+04 -9.416E-03
   1   14   22     2     9    5.8885E+04  1.8429E+03   5.7042E+04  0.000E+00  0.000E+00  0.000E+00  3.82516E+01  1.266E-01  2.000E+01  2.000E+04  9.215E-02
   1   14   22     3     1    1.7883E+05 -8.6267E+03   1.8745E+05  0.000E+00  0.000E+00  0.000E+00  3.77281E+01  1.726E-01  2.000E+01  2.000E+04 -4.313E-01
   1   15   23     3     2    1.8745E+05 -5.2295E+02   1.8798E+05  0.000E+00  0.000E+00  0.000E+00  3.68418E+01  1.751E-01  2.000E+01  2.000E+04 -2.615E-02
   1   15   24     3     3    1.8798E+05 -3.1377E+02   1.8829E+05  0.000E+00  0.000E+00  0.000E+00  3.59532E+01  1.754E-01  2.000E+01  2.000E+04 -1.569E-02
   1   15   25     3     4    1.8829E+05 -3.1670E+02   1.8861E+05  0.000E+00  0.000E+00  0.000E+00  3.50644E+01  1.756E-01  2.000E+01  2.000E+04 -1.584E-02
   1   15   26     3     5    1.8861E+05 -3.6162E+02   1.8897E+05  0.000E+00  0.000E+00  0.000E+00  3.41757E+01  1.757E-01  2.000E+01  2.000E+04 -1.808E-02
   1   16   27     3     6    1.8897E+05 -4.1949E+02   1.8939E+05  0.000E+00  0.000E+00  0.000E+00  3.32871E+01  1.760E-01  2.000E+01  2.000E+04 -2.097E-02
   1   17   28     3     7    1.8939E+05 -1.7855E+03   1.9117E+05  0.000E+00  0.000E+00  0.000E+00  3.23988E+01  1.766E-01  2.000E+01  2.000E+04 -8.928E-02
   1   18   29     3     8    1.9117E+05 -3.3970E+03   1.9457E+05  0.000E+00  0.000E+00  0.000E+00  3.15114E+01  1.780E-01  2.000E+01  2.000E+04 -1.698E-01
   1   18   30     3     9    1.9457E+05 -3.4657E+03   1.9804E+05  0.000E+00  0.000E+00  0.000E+00  3.06244E+01  1.799E-01  2.000E+01  2.000E+04 -1.733E-01



1
              HEAD IN LAYER   1 AT END OF TIME STEP   1 IN STRESS PERIOD    3
  ---------------------------------------------------------------------------

          1      2      3      4      5      6      7      8      9     10
         11     12     13     14     15     16     17     18     19     20
         21     22     23     24     25     26     27     28     29     30
 .........................................................................
   1  ****** ****** ****** ****** ****** ****** ****** ****** ****** ******
      ****** ****** ****** ****** ****** ****** ****** ****** ****** ******
      ****** ****** ****** ****** ****** ****** ****** ****** ****** ******
   2  ****** ****** ****** ****** ****** ****** ****** ****** ****** ******
      ****** ****** ****** ****** ****** ****** ****** ****** ****** ******
      ****** ****** ****** ****** ****** ****** ****** ****** ****** ******
   3  ****** ****** ****** ****** ****** ****** ****** ****** ****** ******
      ****** ****** ****** ****** ****** ****** ****** ****** ****** ******
      ****** ****** ****** ****** ****** ****** ****** ****** ****** ******
   4  ****** ****** ****** ****** ****** ****** ****** ****** ****** ******
      ****** ****** ****** ****** ****** ****** ****** ****** ****** ******
      ****** ****** ****** ****** ****** ****** ****** ****** ****** ******
   5  ****** ****** ****** ****** ****** ****** ****** ****** ****** ******
      ****** ****** ****** ****** ****** ****** ****** ****** ****** ******
      ****** ****** ****** ****** ****** ****** ****** ****** ****** ******
   6  ****** ****** ****** ****** ****** ****** ****** ****** ****** ******
      ****** ****** ****** ****** ****** ****** ****** ****** ****** ******
      ****** ****** ****** ****** ****** ****** ****** ****** ****** ******
   7  ****** ****** ****** ****** ****** ****** ****** ****** ****** ******
      ****** ****** ****** ****** ****** ****** ****** ****** ****** ******
      ****** ****** ****** ****** ****** ****** ****** ****** ****** ******
   8  ****** ****** ****** ****** ****** ****** ****** ****** ****** ******
      ****** ****** ****** ****** ****** ****** ****** ****** ****** ******
      ****** ****** ****** ****** ****** ****** ****** ****** ****** ******
   9  ****** ****** ****** ****** ****** ****** ****** ****** ****** ******
      ****** ****** ****** ****** ****** ****** ****** ****** ****** ******
      ****** ****** ****** ****** ****** ****** ****** ****** ****** ******
  10  ****** ****** ****** ****** ****** ****** ****** ****** ****** ******
      ****** ****** ****** ****** ****** ****** ****** ****** ****** ******
      ****** ****** ****** ****** ****** ****** ****** ****** ****** ******
  11  ****** ****** ****** ****** ****** ****** ****** ****** ****** ******
      ****** ****** ****** ****** ****** ****** ****** ****** ****** ******
      ****** ****** ****** ****** ****** ****** ****** ****** ****** ******
  12  ****** ****** ****** ****** ****** ****** ****** ****** ****** ******
      ****** ****** ****** ****** ****** ****** ****** ****** ****** ******
      ****** ****** ****** ****** ****** ****** ****** ****** ****** ******
  13  ****** ****** ****** ****** ****** ****** ****** ****** ****** ******
      ****** ****** ****** ****** ****** ****** ****** ****** ****** ******
      ****** ****** ****** ****** ****** ****** ****** ****** ****** ******
  14  ****** ****** ****** ****** ****** ****** ****** ****** ****** ******
      ****** ****** ****** ****** ****** ****** ****** ****** ****** ******
      ****** ****** ****** ****** ****** ****** ****** ****** ****** ******
  15  ****** ****** ****** ****** ****** ****** ****** ****** ****** ******
      ****** ****** ****** ****** ****** ****** ****** ****** ****** ******
      ****** ****** ****** ****** ****** ****** ****** ****** ****** ******
  16  ****** ****** ****** ****** ****** ****** ****** ****** ****** ******
      ****** ****** ****** ****** ****** ****** ****** ****** ****** ******
      ****** ****** ****** ****** ****** ****** ****** ****** ****** ******
  17  ****** ****** ****** ****** ****** ****** ****** ****** ****** ******
      ****** ****** ****** ****** ****** ****** ****** ****** ****** ******
      ****** ****** ****** ****** ****** ****** ****** ****** ****** ******
  18  ****** ****** ****** ****** ****** ****** ****** ****** ****** ******
      ****** ****** ****** ****** ****** ****** ****** ****** ****** ******
      ****** ****** ****** ****** ****** ****** ****** ****** ****** ******
  19  ****** ****** ****** ****** ****** ****** ****** ****** ****** ******
      ****** ****** ****** ****** ****** ****** ****** ****** ****** ******
      ****** ****** ****** ****** ****** ****** ****** ****** ****** ******
  20  ****** ****** ****** ****** ****** ****** ****** ****** ****** ******
      ****** ****** ****** ****** ****** ****** ****** ****** ****** ******
      ****** ****** ****** ****** ****** ****** ****** ****** ****** ******
  21  ****** ****** ****** ****** ****** ****** ****** ****** ****** ******
      ****** ****** ****** ****** ****** ****** ****** ****** ****** ******
      ****** ****** ****** ****** ****** ****** ****** ****** ****** ******
  22  ****** ****** ****** ****** ****** ****** ****** ****** ****** ******
      ****** ****** ****** ****** ****** ****** ****** ****** ****** ******
      ****** ****** ****** ****** ****** ****** ****** ****** ****** ******
  23  ****** ****** ****** ****** ****** ****** ****** ****** ****** ******
      ****** ****** ****** ****** ****** ****** ****** ****** ****** ******
      ****** ****** ****** ****** ****** ****** ****** ****** ****** ******
  24  ****** ****** ****** ****** ****** ****** ****** ****** ****** ******
      ****** ****** ****** ****** ****** ****** ****** ****** ****** ******
      ****** ****** ****** ****** ****** ****** ****** ****** ****** ******
  25  ****** ****** ****** ****** ****** ****** ****** ****** ****** ******
      ****** ****** ****** ****** ****** ****** ****** ****** ****** ******
      ****** ****** ****** ****** ****** ****** ****** ****** ****** ******

 HEAD WILL BE SAVED ON UNIT   51 AT END OF TIME STEP    1, STRESS PERIOD    3
1
  VOLUMETRIC BUDGET FOR ENTIRE MODEL AT END OF TIME STEP    1, STRESS PERIOD   3
  ------------------------------------------------------------------------------

     CUMULATIVE VOLUMES      L**3       RATES FOR THIS TIME STEP      L**3/T
     ------------------                 ------------------------

           IN:                                      IN:
           ---                                      ---
             STORAGE =    28493323.9514               STORAGE =       56514.1089
       CONSTANT HEAD =     5301245.7397         CONSTANT HEAD =       26953.0348
               WELLS =           0.0000                 WELLS =           0.0000
            RECHARGE =     6292800.0000              RECHARGE =           0.0000
      STREAM LEAKAGE =     1574455.0299        STREAM LEAKAGE =        7408.7750

            TOTAL IN =    41661824.7209              TOTAL IN =       90875.9187

          OUT:                                     OUT:
          ----                                     ----
             STORAGE =           0.0000               STORAGE =           0.0000
       CONSTANT HEAD =           0.0000         CONSTANT HEAD =           0.0000
               WELLS =     9707728.4264                 WELLS =       35429.6658
            RECHARGE =           0.0000              RECHARGE =           0.0000
      STREAM LEAKAGE =    31954098.3144        STREAM LEAKAGE =       55446.2609

           TOTAL OUT =    41661826.7408             TOTAL OUT =       90875.9267

            IN - OUT =          -2.0199              IN - OUT =      -8.0012E-03

 PERCENT DISCREPANCY =          -0.00     PERCENT DISCREPANCY =          -0.00






         TIME SUMMARY AT END OF TIME STEP    1 IN STRESS PERIOD    3
                    SECONDS     MINUTES      HOURS       DAYS        YEARS
                    -----------------------------------------------------------
   TIME STEP LENGTH 7.86240E+06 1.31040E+05  2184.0      91.000     0.24914    
 STRESS PERIOD TIME 7.86240E+06 1.31040E+05  2184.0      91.000     0.24914    
         TOTAL TIME 2.36736E+07 3.94560E+05  6576.0      274.00     0.75017    
1
1
                            STRESS PERIOD NO.    4, LENGTH =   91.00000    
                            -----------------------------------------------

                              NUMBER OF TIME STEPS =     1

                               MULTIPLIER FOR DELT =     1.500

                            INITIAL TIME STEP SIZE =   91.00000    

 WELL NO.  LAYER   ROW   COL   STRESS RATE         
 --------------------------------------------------
      1      1     16     16      -9666.    
      2      1      6     22      -5938.    
      3      1     19     13     -0.1394E+05
      4      1      6     21      -5885.    

      4 WELLS

                 RECHARGE =  1.000000E-03

 REUSING STREAM SEGMENT DATA FROM LAST STRESS PERIOD
 
 SOLVING FOR HEAD 


     6 CALLS TO PCG ROUTINE FOR TIME STEP   1 IN STRESS PERIOD    4
    23 TOTAL ITERATIONS

 OUTPUT CONTROL FOR STRESS PERIOD    4   TIME STEP    1
    SAVE BUDGET
    SAVE HEAD FOR ALL LAYERS
    PRINT HEAD FOR ALL LAYERS
 UBDSV2 SAVING "STREAMFLOW OUT  " ON UNIT  50 AT TIME STEP  1, STRESS PERIOD   4



 STREAM LISTING     PERIOD      4   STEP        1

 LAYER ROW COL. STREAM  RCH.  FLOW INTO     FLOW TO   FLOW OUT OF   OVRLND.     DIRECT     STREAM       STREAM     STREAM     STREAM   STREAMBED  STREAMBED
                SEG.NO.  NO.  STRM. RCH.    AQUIFER    STRM. RCH.    RUNOFF     PRECIP       ET          HEAD       DEPTH      WIDTH   CONDCTNC.   GRADIENT

   1   13    1     1     1    1.0000E+05 -2.4560E+03   1.0246E+05  0.000E+00  0.000E+00  0.000E+00  4.84071E+01  1.457E-01  2.000E+01  2.000E+04 -1.228E-01
   1   13    2     1     2    1.0246E+05 -3.5304E+03   1.0599E+05  0.000E+00  0.000E+00  0.000E+00  4.79324E+01  1.483E-01  2.000E+01  2.000E+04 -1.765E-01
   1   14    3     1     3    1.0599E+05 -6.0380E+02   1.0659E+05  0.000E+00  0.000E+00  0.000E+00  4.74569E+01  1.500E-01  2.000E+01  2.000E+04 -3.019E-02
   1   15    4     1     4    1.0659E+05 -5.5914E+02   1.0715E+05  0.000E+00  0.000E+00  0.000E+00  4.69801E+01  1.505E-01  2.000E+01  2.000E+04 -2.796E-02
   1   16    5     1     5    1.0715E+05 -1.7375E+03   1.0889E+05  0.000E+00  0.000E+00  0.000E+00  4.65038E+01  1.515E-01  2.000E+01  2.000E+04 -8.688E-02
   1   16    6     1     6    1.0889E+05 -1.0415E+03   1.0993E+05  0.000E+00  0.000E+00  0.000E+00  4.60277E+01  1.527E-01  2.000E+01  2.000E+04 -5.208E-02
   1   16    7     1     7    1.0993E+05 -9.3934E+02   1.1087E+05  0.000E+00  0.000E+00  0.000E+00  4.55512E+01  1.535E-01  2.000E+01  2.000E+04 -4.697E-02
   1   16    8     1     8    1.1087E+05 -8.0684E+02   1.1167E+05  0.000E+00  0.000E+00  0.000E+00  4.50747E+01  1.542E-01  2.000E+01  2.000E+04 -4.034E-02
   1   16    9     1     9    1.1167E+05 -6.0593E+02   1.1228E+05  0.000E+00  0.000E+00  0.000E+00  4.45980E+01  1.548E-01  2.000E+01  2.000E+04 -3.030E-02
   1   16   10     1    10    1.1228E+05 -3.0490E+02   1.1259E+05  0.000E+00  0.000E+00  0.000E+00  4.41211E+01  1.552E-01  2.000E+01  2.000E+04 -1.524E-02
   1   16   11     1    11    1.1259E+05  1.4401E+02   1.1244E+05  0.000E+00  0.000E+00  0.000E+00  4.36439E+01  1.553E-01  2.000E+01  2.000E+04  7.201E-03
   1   16   12     1    12    1.1244E+05  1.0262E+03   1.1142E+05  0.000E+00  0.000E+00  0.000E+00  4.31661E+01  1.548E-01  2.000E+01  2.000E+04  5.131E-02
   1   15   13     1    13    1.1142E+05  3.1034E+02   1.1110E+05  0.000E+00  0.000E+00  0.000E+00  4.26883E+01  1.542E-01  2.000E+01  2.000E+04  1.552E-02
   1   14   14     1    14    1.1110E+05 -4.0569E+02   1.1151E+05  0.000E+00  0.000E+00  0.000E+00  4.22111E+01  1.543E-01  2.000E+01  2.000E+04 -2.028E-02
   1   13   15     1    15    1.1151E+05 -1.2912E+03   1.1280E+05  0.000E+00  0.000E+00  0.000E+00  4.17345E+01  1.550E-01  2.000E+01  2.000E+04 -6.456E-02
   1   12   16     1    16    1.1280E+05 -2.6822E+03   1.1548E+05  0.000E+00  0.000E+00  0.000E+00  4.12589E+01  1.566E-01  2.000E+01  2.000E+04 -1.341E-01
   1   12   17     1    17    1.1548E+05 -1.3679E+03   1.1685E+05  0.000E+00  0.000E+00  0.000E+00  4.07833E+01  1.583E-01  2.000E+01  2.000E+04 -6.839E-02
   1   12   18     1    18    1.1685E+05 -1.2566E+03   1.1811E+05  0.000E+00  0.000E+00  0.000E+00  4.03071E+01  1.593E-01  2.000E+01  2.000E+04 -6.283E-02
   1   12   19     1    19    1.1811E+05 -1.7149E+03   1.1982E+05  0.000E+00  0.000E+00  0.000E+00  3.98310E+01  1.605E-01  2.000E+01  2.000E+04 -8.575E-02
   1   13   20     1    20    1.1982E+05 -9.8101E+02   1.2080E+05  0.000E+00  0.000E+00  0.000E+00  3.93548E+01  1.616E-01  2.000E+01  2.000E+04 -4.905E-02
   1   14   21     1    21    1.2080E+05 -8.6696E+02   1.2167E+05  0.000E+00  0.000E+00  0.000E+00  3.88783E+01  1.624E-01  2.000E+01  2.000E+04 -4.335E-02
   1   14   22     1    22    1.2167E+05  4.9228E+03   1.1675E+05  0.000E+00  0.000E+00  0.000E+00  3.83994E+01  1.607E-01  2.000E+01  2.000E+04  2.461E-01
   1    9   30     2     1    5.0000E+04 -5.7653E+02   5.0577E+04  0.000E+00  0.000E+00  0.000E+00  4.02413E+01  1.163E-01  2.000E+01  2.000E+04 -2.883E-02
   1    9   29     2     2    5.0577E+04 -8.4421E+02   5.1421E+04  0.000E+00  0.000E+00  0.000E+00  3.99922E+01  1.172E-01  2.000E+01  2.000E+04 -4.221E-02
   1    9   28     2     3    5.1421E+04 -1.0203E+03   5.2441E+04  0.000E+00  0.000E+00  0.000E+00  3.97435E+01  1.185E-01  2.000E+01  2.000E+04 -5.101E-02
   1    9   27     2     4    5.2441E+04 -1.8704E+03   5.4311E+04  0.000E+00  0.000E+00  0.000E+00  3.94955E+01  1.205E-01  2.000E+01  2.000E+04 -9.352E-02
   1   10   26     2     5    5.4311E+04 -1.1328E+03   5.5444E+04  0.000E+00  0.000E+00  0.000E+00  3.92475E+01  1.225E-01  2.000E+01  2.000E+04 -5.664E-02
   1   11   25     2     6    5.5444E+04 -9.9196E+02   5.6436E+04  0.000E+00  0.000E+00  0.000E+00  3.89989E+01  1.239E-01  2.000E+01  2.000E+04 -4.960E-02
   1   12   24     2     7    5.6436E+04 -1.1233E+03   5.7560E+04  0.000E+00  0.000E+00  0.000E+00  3.87503E+01  1.253E-01  2.000E+01  2.000E+04 -5.616E-02
   1   13   23     2     8    5.7560E+04 -2.0999E+02   5.7769E+04  0.000E+00  0.000E+00  0.000E+00  3.85012E+01  1.262E-01  2.000E+01  2.000E+04 -1.050E-02
   1   14   22     2     9    5.7769E+04  1.9370E+03   5.5833E+04  0.000E+00  0.000E+00  0.000E+00  3.82501E+01  1.251E-01  2.000E+01  2.000E+04  9.685E-02
   1   14   22     3     1    1.7258E+05 -8.5735E+03   1.8115E+05  0.000E+00  0.000E+00  0.000E+00  3.77246E+01  1.690E-01  2.000E+01  2.000E+04 -4.287E-01
   1   15   23     3     2    1.8115E+05 -4.8822E+02   1.8164E+05  0.000E+00  0.000E+00  0.000E+00  3.68383E+01  1.716E-01  2.000E+01  2.000E+04 -2.441E-02
   1   15   24     3     3    1.8164E+05 -3.0906E+02   1.8195E+05  0.000E+00  0.000E+00  0.000E+00  3.59496E+01  1.718E-01  2.000E+01  2.000E+04 -1.545E-02
   1   15   25     3     4    1.8195E+05 -3.1315E+02   1.8226E+05  0.000E+00  0.000E+00  0.000E+00  3.50609E+01  1.720E-01  2.000E+01  2.000E+04 -1.566E-02
   1   15   26     3     5    1.8226E+05 -3.6915E+02   1.8263E+05  0.000E+00  0.000E+00  0.000E+00  3.41722E+01  1.722E-01  2.000E+01  2.000E+04 -1.846E-02
   1   16   27     3     6    1.8263E+05 -4.1695E+02   1.8305E+05  0.000E+00  0.000E+00  0.000E+00  3.32835E+01  1.724E-01  2.000E+01  2.000E+04 -2.085E-02
   1   17   28     3     7    1.8305E+05 -1.7104E+03   1.8476E+05  0.000E+00  0.000E+00  0.000E+00  3.23952E+01  1.730E-01  2.000E+01  2.000E+04 -8.552E-02
   1   18   29     3     8    1.8476E+05 -3.1534E+03   1.8791E+05  0.000E+00  0.000E+00  0.000E+00  3.15077E+01  1.744E-01  2.000E+01  2.000E+04 -1.577E-01
   1   18   30     3     9    1.8791E+05 -3.3423E+03   1.9126E+05  0.000E+00  0.000E+00  0.000E+00  3.06206E+01  1.762E-01  2.000E+01  2.000E+04 -1.671E-01



1
              HEAD IN LAYER   1 AT END OF TIME STEP   1 IN STRESS PERIOD    4
  ---------------------------------------------------------------------------

          1      2      3      4      5      6      7      8      9     10
         11     12     13     14     15     16     17     18     19     20
         21     22     23     24     25     26     27     28     29     30
 .........................................................................
   1  ****** ****** ****** ****** ****** ****** ****** ****** ****** ******
      ****** ****** ****** ****** ****** ****** ****** ****** ****** ******
      ****** ****** ****** ****** ****** ****** ****** ****** ****** ******
   2  ****** ****** ****** ****** ****** ****** ****** ****** ****** ******
      ****** ****** ****** ****** ****** ****** ****** ****** ****** ******
      ****** ****** ****** ****** ****** ****** ****** ****** ****** ******
   3  ****** ****** ****** ****** ****** ****** ****** ****** ****** ******
      ****** ****** ****** ****** ****** ****** ****** ****** ****** ******
      ****** ****** ****** ****** ****** ****** ****** ****** ****** ******
   4  ****** ****** ****** ****** ****** ****** ****** ****** ****** ******
      ****** ****** ****** ****** ****** ****** ****** ****** ****** ******
      ****** ****** ****** ****** ****** ****** ****** ****** ****** ******
   5  ****** ****** ****** ****** ****** ****** ****** ****** ****** ******
      ****** ****** ****** ****** ****** ****** ****** ****** ****** ******
      ****** ****** ****** ****** ****** ****** ****** ****** ****** ******
   6  ****** ****** ****** ****** ****** ****** ****** ****** ****** ******
      ****** ****** ****** ****** ****** ****** ****** ****** ****** ******
      ****** ****** ****** ****** ****** ****** ****** ****** ****** ******
   7  ****** ****** ****** ****** ****** ****** ****** ****** ****** ******
      ****** ****** ****** ****** ****** ****** ****** ****** ****** ******
      ****** ****** ****** ****** ****** ****** ****** ****** ****** ******
   8  ****** ****** ****** ****** ****** ****** ****** ****** ****** ******
      ****** ****** ****** ****** ****** ****** ****** ****** ****** ******
      ****** ****** ****** ****** ****** ****** ****** ****** ****** ******
   9  ****** ****** ****** ****** ****** ****** ****** ****** ****** ******
      ****** ****** ****** ****** ****** ****** ****** ****** ****** ******
      ****** ****** ****** ****** ****** ****** ****** ****** ****** ******
  10  ****** ****** ****** ****** ****** ****** ****** ****** ****** ******
      ****** ****** ****** ****** ****** ****** ****** ****** ****** ******
      ****** ****** ****** ****** ****** ****** ****** ****** ****** ******
  11  ****** ****** ****** ****** ****** ****** ****** ****** ****** ******
      ****** ****** ****** ****** ****** ****** ****** ****** ****** ******
      ****** ****** ****** ****** ****** ****** ****** ****** ****** ******
  12  ****** ****** ****** ****** ****** ****** ****** ****** ****** ******
      ****** ****** ****** ****** ****** ****** ****** ****** ****** ******
      ****** ****** ****** ****** ****** ****** ****** ****** ****** ******
  13  ****** ****** ****** ****** ****** ****** ****** ****** ****** ******
      ****** ****** ****** ****** ****** ****** ****** ****** ****** ******
      ****** ****** ****** ****** ****** ****** ****** ****** ****** ******
  14  ****** ****** ****** ****** ****** ****** ****** ****** ****** ******
      ****** ****** ****** ****** ****** ****** ****** ****** ****** ******
      ****** ****** ****** ****** ****** ****** ****** ****** ****** ******
  15  ****** ****** ****** ****** ****** ****** ****** ****** ****** ******
      ****** ****** ****** ****** ****** ****** ****** ****** ****** ******
      ****** ****** ****** ****** ****** ****** ****** ****** ****** ******
  16  ****** ****** ****** ****** ****** ****** ****** ****** ****** ******
      ****** ****** ****** ****** ****** ****** ****** ****** ****** ******
      ****** ****** ****** ****** ****** ****** ****** ****** ****** ******
  17  ****** ****** ****** ****** ****** ****** ****** ****** ****** ******
      ****** ****** ****** ****** ****** ****** ****** ****** ****** ******
      ****** ****** ****** ****** ****** ****** ****** ****** ****** ******
  18  ****** ****** ****** ****** ****** ****** ****** ****** ****** ******
      ****** ****** ****** ****** ****** ****** ****** ****** ****** ******
      ****** ****** ****** ****** ****** ****** ****** ****** ****** ******
  19  ****** ****** ****** ****** ****** ****** ****** ****** ****** ******
      ****** ****** ****** ****** ****** ****** ****** ****** ****** ******
      ****** ****** ****** ****** ****** ****** ****** ****** ****** ******
  20  ****** ****** ****** ****** ****** ****** ****** ****** ****** ******
      ****** ****** ****** ****** ****** ****** ****** ****** ****** ******
      ****** ****** ****** ****** ****** ****** ****** ****** ****** ******
  21  ****** ****** ****** ****** ****** ****** ****** ****** ****** ******
      ****** ****** ****** ****** ****** ****** ****** ****** ****** ******
      ****** ****** ****** ****** ****** ****** ****** ****** ****** ******
  22  ****** ****** ****** ****** ****** ****** ****** ****** ****** ******
      ****** ****** ****** ****** ****** ****** ****** ****** ****** ******
      ****** ****** ****** ****** ****** ****** ****** ****** ****** ******
  23  ****** ****** ****** ****** ****** ****** ****** ****** ****** ******
      ****** ****** ****** ****** ****** ****** ****** ****** ****** ******
      ****** ****** ****** ****** ****** ****** ****** ****** ****** ******
  24  ****** ****** ****** ****** ****** ****** ****** ****** ****** ******
      ****** ****** ****** ****** ****** ****** ****** ****** ****** ******
      ****** ****** ****** ****** ****** ****** ****** ****** ****** ******
  25  ****** ****** ****** ****** ****** ****** ****** ****** ****** ******
      ****** ****** ****** ****** ****** ****** ****** ****** ****** ******
      ****** ****** ****** ****** ****** ****** ****** ****** ****** ******

 HEAD WILL BE SAVED ON UNIT   51 AT END OF TIME STEP    1, STRESS PERIOD    4
1
  VOLUMETRIC BUDGET FOR ENTIRE MODEL AT END OF TIME STEP    1, STRESS PERIOD   4
  ------------------------------------------------------------------------------

     CUMULATIVE VOLUMES      L**3       RATES FOR THIS TIME STEP      L**3/T
     ------------------                 ------------------------

           IN:                                      IN:
           ---                                      ---
             STORAGE =    30254729.3465               STORAGE =       19356.1032
       CONSTANT HEAD =     8007898.0092         CONSTANT HEAD =       29743.4315
               WELLS =           0.0000                 WELLS =           0.0000
            RECHARGE =     8804400.0000              RECHARGE =       27600.0000
      STREAM LEAKAGE =     2333426.8176        STREAM LEAKAGE =        8340.3493

            TOTAL IN =    49400454.1732              TOTAL IN =       85039.8841

          OUT:                                     OUT:
          ----                                     ----
             STORAGE =        1156.5423               STORAGE =          12.7093
       CONSTANT HEAD =           0.0000         CONSTANT HEAD =           0.0000
               WELLS =    12931828.0132                 WELLS =       35429.6658
            RECHARGE =           0.0000              RECHARGE =           0.0000
      STREAM LEAKAGE =    36467471.7218        STREAM LEAKAGE =       49597.5100

           TOTAL OUT =    49400456.2773             TOTAL OUT =       85039.8850

            IN - OUT =          -2.1041              IN - OUT =      -9.2566E-04

 PERCENT DISCREPANCY =          -0.00     PERCENT DISCREPANCY =          -0.00






         TIME SUMMARY AT END OF TIME STEP    1 IN STRESS PERIOD    4
                    SECONDS     MINUTES      HOURS       DAYS        YEARS
                    -----------------------------------------------------------
   TIME STEP LENGTH 7.86240E+06 1.31040E+05  2184.0      91.000     0.24914    
 STRESS PERIOD TIME 7.86240E+06 1.31040E+05  2184.0      91.000     0.24914    
         TOTAL TIME 3.15360E+07 5.25600E+05  8760.0      365.00     0.99932    
1
1
                            STRESS PERIOD NO.    5, LENGTH =   92.00000    
                            -----------------------------------------------

                              NUMBER OF TIME STEPS =     1

                               MULTIPLIER FOR DELT =     1.500

                            INITIAL TIME STEP SIZE =   92.00000    

 WELL NO.  LAYER   ROW   COL   STRESS RATE         
 --------------------------------------------------
      1      1     16     16      -9666.    
      2      1      6     22      -5938.    
      3      1     19     13     -0.1394E+05
      4      1      6     21      -5885.    

      4 WELLS

                 RECHARGE =  5.000000E-04

 REUSING STREAM SEGMENT DATA FROM LAST STRESS PERIOD
 
 SOLVING FOR HEAD 


     7 CALLS TO PCG ROUTINE FOR TIME STEP   1 IN STRESS PERIOD    5
    26 TOTAL ITERATIONS

 OUTPUT CONTROL FOR STRESS PERIOD    5   TIME STEP    1
    SAVE BUDGET
    SAVE HEAD FOR ALL LAYERS
    PRINT HEAD FOR ALL LAYERS
 UBDSV2 SAVING "STREAMFLOW OUT  " ON UNIT  50 AT TIME STEP  1, STRESS PERIOD   5



 STREAM LISTING     PERIOD      5   STEP        1

 LAYER ROW COL. STREAM  RCH.  FLOW INTO     FLOW TO   FLOW OUT OF   OVRLND.     DIRECT     STREAM       STREAM     STREAM     STREAM   STREAMBED  STREAMBED
                SEG.NO.  NO.  STRM. RCH.    AQUIFER    STRM. RCH.    RUNOFF     PRECIP       ET          HEAD       DEPTH      WIDTH   CONDCTNC.   GRADIENT

   1   13    1     1     1    1.0000E+05 -2.0366E+03   1.0204E+05  0.000E+00  0.000E+00  0.000E+00  4.84069E+01  1.455E-01  2.000E+01  2.000E+04 -1.018E-01
   1   13    2     1     2    1.0204E+05 -3.0576E+03   1.0509E+05  0.000E+00  0.000E+00  0.000E+00  4.79318E+01  1.477E-01  2.000E+01  2.000E+04 -1.529E-01
   1   14    3     1     3    1.0509E+05 -4.7984E+02   1.0557E+05  0.000E+00  0.000E+00  0.000E+00  4.74561E+01  1.492E-01  2.000E+01  2.000E+04 -2.399E-02
   1   15    4     1     4    1.0557E+05 -4.2744E+02   1.0600E+05  0.000E+00  0.000E+00  0.000E+00  4.69792E+01  1.496E-01  2.000E+01  2.000E+04 -2.137E-02
   1   16    5     1     5    1.0600E+05 -1.2810E+03   1.0728E+05  0.000E+00  0.000E+00  0.000E+00  4.65026E+01  1.503E-01  2.000E+01  2.000E+04 -6.405E-02
   1   16    6     1     6    1.0728E+05 -7.7558E+02   1.0806E+05  0.000E+00  0.000E+00  0.000E+00  4.60262E+01  1.512E-01  2.000E+01  2.000E+04 -3.878E-02
   1   16    7     1     7    1.0806E+05 -6.8404E+02   1.0874E+05  0.000E+00  0.000E+00  0.000E+00  4.55496E+01  1.518E-01  2.000E+01  2.000E+04 -3.420E-02
   1   16    8     1     8    1.0874E+05 -5.5456E+02   1.0930E+05  0.000E+00  0.000E+00  0.000E+00  4.50728E+01  1.523E-01  2.000E+01  2.000E+04 -2.773E-02
   1   16    9     1     9    1.0930E+05 -3.5555E+02   1.0965E+05  0.000E+00  0.000E+00  0.000E+00  4.45959E+01  1.527E-01  2.000E+01  2.000E+04 -1.778E-02
   1   16   10     1    10    1.0965E+05 -5.6415E+01   1.0971E+05  0.000E+00  0.000E+00  0.000E+00  4.41188E+01  1.529E-01  2.000E+01  2.000E+04 -2.821E-03
   1   16   11     1    11    1.0971E+05  3.9543E+02   1.0931E+05  0.000E+00  0.000E+00  0.000E+00  4.36414E+01  1.528E-01  2.000E+01  2.000E+04  1.977E-02
   1   16   12     1    12    1.0931E+05  1.4768E+03   1.0784E+05  0.000E+00  0.000E+00  0.000E+00  4.31633E+01  1.520E-01  2.000E+01  2.000E+04  7.384E-02
   1   15   13     1    13    1.0784E+05  7.7269E+02   1.0706E+05  0.000E+00  0.000E+00  0.000E+00  4.26851E+01  1.510E-01  2.000E+01  2.000E+04  3.863E-02
   1   14   14     1    14    1.0706E+05  7.9961E+01   1.0698E+05  0.000E+00  0.000E+00  0.000E+00  4.22075E+01  1.507E-01  2.000E+01  2.000E+04  3.998E-03
   1   13   15     1    15    1.0698E+05 -7.9158E+02   1.0778E+05  0.000E+00  0.000E+00  0.000E+00  4.17305E+01  1.510E-01  2.000E+01  2.000E+04 -3.958E-02
   1   12   16     1    16    1.0778E+05 -2.1393E+03   1.0991E+05  0.000E+00  0.000E+00  0.000E+00  4.12545E+01  1.522E-01  2.000E+01  2.000E+04 -1.070E-01
   1   12   17     1    17    1.0991E+05 -9.9932E+02   1.1091E+05  0.000E+00  0.000E+00  0.000E+00  4.07785E+01  1.535E-01  2.000E+01  2.000E+04 -4.997E-02
   1   12   18     1    18    1.1091E+05 -9.0448E+02   1.1182E+05  0.000E+00  0.000E+00  0.000E+00  4.03020E+01  1.543E-01  2.000E+01  2.000E+04 -4.522E-02
   1   12   19     1    19    1.1182E+05 -1.2883E+03   1.1311E+05  0.000E+00  0.000E+00  0.000E+00  3.98257E+01  1.552E-01  2.000E+01  2.000E+04 -6.441E-02
   1   13   20     1    20    1.1311E+05 -6.0456E+02   1.1371E+05  0.000E+00  0.000E+00  0.000E+00  3.93492E+01  1.560E-01  2.000E+01  2.000E+04 -3.023E-02
   1   14   21     1    21    1.1371E+05 -4.5940E+02   1.1417E+05  0.000E+00  0.000E+00  0.000E+00  3.88723E+01  1.564E-01  2.000E+01  2.000E+04 -2.297E-02
   1   14   22     1    22    1.1417E+05  5.0052E+03   1.0917E+05  0.000E+00  0.000E+00  0.000E+00  3.83932E+01  1.546E-01  2.000E+01  2.000E+04  2.503E-01
   1    9   30     2     1    5.0000E+04 -3.3614E+02   5.0336E+04  0.000E+00  0.000E+00  0.000E+00  4.02411E+01  1.161E-01  2.000E+01  2.000E+04 -1.681E-02
   1    9   29     2     2    5.0336E+04 -5.9984E+02   5.0936E+04  0.000E+00  0.000E+00  0.000E+00  3.99917E+01  1.167E-01  2.000E+01  2.000E+04 -2.999E-02
   1    9   28     2     3    5.0936E+04 -7.6285E+02   5.1699E+04  0.000E+00  0.000E+00  0.000E+00  3.97427E+01  1.177E-01  2.000E+01  2.000E+04 -3.814E-02
   1    9   27     2     4    5.1699E+04 -1.4618E+03   5.3161E+04  0.000E+00  0.000E+00  0.000E+00  3.94942E+01  1.192E-01  2.000E+01  2.000E+04 -7.309E-02
   1   10   26     2     5    5.3161E+04 -7.7920E+02   5.3940E+04  0.000E+00  0.000E+00  0.000E+00  3.92457E+01  1.207E-01  2.000E+01  2.000E+04 -3.896E-02
   1   11   25     2     6    5.3940E+04 -6.6863E+02   5.4608E+04  0.000E+00  0.000E+00  0.000E+00  3.89967E+01  1.217E-01  2.000E+01  2.000E+04 -3.343E-02
   1   12   24     2     7    5.4608E+04 -8.2799E+02   5.5436E+04  0.000E+00  0.000E+00  0.000E+00  3.87477E+01  1.227E-01  2.000E+01  2.000E+04 -4.140E-02
   1   13   23     2     8    5.5436E+04 -1.3986E+02   5.5576E+04  0.000E+00  0.000E+00  0.000E+00  3.84984E+01  1.234E-01  2.000E+01  2.000E+04 -6.993E-03
   1   14   22     2     9    5.5576E+04  2.0826E+03   5.3494E+04  0.000E+00  0.000E+00  0.000E+00  3.82471E+01  1.221E-01  2.000E+01  2.000E+04  1.041E-01
   1   14   22     3     1    1.6266E+05 -8.4831E+03   1.7114E+05  0.000E+00  0.000E+00  0.000E+00  3.77188E+01  1.632E-01  2.000E+01  2.000E+04 -4.242E-01
   1   15   23     3     2    1.7114E+05 -3.8325E+02   1.7153E+05  0.000E+00  0.000E+00  0.000E+00  3.68325E+01  1.658E-01  2.000E+01  2.000E+04 -1.916E-02
   1   15   24     3     3    1.7153E+05 -2.3415E+02   1.7176E+05  0.000E+00  0.000E+00  0.000E+00  3.59438E+01  1.660E-01  2.000E+01  2.000E+04 -1.171E-02
   1   15   25     3     4    1.7176E+05 -2.3954E+02   1.7200E+05  0.000E+00  0.000E+00  0.000E+00  3.50550E+01  1.661E-01  2.000E+01  2.000E+04 -1.198E-02
   1   15   26     3     5    1.7200E+05 -2.9565E+02   1.7229E+05  0.000E+00  0.000E+00  0.000E+00  3.41663E+01  1.663E-01  2.000E+01  2.000E+04 -1.478E-02
   1   16   27     3     6    1.7229E+05 -3.2387E+02   1.7262E+05  0.000E+00  0.000E+00  0.000E+00  3.32776E+01  1.665E-01  2.000E+01  2.000E+04 -1.619E-02
   1   17   28     3     7    1.7262E+05 -1.4328E+03   1.7405E+05  0.000E+00  0.000E+00  0.000E+00  3.23892E+01  1.670E-01  2.000E+01  2.000E+04 -7.164E-02
   1   18   29     3     8    1.7405E+05 -2.7581E+03   1.7681E+05  0.000E+00  0.000E+00  0.000E+00  3.15015E+01  1.682E-01  2.000E+01  2.000E+04 -1.379E-01
   1   18   30     3     9    1.7681E+05 -3.0720E+03   1.7988E+05  0.000E+00  0.000E+00  0.000E+00  3.06143E+01  1.698E-01  2.000E+01  2.000E+04 -1.536E-01



1
              HEAD IN LAYER   1 AT END OF TIME STEP   1 IN STRESS PERIOD    5
  ---------------------------------------------------------------------------

          1      2      3      4      5      6      7      8      9     10
         11     12     13     14     15     16     17     18     19     20
         21     22     23     24     25     26     27     28     29     30
 .........................................................................
   1  ****** ****** ****** ****** ****** ****** ****** ****** ****** ******
      ****** ****** ****** ****** ****** ****** ****** ****** ****** ******
      ****** ****** ****** ****** ****** ****** ****** ****** ****** ******
   2  ****** ****** ****** ****** ****** ****** ****** ****** ****** ******
      ****** ****** ****** ****** ****** ****** ****** ****** ****** ******
      ****** ****** ****** ****** ****** ****** ****** ****** ****** ******
   3  ****** ****** ****** ****** ****** ****** ****** ****** ****** ******
      ****** ****** ****** ****** ****** ****** ****** ****** ****** ******
      ****** ****** ****** ****** ****** ****** ****** ****** ****** ******
   4  ****** ****** ****** ****** ****** ****** ****** ****** ****** ******
      ****** ****** ****** ****** ****** ****** ****** ****** ****** ******
      ****** ****** ****** ****** ****** ****** ****** ****** ****** ******
   5  ****** ****** ****** ****** ****** ****** ****** ****** ****** ******
      ****** ****** ****** ****** ****** ****** ****** ****** ****** ******
      ****** ****** ****** ****** ****** ****** ****** ****** ****** ******
   6  ****** ****** ****** ****** ****** ****** ****** ****** ****** ******
      ****** ****** ****** ****** ****** ****** ****** ****** ****** ******
      ****** ****** ****** ****** ****** ****** ****** ****** ****** ******
   7  ****** ****** ****** ****** ****** ****** ****** ****** ****** ******
      ****** ****** ****** ****** ****** ****** ****** ****** ****** ******
      ****** ****** ****** ****** ****** ****** ****** ****** ****** ******
   8  ****** ****** ****** ****** ****** ****** ****** ****** ****** ******
      ****** ****** ****** ****** ****** ****** ****** ****** ****** ******
      ****** ****** ****** ****** ****** ****** ****** ****** ****** ******
   9  ****** ****** ****** ****** ****** ****** ****** ****** ****** ******
      ****** ****** ****** ****** ****** ****** ****** ****** ****** ******
      ****** ****** ****** ****** ****** ****** ****** ****** ****** ******
  10  ****** ****** ****** ****** ****** ****** ****** ****** ****** ******
      ****** ****** ****** ****** ****** ****** ****** ****** ****** ******
      ****** ****** ****** ****** ****** ****** ****** ****** ****** ******
  11  ****** ****** ****** ****** ****** ****** ****** ****** ****** ******
      ****** ****** ****** ****** ****** ****** ****** ****** ****** ******
      ****** ****** ****** ****** ****** ****** ****** ****** ****** ******
  12  ****** ****** ****** ****** ****** ****** ****** ****** ****** ******
      ****** ****** ****** ****** ****** ****** ****** ****** ****** ******
      ****** ****** ****** ****** ****** ****** ****** ****** ****** ******
  13  ****** ****** ****** ****** ****** ****** ****** ****** ****** ******
      ****** ****** ****** ****** ****** ****** ****** ****** ****** ******
      ****** ****** ****** ****** ****** ****** ****** ****** ****** ******
  14  ****** ****** ****** ****** ****** ****** ****** ****** ****** ******
      ****** ****** ****** ****** ****** ****** ****** ****** ****** ******
      ****** ****** ****** ****** ****** ****** ****** ****** ****** ******
  15  ****** ****** ****** ****** ****** ****** ****** ****** ****** ******
      ****** ****** ****** ****** ****** ****** ****** ****** ****** ******
      ****** ****** ****** ****** ****** ****** ****** ****** ****** ******
  16  ****** ****** ****** ****** ****** ****** ****** ****** ****** ******
      ****** ****** ****** ****** ****** ****** ****** ****** ****** ******
      ****** ****** ****** ****** ****** ****** ****** ****** ****** ******
  17  ****** ****** ****** ****** ****** ****** ****** ****** ****** ******
      ****** ****** ****** ****** ****** ****** ****** ****** ****** ******
      ****** ****** ****** ****** ****** ****** ****** ****** ****** ******
  18  ****** ****** ****** ****** ****** ****** ****** ****** ****** ******
      ****** ****** ****** ****** ****** ****** ****** ****** ****** ******
      ****** ****** ****** ****** ****** ****** ****** ****** ****** ******
  19  ****** ****** ****** ****** ****** ****** ****** ****** ****** ******
      ****** ****** ****** ****** ****** ****** ****** ****** ****** ******
      ****** ****** ****** ****** ****** ****** ****** ****** ****** ******
  20  ****** ****** ****** ****** ****** ****** ****** ****** ****** ******
      ****** ****** ****** ****** ****** ****** ****** ****** ****** ******
      ****** ****** ****** ****** ****** ****** ****** ****** ****** ******
  21  ****** ****** ****** ****** ****** ****** ****** ****** ****** ******
      ****** ****** ****** ****** ****** ****** ****** ****** ****** ******
      ****** ****** ****** ****** ****** ****** ****** ****** ****** ******
  22  ****** ****** ****** ****** ****** ****** ****** ****** ****** ******
      ****** ****** ****** ****** ****** ****** ****** ****** ****** ******
      ****** ****** ****** ****** ****** ****** ****** ****** ****** ******
  23  ****** ****** ****** ****** ****** ****** ****** ****** ****** ******
      ****** ****** ****** ****** ****** ****** ****** ****** ****** ******
      ****** ****** ****** ****** ****** ****** ****** ****** ****** ******
  24  ****** ****** ****** ****** ****** ****** ****** ****** ****** ******
      ****** ****** ****** ****** ****** ****** ****** ****** ****** ******
      ****** ****** ****** ****** ****** ****** ****** ****** ****** ******
  25  ****** ****** ****** ****** ****** ****** ****** ****** ****** ******
      ****** ****** ****** ****** ****** ****** ****** ****** ****** ******
      ****** ****** ****** ****** ****** ****** ****** ****** ****** ******

 HEAD WILL BE SAVED ON UNIT   51 AT END OF TIME STEP    1, STRESS PERIOD    5
1
  VOLUMETRIC BUDGET FOR ENTIRE MODEL AT END OF TIME STEP    1, STRESS PERIOD   5
  ------------------------------------------------------------------------------

     CUMULATIVE VOLUMES      L**3       RATES FOR THIS TIME STEP      L**3/T
     ------------------                 ------------------------

           IN:                                      IN:
           ---                                      ---
             STORAGE =    31978894.0973               STORAGE =       18740.9212
       CONSTANT HEAD =    11022759.6214         CONSTANT HEAD =       32770.2349
               WELLS =           0.0000                 WELLS =           0.0000
            RECHARGE =    10074000.0000              RECHARGE =       13800.0000
      STREAM LEAKAGE =     3236197.8410        STREAM LEAKAGE =        9812.7285

            TOTAL IN =    56311851.5598              TOTAL IN =       75123.8846

          OUT:                                     OUT:
          ----                                     ----
             STORAGE =        1156.5423               STORAGE =           0.0000
       CONSTANT HEAD =           0.0000         CONSTANT HEAD =           0.0000
               WELLS =    16191357.2659                 WELLS =       35429.6658
            RECHARGE =           0.0000              RECHARGE =           0.0000
      STREAM LEAKAGE =    40119340.1670        STREAM LEAKAGE =       39694.2222

           TOTAL OUT =    56311853.9752             TOTAL OUT =       75123.8880

            IN - OUT =          -2.4154              IN - OUT =      -3.3840E-03

 PERCENT DISCREPANCY =          -0.00     PERCENT DISCREPANCY =          -0.00






         TIME SUMMARY AT END OF TIME STEP    1 IN STRESS PERIOD    5
                    SECONDS     MINUTES      HOURS       DAYS        YEARS
                    -----------------------------------------------------------
   TIME STEP LENGTH 7.94880E+06 1.32480E+05  2208.0      92.000     0.25188    
 STRESS PERIOD TIME 7.94880E+06 1.32480E+05  2208.0      92.000     0.25188    
         TOTAL TIME 3.94848E+07 6.58080E+05  10968.      457.00      1.2512    
1
1
                            STRESS PERIOD NO.    6, LENGTH =   91.00000    
                            -----------------------------------------------

                              NUMBER OF TIME STEPS =     1

                               MULTIPLIER FOR DELT =     1.500

                            INITIAL TIME STEP SIZE =   91.00000    

 WELL NO.  LAYER   ROW   COL   STRESS RATE         
 --------------------------------------------------
      1      1     16     16      -9666.    
      2      1      6     22      -5938.    
      3      1     19     13     -0.1394E+05
      4      1      6     21      -5885.    

      4 WELLS

                 RECHARGE =  2.000000E-03

 REUSING STREAM SEGMENT DATA FROM LAST STRESS PERIOD
 
 SOLVING FOR HEAD 


     7 CALLS TO PCG ROUTINE FOR TIME STEP   1 IN STRESS PERIOD    6
    26 TOTAL ITERATIONS

 OUTPUT CONTROL FOR STRESS PERIOD    6   TIME STEP    1
    SAVE BUDGET
    SAVE HEAD FOR ALL LAYERS
    PRINT HEAD FOR ALL LAYERS
 UBDSV2 SAVING "STREAMFLOW OUT  " ON UNIT  50 AT TIME STEP  1, STRESS PERIOD   6



 STREAM LISTING     PERIOD      6   STEP        1

 LAYER ROW COL. STREAM  RCH.  FLOW INTO     FLOW TO   FLOW OUT OF   OVRLND.     DIRECT     STREAM       STREAM     STREAM     STREAM   STREAMBED  STREAMBED
                SEG.NO.  NO.  STRM. RCH.    AQUIFER    STRM. RCH.    RUNOFF     PRECIP       ET          HEAD       DEPTH      WIDTH   CONDCTNC.   GRADIENT

   1   13    1     1     1    1.0000E+05 -2.3496E+03   1.0235E+05  0.000E+00  0.000E+00  0.000E+00  4.84070E+01  1.457E-01  2.000E+01  2.000E+04 -1.175E-01
   1   13    2     1     2    1.0235E+05 -3.4010E+03   1.0575E+05  0.000E+00  0.000E+00  0.000E+00  4.79322E+01  1.481E-01  2.000E+01  2.000E+04 -1.701E-01
   1   14    3     1     3    1.0575E+05 -6.3393E+02   1.0638E+05  0.000E+00  0.000E+00  0.000E+00  4.74567E+01  1.499E-01  2.000E+01  2.000E+04 -3.170E-02
   1   15    4     1     4    1.0638E+05 -5.9234E+02   1.0698E+05  0.000E+00  0.000E+00  0.000E+00  4.69799E+01  1.504E-01  2.000E+01  2.000E+04 -2.962E-02
   1   16    5     1     5    1.0698E+05 -1.7641E+03   1.0874E+05  0.000E+00  0.000E+00  0.000E+00  4.65036E+01  1.514E-01  2.000E+01  2.000E+04 -8.821E-02
   1   16    6     1     6    1.0874E+05 -1.0600E+03   1.0980E+05  0.000E+00  0.000E+00  0.000E+00  4.60276E+01  1.526E-01  2.000E+01  2.000E+04 -5.300E-02
   1   16    7     1     7    1.0980E+05 -9.5347E+02   1.1075E+05  0.000E+00  0.000E+00  0.000E+00  4.55511E+01  1.534E-01  2.000E+01  2.000E+04 -4.767E-02
   1   16    8     1     8    1.1075E+05 -8.1925E+02   1.1157E+05  0.000E+00  0.000E+00  0.000E+00  4.50746E+01  1.541E-01  2.000E+01  2.000E+04 -4.096E-02
   1   16    9     1     9    1.1157E+05 -6.1937E+02   1.1219E+05  0.000E+00  0.000E+00  0.000E+00  4.45979E+01  1.547E-01  2.000E+01  2.000E+04 -3.097E-02
   1   16   10     1    10    1.1219E+05 -3.2119E+02   1.1251E+05  0.000E+00  0.000E+00  0.000E+00  4.41210E+01  1.551E-01  2.000E+01  2.000E+04 -1.606E-02
   1   16   11     1    11    1.1251E+05  1.2849E+02   1.1239E+05  0.000E+00  0.000E+00  0.000E+00  4.36438E+01  1.552E-01  2.000E+01  2.000E+04  6.424E-03
   1   16   12     1    12    1.1239E+05  1.0475E+03   1.1134E+05  0.000E+00  0.000E+00  0.000E+00  4.31661E+01  1.547E-01  2.000E+01  2.000E+04  5.238E-02
   1   15   13     1    13    1.1134E+05  3.2882E+02   1.1101E+05  0.000E+00  0.000E+00  0.000E+00  4.26882E+01  1.541E-01  2.000E+01  2.000E+04  1.644E-02
   1   14   14     1    14    1.1101E+05 -3.6087E+02   1.1137E+05  0.000E+00  0.000E+00  0.000E+00  4.22110E+01  1.542E-01  2.000E+01  2.000E+04 -1.804E-02
   1   13   15     1    15    1.1137E+05 -1.2145E+03   1.1258E+05  0.000E+00  0.000E+00  0.000E+00  4.17344E+01  1.548E-01  2.000E+01  2.000E+04 -6.073E-02
   1   12   16     1    16    1.1258E+05 -2.5175E+03   1.1510E+05  0.000E+00  0.000E+00  0.000E+00  4.12586E+01  1.564E-01  2.000E+01  2.000E+04 -1.259E-01
   1   12   17     1    17    1.1510E+05 -1.3067E+03   1.1641E+05  0.000E+00  0.000E+00  0.000E+00  4.07829E+01  1.579E-01  2.000E+01  2.000E+04 -6.534E-02
   1   12   18     1    18    1.1641E+05 -1.2153E+03   1.1762E+05  0.000E+00  0.000E+00  0.000E+00  4.03067E+01  1.590E-01  2.000E+01  2.000E+04 -6.077E-02
   1   12   19     1    19    1.1762E+05 -1.6749E+03   1.1930E+05  0.000E+00  0.000E+00  0.000E+00  3.98306E+01  1.601E-01  2.000E+01  2.000E+04 -8.375E-02
   1   13   20     1    20    1.1930E+05 -1.0169E+03   1.2032E+05  0.000E+00  0.000E+00  0.000E+00  3.93544E+01  1.612E-01  2.000E+01  2.000E+04 -5.085E-02
   1   14   21     1    21    1.2032E+05 -8.5718E+02   1.2117E+05  0.000E+00  0.000E+00  0.000E+00  3.88779E+01  1.620E-01  2.000E+01  2.000E+04 -4.286E-02
   1   14   22     1    22    1.2117E+05  4.9023E+03   1.1627E+05  0.000E+00  0.000E+00  0.000E+00  3.83990E+01  1.603E-01  2.000E+01  2.000E+04  2.451E-01
   1    9   30     2     1    5.0000E+04 -6.9610E+02   5.0696E+04  0.000E+00  0.000E+00  0.000E+00  4.02413E+01  1.163E-01  2.000E+01  2.000E+04 -3.480E-02
   1    9   29     2     2    5.0696E+04 -9.5527E+02   5.1651E+04  0.000E+00  0.000E+00  0.000E+00  3.99925E+01  1.175E-01  2.000E+01  2.000E+04 -4.776E-02
   1    9   28     2     3    5.1651E+04 -1.1111E+03   5.2762E+04  0.000E+00  0.000E+00  0.000E+00  3.97439E+01  1.189E-01  2.000E+01  2.000E+04 -5.555E-02
   1    9   27     2     4    5.2762E+04 -1.8996E+03   5.4662E+04  0.000E+00  0.000E+00  0.000E+00  3.94960E+01  1.210E-01  2.000E+01  2.000E+04 -9.498E-02
   1   10   26     2     5    5.4662E+04 -1.2436E+03   5.5906E+04  0.000E+00  0.000E+00  0.000E+00  3.92481E+01  1.231E-01  2.000E+01  2.000E+04 -6.218E-02
   1   11   25     2     6    5.5906E+04 -1.1194E+03   5.7025E+04  0.000E+00  0.000E+00  0.000E+00  3.89996E+01  1.246E-01  2.000E+01  2.000E+04 -5.597E-02
   1   12   24     2     7    5.7025E+04 -1.2344E+03   5.8260E+04  0.000E+00  0.000E+00  0.000E+00  3.87512E+01  1.262E-01  2.000E+01  2.000E+04 -6.172E-02
   1   13   23     2     8    5.8260E+04 -2.7719E+02   5.8537E+04  0.000E+00  0.000E+00  0.000E+00  3.85022E+01  1.272E-01  2.000E+01  2.000E+04 -1.386E-02
   1   14   22     2     9    5.8537E+04  1.9445E+03   5.6592E+04  0.000E+00  0.000E+00  0.000E+00  3.82511E+01  1.261E-01  2.000E+01  2.000E+04  9.723E-02
   1   14   22     3     1    1.7286E+05 -8.5828E+03   1.8145E+05  0.000E+00  0.000E+00  0.000E+00  3.77247E+01  1.692E-01  2.000E+01  2.000E+04 -4.291E-01
   1   15   23     3     2    1.8145E+05 -5.1751E+02   1.8196E+05  0.000E+00  0.000E+00  0.000E+00  3.68384E+01  1.718E-01  2.000E+01  2.000E+04 -2.588E-02
   1   15   24     3     3    1.8196E+05 -3.5473E+02   1.8232E+05  0.000E+00  0.000E+00  0.000E+00  3.59498E+01  1.720E-01  2.000E+01  2.000E+04 -1.774E-02
   1   15   25     3     4    1.8232E+05 -3.6491E+02   1.8268E+05  0.000E+00  0.000E+00  0.000E+00  3.50611E+01  1.722E-01  2.000E+01  2.000E+04 -1.825E-02
   1   15   26     3     5    1.8268E+05 -4.4640E+02   1.8313E+05  0.000E+00  0.000E+00  0.000E+00  3.41724E+01  1.724E-01  2.000E+01  2.000E+04 -2.232E-02
   1   16   27     3     6    1.8313E+05 -4.9144E+02   1.8362E+05  0.000E+00  0.000E+00  0.000E+00  3.32838E+01  1.727E-01  2.000E+01  2.000E+04 -2.457E-02
   1   17   28     3     7    1.8362E+05 -1.8914E+03   1.8551E+05  0.000E+00  0.000E+00  0.000E+00  3.23956E+01  1.734E-01  2.000E+01  2.000E+04 -9.457E-02
   1   18   29     3     8    1.8551E+05 -3.1887E+03   1.8870E+05  0.000E+00  0.000E+00  0.000E+00  3.15081E+01  1.748E-01  2.000E+01  2.000E+04 -1.594E-01
   1   18   30     3     9    1.8870E+05 -3.4229E+03   1.9212E+05  0.000E+00  0.000E+00  0.000E+00  3.06211E+01  1.767E-01  2.000E+01  2.000E+04 -1.711E-01



1
              HEAD IN LAYER   1 AT END OF TIME STEP   1 IN STRESS PERIOD    6
  ---------------------------------------------------------------------------

          1      2      3      4      5      6      7      8      9     10
         11     12     13     14     15     16     17     18     19     20
         21     22     23     24     25     26     27     28     29     30
 .........................................................................
   1  ****** ****** ****** ****** ****** ****** ****** ****** ****** ******
      ****** ****** ****** ****** ****** ****** ****** ****** ****** ******
      ****** ****** ****** ****** ****** ****** ****** ****** ****** ******
   2  ****** ****** ****** ****** ****** ****** ****** ****** ****** ******
      ****** ****** ****** ****** ****** ****** ****** ****** ****** ******
      ****** ****** ****** ****** ****** ****** ****** ****** ****** ******
   3  ****** ****** ****** ****** ****** ****** ****** ****** ****** ******
      ****** ****** ****** ****** ****** ****** ****** ****** ****** ******
      ****** ****** ****** ****** ****** ****** ****** ****** ****** ******
   4  ****** ****** ****** ****** ****** ****** ****** ****** ****** ******
      ****** ****** ****** ****** ****** ****** ****** ****** ****** ******
      ****** ****** ****** ****** ****** ****** ****** ****** ****** ******
   5  ****** ****** ****** ****** ****** ****** ****** ****** ****** ******
      ****** ****** ****** ****** ****** ****** ****** ****** ****** ******
      ****** ****** ****** ****** ****** ****** ****** ****** ****** ******
   6  ****** ****** ****** ****** ****** ****** ****** ****** ****** ******
      ****** ****** ****** ****** ****** ****** ****** ****** ****** ******
      ****** ****** ****** ****** ****** ****** ****** ****** ****** ******
   7  ****** ****** ****** ****** ****** ****** ****** ****** ****** ******
      ****** ****** ****** ****** ****** ****** ****** ****** ****** ******
      ****** ****** ****** ****** ****** ****** ****** ****** ****** ******
   8  ****** ****** ****** ****** ****** ****** ****** ****** ****** ******
      ****** ****** ****** ****** ****** ****** ****** ****** ****** ******
      ****** ****** ****** ****** ****** ****** ****** ****** ****** ******
   9  ****** ****** ****** ****** ****** ****** ****** ****** ****** ******
      ****** ****** ****** ****** ****** ****** ****** ****** ****** ******
      ****** ****** ****** ****** ****** ****** ****** ****** ****** ******
  10  ****** ****** ****** ****** ****** ****** ****** ****** ****** ******
      ****** ****** ****** ****** ****** ****** ****** ****** ****** ******
      ****** ****** ****** ****** ****** ****** ****** ****** ****** ******
  11  ****** ****** ****** ****** ****** ****** ****** ****** ****** ******
      ****** ****** ****** ****** ****** ****** ****** ****** ****** ******
      ****** ****** ****** ****** ****** ****** ****** ****** ****** ******
  12  ****** ****** ****** ****** ****** ****** ****** ****** ****** ******
      ****** ****** ****** ****** ****** ****** ****** ****** ****** ******
      ****** ****** ****** ****** ****** ****** ****** ****** ****** ******
  13  ****** ****** ****** ****** ****** ****** ****** ****** ****** ******
      ****** ****** ****** ****** ****** ****** ****** ****** ****** ******
      ****** ****** ****** ****** ****** ****** ****** ****** ****** ******
  14  ****** ****** ****** ****** ****** ****** ****** ****** ****** ******
      ****** ****** ****** ****** ****** ****** ****** ****** ****** ******
      ****** ****** ****** ****** ****** ****** ****** ****** ****** ******
  15  ****** ****** ****** ****** ****** ****** ****** ****** ****** ******
      ****** ****** ****** ****** ****** ****** ****** ****** ****** ******
      ****** ****** ****** ****** ****** ****** ****** ****** ****** ******
  16  ****** ****** ****** ****** ****** ****** ****** ****** ****** ******
      ****** ****** ****** ****** ****** ****** ****** ****** ****** ******
      ****** ****** ****** ****** ****** ****** ****** ****** ****** ******
  17  ****** ****** ****** ****** ****** ****** ****** ****** ****** ******
      ****** ****** ****** ****** ****** ****** ****** ****** ****** ******
      ****** ****** ****** ****** ****** ****** ****** ****** ****** ******
  18  ****** ****** ****** ****** ****** ****** ****** ****** ****** ******
      ****** ****** ****** ****** ****** ****** ****** ****** ****** ******
      ****** ****** ****** ****** ****** ****** ****** ****** ****** ******
  19  ****** ****** ****** ****** ****** ****** ****** ****** ****** ******
      ****** ****** ****** ****** ****** ****** ****** ****** ****** ******
      ****** ****** ****** ****** ****** ****** ****** ****** ****** ******
  20  ****** ****** ****** ****** ****** ****** ****** ****** ****** ******
      ****** ****** ****** ****** ****** ****** ****** ****** ****** ******
      ****** ****** ****** ****** ****** ****** ****** ****** ****** ******
  21  ****** ****** ****** ****** ****** ****** ****** ****** ****** ******
      ****** ****** ****** ****** ****** ****** ****** ****** ****** ******
      ****** ****** ****** ****** ****** ****** ****** ****** ****** ******
  22  ****** ****** ****** ****** ****** ****** ****** ****** ****** ******
      ****** ****** ****** ****** ****** ****** ****** ****** ****** ******
      ****** ****** ****** ****** ****** ****** ****** ****** ****** ******
  23  ****** ****** ****** ****** ****** ****** ****** ****** ****** ******
      ****** ****** ****** ****** ****** ****** ****** ****** ****** ******
      ****** ****** ****** ****** ****** ****** ****** ****** ****** ******
  24  ****** ****** ****** ****** ****** ****** ****** ****** ****** ******
      ****** ****** ****** ****** ****** ****** ****** ****** ****** ******
      ****** ****** ****** ****** ****** ****** ****** ****** ****** ******
  25  ****** ****** ****** ****** ****** ****** ****** ****** ****** ******
      ****** ****** ****** ****** ****** ****** ****** ****** ****** ******
      ****** ****** ****** ****** ****** ****** ****** ****** ****** ******

 HEAD WILL BE SAVED ON UNIT   51 AT END OF TIME STEP    1, STRESS PERIOD    6
1
  VOLUMETRIC BUDGET FOR ENTIRE MODEL AT END OF TIME STEP    1, STRESS PERIOD   6
  ------------------------------------------------------------------------------

     CUMULATIVE VOLUMES      L**3       RATES FOR THIS TIME STEP      L**3/T
     ------------------                 ------------------------

           IN:                                      IN:
           ---                                      ---
             STORAGE =    31978894.0973               STORAGE =           0.0000
       CONSTANT HEAD =    13836248.0321         CONSTANT HEAD =       30917.4551
               WELLS =           0.0000                 WELLS =           0.0000
            RECHARGE =    15097200.0000              RECHARGE =       55200.0000
      STREAM LEAKAGE =     3996200.4040        STREAM LEAKAGE =        8351.6765

            TOTAL IN =    64908542.5334              TOTAL IN =       94469.1316

          OUT:                                     OUT:
          ----                                     ----
             STORAGE =      780462.7503               STORAGE =        8563.8045
       CONSTANT HEAD =           0.0000         CONSTANT HEAD =           0.0000
               WELLS =    19415456.8527                 WELLS =       35429.6658
            RECHARGE =           0.0000              RECHARGE =           0.0000
      STREAM LEAKAGE =    44712625.0749        STREAM LEAKAGE =       50475.6583

           TOTAL OUT =    64908544.6779             TOTAL OUT =       94469.1286

            IN - OUT =          -2.1445              IN - OUT =       2.9769E-03

 PERCENT DISCREPANCY =          -0.00     PERCENT DISCREPANCY =           0.00






         TIME SUMMARY AT END OF TIME STEP    1 IN STRESS PERIOD    6
                    SECONDS     MINUTES      HOURS       DAYS        YEARS
                    -----------------------------------------------------------
   TIME STEP LENGTH 7.86240E+06 1.31040E+05  2184.0      91.000     0.24914    
 STRESS PERIOD TIME 7.86240E+06 1.31040E+05  2184.0      91.000     0.24914    
         TOTAL TIME 4.73472E+07 7.89120E+05  13152.      548.00      1.5003    
1
1
                            STRESS PERIOD NO.    7, LENGTH =   91.00000    
                            -----------------------------------------------

                              NUMBER OF TIME STEPS =     1

                               MULTIPLIER FOR DELT =     1.500

                            INITIAL TIME STEP SIZE =   91.00000    

 WELL NO.  LAYER   ROW   COL   STRESS RATE         
 --------------------------------------------------
      1      1     16     16      -9666.    
      2      1      6     22      -5938.    
      3      1     19     13     -0.1394E+05
      4      1      6     21      -5885.    

      4 WELLS

                 RECHARGE =   0.00000    

 REUSING STREAM SEGMENT DATA FROM LAST STRESS PERIOD
 
 SOLVING FOR HEAD 


     7 CALLS TO PCG ROUTINE FOR TIME STEP   1 IN STRESS PERIOD    7
    26 TOTAL ITERATIONS

 OUTPUT CONTROL FOR STRESS PERIOD    7   TIME STEP    1
    SAVE BUDGET
    SAVE HEAD FOR ALL LAYERS
    PRINT HEAD FOR ALL LAYERS
 UBDSV2 SAVING "STREAMFLOW OUT  " ON UNIT  50 AT TIME STEP  1, STRESS PERIOD   7



 STREAM LISTING     PERIOD      7   STEP        1

 LAYER ROW COL. STREAM  RCH.  FLOW INTO     FLOW TO   FLOW OUT OF   OVRLND.     DIRECT     STREAM       STREAM     STREAM     STREAM   STREAMBED  STREAMBED
                SEG.NO.  NO.  STRM. RCH.    AQUIFER    STRM. RCH.    RUNOFF     PRECIP       ET          HEAD       DEPTH      WIDTH   CONDCTNC.   GRADIENT

   1   13    1     1     1    1.0000E+05 -1.6832E+03   1.0168E+05  0.000E+00  0.000E+00  0.000E+00  4.84067E+01  1.454E-01  2.000E+01  2.000E+04 -8.416E-02
   1   13    2     1     2    1.0168E+05 -2.6559E+03   1.0434E+05  0.000E+00  0.000E+00  0.000E+00  4.79313E+01  1.472E-01  2.000E+01  2.000E+04 -1.328E-01
   1   14    3     1     3    1.0434E+05 -3.8169E+02   1.0472E+05  0.000E+00  0.000E+00  0.000E+00  4.74554E+01  1.485E-01  2.000E+01  2.000E+04 -1.908E-02
   1   15    4     1     4    1.0472E+05 -3.2897E+02   1.0505E+05  0.000E+00  0.000E+00  0.000E+00  4.69784E+01  1.489E-01  2.000E+01  2.000E+04 -1.645E-02
   1   16    5     1     5    1.0505E+05 -1.0039E+03   1.0605E+05  0.000E+00  0.000E+00  0.000E+00  4.65017E+01  1.494E-01  2.000E+01  2.000E+04 -5.019E-02
   1   16    6     1     6    1.0605E+05 -6.0211E+02   1.0666E+05  0.000E+00  0.000E+00  0.000E+00  4.60251E+01  1.501E-01  2.000E+01  2.000E+04 -3.011E-02
   1   16    7     1     7    1.0666E+05 -5.1421E+02   1.0717E+05  0.000E+00  0.000E+00  0.000E+00  4.55483E+01  1.506E-01  2.000E+01  2.000E+04 -2.571E-02
   1   16    8     1     8    1.0717E+05 -3.8587E+02   1.0756E+05  0.000E+00  0.000E+00  0.000E+00  4.50714E+01  1.510E-01  2.000E+01  2.000E+04 -1.929E-02
   1   16    9     1     9    1.0756E+05 -1.8892E+02   1.0774E+05  0.000E+00  0.000E+00  0.000E+00  4.45944E+01  1.512E-01  2.000E+01  2.000E+04 -9.446E-03
   1   16   10     1    10    1.0774E+05  1.0714E+02   1.0764E+05  0.000E+00  0.000E+00  0.000E+00  4.41171E+01  1.512E-01  2.000E+01  2.000E+04  5.357E-03
   1   16   11     1    11    1.0764E+05  5.5863E+02   1.0708E+05  0.000E+00  0.000E+00  0.000E+00  4.36396E+01  1.509E-01  2.000E+01  2.000E+04  2.793E-02
   1   16   12     1    12    1.0708E+05  1.7711E+03   1.0531E+05  0.000E+00  0.000E+00  0.000E+00  4.31613E+01  1.500E-01  2.000E+01  2.000E+04  8.855E-02
   1   15   13     1    13    1.0531E+05  1.1019E+03   1.0421E+05  0.000E+00  0.000E+00  0.000E+00  4.26828E+01  1.487E-01  2.000E+01  2.000E+04  5.509E-02
   1   14   14     1    14    1.0421E+05  4.3884E+02   1.0377E+05  0.000E+00  0.000E+00  0.000E+00  4.22049E+01  1.481E-01  2.000E+01  2.000E+04  2.194E-02
   1   13   15     1    15    1.0377E+05 -4.1371E+02   1.0418E+05  0.000E+00  0.000E+00  0.000E+00  4.17276E+01  1.481E-01  2.000E+01  2.000E+04 -2.069E-02
   1   12   16     1    16    1.0418E+05 -1.7241E+03   1.0590E+05  0.000E+00  0.000E+00  0.000E+00  4.12513E+01  1.490E-01  2.000E+01  2.000E+04 -8.620E-02
   1   12   17     1    17    1.0590E+05 -7.2853E+02   1.0663E+05  0.000E+00  0.000E+00  0.000E+00  4.07750E+01  1.500E-01  2.000E+01  2.000E+04 -3.643E-02
   1   12   18     1    18    1.0663E+05 -6.5088E+02   1.0728E+05  0.000E+00  0.000E+00  0.000E+00  4.02983E+01  1.506E-01  2.000E+01  2.000E+04 -3.254E-02
   1   12   19     1    19    1.0728E+05 -9.8557E+02   1.0827E+05  0.000E+00  0.000E+00  0.000E+00  3.98218E+01  1.513E-01  2.000E+01  2.000E+04 -4.928E-02
   1   13   20     1    20    1.0827E+05 -3.4364E+02   1.0861E+05  0.000E+00  0.000E+00  0.000E+00  3.93450E+01  1.519E-01  2.000E+01  2.000E+04 -1.718E-02
   1   14   21     1    21    1.0861E+05 -1.9012E+02   1.0880E+05  0.000E+00  0.000E+00  0.000E+00  3.88680E+01  1.521E-01  2.000E+01  2.000E+04 -9.506E-03
   1   14   22     1    22    1.0880E+05  5.0580E+03   1.0375E+05  0.000E+00  0.000E+00  0.000E+00  3.83887E+01  1.500E-01  2.000E+01  2.000E+04  2.529E-01
   1    9   30     2     1    5.0000E+04 -1.8092E+02   5.0181E+04  0.000E+00  0.000E+00  0.000E+00  4.02410E+01  1.160E-01  2.000E+01  2.000E+04 -9.046E-03
   1    9   29     2     2    5.0181E+04 -4.4182E+02   5.0623E+04  0.000E+00  0.000E+00  0.000E+00  3.99914E+01  1.164E-01  2.000E+01  2.000E+04 -2.209E-02
   1    9   28     2     3    5.0623E+04 -5.9612E+02   5.1219E+04  0.000E+00  0.000E+00  0.000E+00  3.97421E+01  1.171E-01  2.000E+01  2.000E+04 -2.981E-02
   1    9   27     2     4    5.1219E+04 -1.1992E+03   5.2418E+04  0.000E+00  0.000E+00  0.000E+00  3.94934E+01  1.184E-01  2.000E+01  2.000E+04 -5.996E-02
   1   10   26     2     5    5.2418E+04 -5.4235E+02   5.2960E+04  0.000E+00  0.000E+00  0.000E+00  3.92446E+01  1.196E-01  2.000E+01  2.000E+04 -2.712E-02
   1   11   25     2     6    5.2960E+04 -4.4724E+02   5.3408E+04  0.000E+00  0.000E+00  0.000E+00  3.89952E+01  1.202E-01  2.000E+01  2.000E+04 -2.236E-02
   1   12   24     2     7    5.3408E+04 -6.2163E+02   5.4029E+04  0.000E+00  0.000E+00  0.000E+00  3.87460E+01  1.210E-01  2.000E+01  2.000E+04 -3.108E-02
   1   13   23     2     8    5.4029E+04 -8.5104E+01   5.4114E+04  0.000E+00  0.000E+00  0.000E+00  3.84964E+01  1.214E-01  2.000E+01  2.000E+04 -4.255E-03
   1   14   22     2     9    5.4114E+04  2.1850E+03   5.1929E+04  0.000E+00  0.000E+00  0.000E+00  3.82450E+01  1.200E-01  2.000E+01  2.000E+04  1.092E-01
   1   14   22     3     1    1.5568E+05 -8.4229E+03   1.6410E+05  0.000E+00  0.000E+00  0.000E+00  3.77146E+01  1.591E-01  2.000E+01  2.000E+04 -4.211E-01
   1   15   23     3     2    1.6410E+05 -3.0987E+02   1.6441E+05  0.000E+00  0.000E+00  0.000E+00  3.68283E+01  1.617E-01  2.000E+01  2.000E+04 -1.549E-02
   1   15   24     3     3    1.6441E+05 -1.8058E+02   1.6459E+05  0.000E+00  0.000E+00  0.000E+00  3.59396E+01  1.618E-01  2.000E+01  2.000E+04 -9.029E-03
   1   15   25     3     4    1.6459E+05 -1.8781E+02   1.6478E+05  0.000E+00  0.000E+00  0.000E+00  3.50508E+01  1.619E-01  2.000E+01  2.000E+04 -9.391E-03
   1   15   26     3     5    1.6478E+05 -2.4499E+02   1.6502E+05  0.000E+00  0.000E+00  0.000E+00  3.41620E+01  1.620E-01  2.000E+01  2.000E+04 -1.225E-02
   1   16   27     3     6    1.6502E+05 -2.5869E+02   1.6528E+05  0.000E+00  0.000E+00  0.000E+00  3.32733E+01  1.622E-01  2.000E+01  2.000E+04 -1.293E-02
   1   17   28     3     7    1.6528E+05 -1.2483E+03   1.6653E+05  0.000E+00  0.000E+00  0.000E+00  3.23849E+01  1.626E-01  2.000E+01  2.000E+04 -6.242E-02
   1   18   29     3     8    1.6653E+05 -2.4989E+03   1.6903E+05  0.000E+00  0.000E+00  0.000E+00  3.14971E+01  1.637E-01  2.000E+01  2.000E+04 -1.249E-01
   1   18   30     3     9    1.6903E+05 -2.8923E+03   1.7192E+05  0.000E+00  0.000E+00  0.000E+00  3.06098E+01  1.653E-01  2.000E+01  2.000E+04 -1.446E-01



1
              HEAD IN LAYER   1 AT END OF TIME STEP   1 IN STRESS PERIOD    7
  ---------------------------------------------------------------------------

          1      2      3      4      5      6      7      8      9     10
         11     12     13     14     15     16     17     18     19     20
         21     22     23     24     25     26     27     28     29     30
 .........................................................................
   1  ****** ****** ****** ****** ****** ****** ****** ****** ****** ******
      ****** ****** ****** ****** ****** ****** ****** ****** ****** ******
      ****** ****** ****** ****** ****** ****** ****** ****** ****** ******
   2  ****** ****** ****** ****** ****** ****** ****** ****** ****** ******
      ****** ****** ****** ****** ****** ****** ****** ****** ****** ******
      ****** ****** ****** ****** ****** ****** ****** ****** ****** ******
   3  ****** ****** ****** ****** ****** ****** ****** ****** ****** ******
      ****** ****** ****** ****** ****** ****** ****** ****** ****** ******
      ****** ****** ****** ****** ****** ****** ****** ****** ****** ******
   4  ****** ****** ****** ****** ****** ****** ****** ****** ****** ******
      ****** ****** ****** ****** ****** ****** ****** ****** ****** ******
      ****** ****** ****** ****** ****** ****** ****** ****** ****** ******
   5  ****** ****** ****** ****** ****** ****** ****** ****** ****** ******
      ****** ****** ****** ****** ****** ****** ****** ****** ****** ******
      ****** ****** ****** ****** ****** ****** ****** ****** ****** ******
   6  ****** ****** ****** ****** ****** ****** ****** ****** ****** ******
      ****** ****** ****** ****** ****** ****** ****** ****** ****** ******
      ****** ****** ****** ****** ****** ****** ****** ****** ****** ******
   7  ****** ****** ****** ****** ****** ****** ****** ****** ****** ******
      ****** ****** ****** ****** ****** ****** ****** ****** ****** ******
      ****** ****** ****** ****** ****** ****** ****** ****** ****** ******
   8  ****** ****** ****** ****** ****** ****** ****** ****** ****** ******
      ****** ****** ****** ****** ****** ****** ****** ****** ****** ******
      ****** ****** ****** ****** ****** ****** ****** ****** ****** ******
   9  ****** ****** ****** ****** ****** ****** ****** ****** ****** ******
      ****** ****** ****** ****** ****** ****** ****** ****** ****** ******
      ****** ****** ****** ****** ****** ****** ****** ****** ****** ******
  10  ****** ****** ****** ****** ****** ****** ****** ****** ****** ******
      ****** ****** ****** ****** ****** ****** ****** ****** ****** ******
      ****** ****** ****** ****** ****** ****** ****** ****** ****** ******
  11  ****** ****** ****** ****** ****** ****** ****** ****** ****** ******
      ****** ****** ****** ****** ****** ****** ****** ****** ****** ******
      ****** ****** ****** ****** ****** ****** ****** ****** ****** ******
  12  ****** ****** ****** ****** ****** ****** ****** ****** ****** ******
      ****** ****** ****** ****** ****** ****** ****** ****** ****** ******
      ****** ****** ****** ****** ****** ****** ****** ****** ****** ******
  13  ****** ****** ****** ****** ****** ****** ****** ****** ****** ******
      ****** ****** ****** ****** ****** ****** ****** ****** ****** ******
      ****** ****** ****** ****** ****** ****** ****** ****** ****** ******
  14  ****** ****** ****** ****** ****** ****** ****** ****** ****** ******
      ****** ****** ****** ****** ****** ****** ****** ****** ****** ******
      ****** ****** ****** ****** ****** ****** ****** ****** ****** ******
  15  ****** ****** ****** ****** ****** ****** ****** ****** ****** ******
      ****** ****** ****** ****** ****** ****** ****** ****** ****** ******
      ****** ****** ****** ****** ****** ****** ****** ****** ****** ******
  16  ****** ****** ****** ****** ****** ****** ****** ****** ****** ******
      ****** ****** ****** ****** ****** ****** ****** ****** ****** ******
      ****** ****** ****** ****** ****** ****** ****** ****** ****** ******
  17  ****** ****** ****** ****** ****** ****** ****** ****** ****** ******
      ****** ****** ****** ****** ****** ****** ****** ****** ****** ******
      ****** ****** ****** ****** ****** ****** ****** ****** ****** ******
  18  ****** ****** ****** ****** ****** ****** ****** ****** ****** ******
      ****** ****** ****** ****** ****** ****** ****** ****** ****** ******
      ****** ****** ****** ****** ****** ****** ****** ****** ****** ******
  19  ****** ****** ****** ****** ****** ****** ****** ****** ****** ******
      ****** ****** ****** ****** ****** ****** ****** ****** ****** ******
      ****** ****** ****** ****** ****** ****** ****** ****** ****** ******
  20  ****** ****** ****** ****** ****** ****** ****** ****** ****** ******
      ****** ****** ****** ****** ****** ****** ****** ****** ****** ******
      ****** ****** ****** ****** ****** ****** ****** ****** ****** ******
  21  ****** ****** ****** ****** ****** ****** ****** ****** ****** ******
      ****** ****** ****** ****** ****** ****** ****** ****** ****** ******
      ****** ****** ****** ****** ****** ****** ****** ****** ****** ******
  22  ****** ****** ****** ****** ****** ****** ****** ****** ****** ******
      ****** ****** ****** ****** ****** ****** ****** ****** ****** ******
      ****** ****** ****** ****** ****** ****** ****** ****** ****** ******
  23  ****** ****** ****** ****** ****** ****** ****** ****** ****** ******
      ****** ****** ****** ****** ****** ****** ****** ****** ****** ******
      ****** ****** ****** ****** ****** ****** ****** ****** ****** ******
  24  ****** ****** ****** ****** ****** ****** ****** ****** ****** ******
      ****** ****** ****** ****** ****** ****** ****** ****** ****** ******
      ****** ****** ****** ****** ****** ****** ****** ****** ****** ******
  25  ****** ****** ****** ****** ****** ****** ****** ****** ****** ******
      ****** ****** ****** ****** ****** ****** ****** ****** ****** ******
      ****** ****** ****** ****** ****** ****** ****** ****** ****** ******

 HEAD WILL BE SAVED ON UNIT   51 AT END OF TIME STEP    1, STRESS PERIOD    7
1
  VOLUMETRIC BUDGET FOR ENTIRE MODEL AT END OF TIME STEP    1, STRESS PERIOD   7
  ------------------------------------------------------------------------------

     CUMULATIVE VOLUMES      L**3       RATES FOR THIS TIME STEP      L**3/T
     ------------------                 ------------------------

           IN:                                      IN:
           ---                                      ---
             STORAGE =    34024361.2855               STORAGE =       22477.6614
       CONSTANT HEAD =    17009554.8686         CONSTANT HEAD =       34871.5037
               WELLS =           0.0000                 WELLS =           0.0000
            RECHARGE =    15097200.0000              RECHARGE =           0.0000
      STREAM LEAKAGE =     5017265.0338        STREAM LEAKAGE =       11220.4904

            TOTAL IN =    71148381.1878              TOTAL IN =       68569.6555

          OUT:                                     OUT:
          ----                                     ----
             STORAGE =      780462.7503               STORAGE =           0.0000
       CONSTANT HEAD =           0.0000         CONSTANT HEAD =           0.0000
               WELLS =    22639556.4396                 WELLS =       35429.6658
            RECHARGE =           0.0000              RECHARGE =           0.0000
      STREAM LEAKAGE =    47728364.6734        STREAM LEAKAGE =       33139.9956

           TOTAL OUT =    71148383.8632             TOTAL OUT =       68569.6614

            IN - OUT =          -2.6754              IN - OUT =      -5.8340E-03

 PERCENT DISCREPANCY =          -0.00     PERCENT DISCREPANCY =          -0.00






         TIME SUMMARY AT END OF TIME STEP    1 IN STRESS PERIOD    7
                    SECONDS     MINUTES      HOURS       DAYS        YEARS
                    -----------------------------------------------------------
   TIME STEP LENGTH 7.86240E+06 1.31040E+05  2184.0      91.000     0.24914    
 STRESS PERIOD TIME 7.86240E+06 1.31040E+05  2184.0      91.000     0.24914    
         TOTAL TIME 5.52096E+07 9.20160E+05  15336.      639.00      1.7495    
1
1
                            STRESS PERIOD NO.    8, LENGTH =   91.00000    
                            -----------------------------------------------

                              NUMBER OF TIME STEPS =     1

                               MULTIPLIER FOR DELT =     1.500

                            INITIAL TIME STEP SIZE =   91.00000    

 WELL NO.  LAYER   ROW   COL   STRESS RATE         
 --------------------------------------------------
      1      1     16     16      -9666.    
      2      1      6     22      -5938.    
      3      1     19     13     -0.1394E+05
      4      1      6     21      -5885.    

      4 WELLS

                 RECHARGE =  1.000000E-03

 REUSING STREAM SEGMENT DATA FROM LAST STRESS PERIOD
 
 SOLVING FOR HEAD 


     6 CALLS TO PCG ROUTINE FOR TIME STEP   1 IN STRESS PERIOD    8
    22 TOTAL ITERATIONS

 OUTPUT CONTROL FOR STRESS PERIOD    8   TIME STEP    1
    SAVE BUDGET
    SAVE HEAD FOR ALL LAYERS
    PRINT HEAD FOR ALL LAYERS
 UBDSV2 SAVING "STREAMFLOW OUT  " ON UNIT  50 AT TIME STEP  1, STRESS PERIOD   8



 STREAM LISTING     PERIOD      8   STEP        1

 LAYER ROW COL. STREAM  RCH.  FLOW INTO     FLOW TO   FLOW OUT OF   OVRLND.     DIRECT     STREAM       STREAM     STREAM     STREAM   STREAMBED  STREAMBED
                SEG.NO.  NO.  STRM. RCH.    AQUIFER    STRM. RCH.    RUNOFF     PRECIP       ET          HEAD       DEPTH      WIDTH   CONDCTNC.   GRADIENT

   1   13    1     1     1    1.0000E+05 -1.7568E+03   1.0176E+05  0.000E+00  0.000E+00  0.000E+00  4.84068E+01  1.454E-01  2.000E+01  2.000E+04 -8.784E-02
   1   13    2     1     2    1.0176E+05 -2.7294E+03   1.0449E+05  0.000E+00  0.000E+00  0.000E+00  4.79314E+01  1.473E-01  2.000E+01  2.000E+04 -1.365E-01
   1   14    3     1     3    1.0449E+05 -4.4562E+02   1.0493E+05  0.000E+00  0.000E+00  0.000E+00  4.74555E+01  1.487E-01  2.000E+01  2.000E+04 -2.228E-02
   1   15    4     1     4    1.0493E+05 -3.9734E+02   1.0533E+05  0.000E+00  0.000E+00  0.000E+00  4.69786E+01  1.491E-01  2.000E+01  2.000E+04 -1.987E-02
   1   16    5     1     5    1.0533E+05 -1.1742E+03   1.0650E+05  0.000E+00  0.000E+00  0.000E+00  4.65020E+01  1.497E-01  2.000E+01  2.000E+04 -5.871E-02
   1   16    6     1     6    1.0650E+05 -7.0732E+02   1.0721E+05  0.000E+00  0.000E+00  0.000E+00  4.60255E+01  1.505E-01  2.000E+01  2.000E+04 -3.537E-02
   1   16    7     1     7    1.0721E+05 -6.1454E+02   1.0783E+05  0.000E+00  0.000E+00  0.000E+00  4.55488E+01  1.511E-01  2.000E+01  2.000E+04 -3.073E-02
   1   16    8     1     8    1.0783E+05 -4.8535E+02   1.0831E+05  0.000E+00  0.000E+00  0.000E+00  4.50720E+01  1.515E-01  2.000E+01  2.000E+04 -2.427E-02
   1   16    9     1     9    1.0831E+05 -2.8947E+02   1.0860E+05  0.000E+00  0.000E+00  0.000E+00  4.45951E+01  1.519E-01  2.000E+01  2.000E+04 -1.447E-02
   1   16   10     1    10    1.0860E+05  4.2211E+00   1.0860E+05  0.000E+00  0.000E+00  0.000E+00  4.41179E+01  1.520E-01  2.000E+01  2.000E+04  2.111E-04
   1   16   11     1    11    1.0860E+05  4.5291E+02   1.0814E+05  0.000E+00  0.000E+00  0.000E+00  4.36404E+01  1.518E-01  2.000E+01  2.000E+04  2.265E-02
   1   16   12     1    12    1.0814E+05  1.6137E+03   1.0653E+05  0.000E+00  0.000E+00  0.000E+00  4.31623E+01  1.509E-01  2.000E+01  2.000E+04  8.068E-02
   1   15   13     1    13    1.0653E+05  9.3658E+02   1.0559E+05  0.000E+00  0.000E+00  0.000E+00  4.26839E+01  1.499E-01  2.000E+01  2.000E+04  4.683E-02
   1   14   14     1    14    1.0559E+05  2.8026E+02   1.0531E+05  0.000E+00  0.000E+00  0.000E+00  4.22062E+01  1.493E-01  2.000E+01  2.000E+04  1.401E-02
   1   13   15     1    15    1.0531E+05 -5.5962E+02   1.0587E+05  0.000E+00  0.000E+00  0.000E+00  4.17290E+01  1.495E-01  2.000E+01  2.000E+04 -2.798E-02
   1   12   16     1    16    1.0587E+05 -1.8320E+03   1.0770E+05  0.000E+00  0.000E+00  0.000E+00  4.12527E+01  1.505E-01  2.000E+01  2.000E+04 -9.160E-02
   1   12   17     1    17    1.0770E+05 -8.3740E+02   1.0854E+05  0.000E+00  0.000E+00  0.000E+00  4.07766E+01  1.516E-01  2.000E+01  2.000E+04 -4.187E-02
   1   12   18     1    18    1.0854E+05 -7.6651E+02   1.0931E+05  0.000E+00  0.000E+00  0.000E+00  4.03000E+01  1.523E-01  2.000E+01  2.000E+04 -3.833E-02
   1   12   19     1    19    1.0931E+05 -1.1316E+03   1.1044E+05  0.000E+00  0.000E+00  0.000E+00  3.98235E+01  1.531E-01  2.000E+01  2.000E+04 -5.658E-02
   1   13   20     1    20    1.1044E+05 -5.1888E+02   1.1096E+05  0.000E+00  0.000E+00  0.000E+00  3.93469E+01  1.537E-01  2.000E+01  2.000E+04 -2.594E-02
   1   14   21     1    21    1.1096E+05 -3.4483E+02   1.1130E+05  0.000E+00  0.000E+00  0.000E+00  3.88700E+01  1.541E-01  2.000E+01  2.000E+04 -1.724E-02
   1   14   22     1    22    1.1130E+05  5.0115E+03   1.0629E+05  0.000E+00  0.000E+00  0.000E+00  3.83908E+01  1.522E-01  2.000E+01  2.000E+04  2.506E-01
   1    9   30     2     1    5.0000E+04 -3.4301E+02   5.0343E+04  0.000E+00  0.000E+00  0.000E+00  4.02411E+01  1.161E-01  2.000E+01  2.000E+04 -1.715E-02
   1    9   29     2     2    5.0343E+04 -6.0107E+02   5.0944E+04  0.000E+00  0.000E+00  0.000E+00  3.99918E+01  1.168E-01  2.000E+01  2.000E+04 -3.005E-02
   1    9   28     2     3    5.0944E+04 -7.4964E+02   5.1694E+04  0.000E+00  0.000E+00  0.000E+00  3.97427E+01  1.177E-01  2.000E+01  2.000E+04 -3.748E-02
   1    9   27     2     4    5.1694E+04 -1.3748E+03   5.3069E+04  0.000E+00  0.000E+00  0.000E+00  3.94941E+01  1.191E-01  2.000E+01  2.000E+04 -6.874E-02
   1   10   26     2     5    5.3069E+04 -7.4566E+02   5.3814E+04  0.000E+00  0.000E+00  0.000E+00  3.92456E+01  1.206E-01  2.000E+01  2.000E+04 -3.728E-02
   1   11   25     2     6    5.3814E+04 -6.4929E+02   5.4463E+04  0.000E+00  0.000E+00  0.000E+00  3.89965E+01  1.215E-01  2.000E+01  2.000E+04 -3.246E-02
   1   12   24     2     7    5.4463E+04 -8.0498E+02   5.5268E+04  0.000E+00  0.000E+00  0.000E+00  3.87475E+01  1.225E-01  2.000E+01  2.000E+04 -4.025E-02
   1   13   23     2     8    5.5268E+04 -1.5914E+02   5.5428E+04  0.000E+00  0.000E+00  0.000E+00  3.84981E+01  1.231E-01  2.000E+01  2.000E+04 -7.957E-03
   1   14   22     2     9    5.5428E+04  2.1322E+03   5.3295E+04  0.000E+00  0.000E+00  0.000E+00  3.82468E+01  1.218E-01  2.000E+01  2.000E+04  1.066E-01
   1   14   22     3     1    1.5959E+05 -8.4651E+03   1.6805E+05  0.000E+00  0.000E+00  0.000E+00  3.77170E+01  1.614E-01  2.000E+01  2.000E+04 -4.233E-01
   1   15   23     3     2    1.6805E+05 -3.7322E+02   1.6843E+05  0.000E+00  0.000E+00  0.000E+00  3.68307E+01  1.640E-01  2.000E+01  2.000E+04 -1.866E-02
   1   15   24     3     3    1.6843E+05 -2.4066E+02   1.6867E+05  0.000E+00  0.000E+00  0.000E+00  3.59420E+01  1.642E-01  2.000E+01  2.000E+04 -1.203E-02
   1   15   25     3     4    1.6867E+05 -2.4969E+02   1.6892E+05  0.000E+00  0.000E+00  0.000E+00  3.50532E+01  1.643E-01  2.000E+01  2.000E+04 -1.248E-02
   1   15   26     3     5    1.6892E+05 -3.1941E+02   1.6924E+05  0.000E+00  0.000E+00  0.000E+00  3.41645E+01  1.645E-01  2.000E+01  2.000E+04 -1.597E-02
   1   16   27     3     6    1.6924E+05 -3.4010E+02   1.6958E+05  0.000E+00  0.000E+00  0.000E+00  3.32758E+01  1.647E-01  2.000E+01  2.000E+04 -1.701E-02
   1   17   28     3     7    1.6958E+05 -1.4506E+03   1.7103E+05  0.000E+00  0.000E+00  0.000E+00  3.23874E+01  1.652E-01  2.000E+01  2.000E+04 -7.253E-02
   1   18   29     3     8    1.7103E+05 -2.6612E+03   1.7369E+05  0.000E+00  0.000E+00  0.000E+00  3.14997E+01  1.664E-01  2.000E+01  2.000E+04 -1.331E-01
   1   18   30     3     9    1.7369E+05 -3.0371E+03   1.7672E+05  0.000E+00  0.000E+00  0.000E+00  3.06125E+01  1.680E-01  2.000E+01  2.000E+04 -1.519E-01



1
              HEAD IN LAYER   1 AT END OF TIME STEP   1 IN STRESS PERIOD    8
  ---------------------------------------------------------------------------

          1      2      3      4      5      6      7      8      9     10
         11     12     13     14     15     16     17     18     19     20
         21     22     23     24     25     26     27     28     29     30
 .........................................................................
   1  ****** ****** ****** ****** ****** ****** ****** ****** ****** ******
      ****** ****** ****** ****** ****** ****** ****** ****** ****** ******
      ****** ****** ****** ****** ****** ****** ****** ****** ****** ******
   2  ****** ****** ****** ****** ****** ****** ****** ****** ****** ******
      ****** ****** ****** ****** ****** ****** ****** ****** ****** ******
      ****** ****** ****** ****** ****** ****** ****** ****** ****** ******
   3  ****** ****** ****** ****** ****** ****** ****** ****** ****** ******
      ****** ****** ****** ****** ****** ****** ****** ****** ****** ******
      ****** ****** ****** ****** ****** ****** ****** ****** ****** ******
   4  ****** ****** ****** ****** ****** ****** ****** ****** ****** ******
      ****** ****** ****** ****** ****** ****** ****** ****** ****** ******
      ****** ****** ****** ****** ****** ****** ****** ****** ****** ******
   5  ****** ****** ****** ****** ****** ****** ****** ****** ****** ******
      ****** ****** ****** ****** ****** ****** ****** ****** ****** ******
      ****** ****** ****** ****** ****** ****** ****** ****** ****** ******
   6  ****** ****** ****** ****** ****** ****** ****** ****** ****** ******
      ****** ****** ****** ****** ****** ****** ****** ****** ****** ******
      ****** ****** ****** ****** ****** ****** ****** ****** ****** ******
   7  ****** ****** ****** ****** ****** ****** ****** ****** ****** ******
      ****** ****** ****** ****** ****** ****** ****** ****** ****** ******
      ****** ****** ****** ****** ****** ****** ****** ****** ****** ******
   8  ****** ****** ****** ****** ****** ****** ****** ****** ****** ******
      ****** ****** ****** ****** ****** ****** ****** ****** ****** ******
      ****** ****** ****** ****** ****** ****** ****** ****** ****** ******
   9  ****** ****** ****** ****** ****** ****** ****** ****** ****** ******
      ****** ****** ****** ****** ****** ****** ****** ****** ****** ******
      ****** ****** ****** ****** ****** ****** ****** ****** ****** ******
  10  ****** ****** ****** ****** ****** ****** ****** ****** ****** ******
      ****** ****** ****** ****** ****** ****** ****** ****** ****** ******
      ****** ****** ****** ****** ****** ****** ****** ****** ****** ******
  11  ****** ****** ****** ****** ****** ****** ****** ****** ****** ******
      ****** ****** ****** ****** ****** ****** ****** ****** ****** ******
      ****** ****** ****** ****** ****** ****** ****** ****** ****** ******
  12  ****** ****** ****** ****** ****** ****** ****** ****** ****** ******
      ****** ****** ****** ****** ****** ****** ****** ****** ****** ******
      ****** ****** ****** ****** ****** ****** ****** ****** ****** ******
  13  ****** ****** ****** ****** ****** ****** ****** ****** ****** ******
      ****** ****** ****** ****** ****** ****** ****** ****** ****** ******
      ****** ****** ****** ****** ****** ****** ****** ****** ****** ******
  14  ****** ****** ****** ****** ****** ****** ****** ****** ****** ******
      ****** ****** ****** ****** ****** ****** ****** ****** ****** ******
      ****** ****** ****** ****** ****** ****** ****** ****** ****** ******
  15  ****** ****** ****** ****** ****** ****** ****** ****** ****** ******
      ****** ****** ****** ****** ****** ****** ****** ****** ****** ******
      ****** ****** ****** ****** ****** ****** ****** ****** ****** ******
  16  ****** ****** ****** ****** ****** ****** ****** ****** ****** ******
      ****** ****** ****** ****** ****** ****** ****** ****** ****** ******
      ****** ****** ****** ****** ****** ****** ****** ****** ****** ******
  17  ****** ****** ****** ****** ****** ****** ****** ****** ****** ******
      ****** ****** ****** ****** ****** ****** ****** ****** ****** ******
      ****** ****** ****** ****** ****** ****** ****** ****** ****** ******
  18  ****** ****** ****** ****** ****** ****** ****** ****** ****** ******
      ****** ****** ****** ****** ****** ****** ****** ****** ****** ******
      ****** ****** ****** ****** ****** ****** ****** ****** ****** ******
  19  ****** ****** ****** ****** ****** ****** ****** ****** ****** ******
      ****** ****** ****** ****** ****** ****** ****** ****** ****** ******
      ****** ****** ****** ****** ****** ****** ****** ****** ****** ******
  20  ****** ****** ****** ****** ****** ****** ****** ****** ****** ******
      ****** ****** ****** ****** ****** ****** ****** ****** ****** ******
      ****** ****** ****** ****** ****** ****** ****** ****** ****** ******
  21  ****** ****** ****** ****** ****** ****** ****** ****** ****** ******
      ****** ****** ****** ****** ****** ****** ****** ****** ****** ******
      ****** ****** ****** ****** ****** ****** ****** ****** ****** ******
  22  ****** ****** ****** ****** ****** ****** ****** ****** ****** ******
      ****** ****** ****** ****** ****** ****** ****** ****** ****** ******
      ****** ****** ****** ****** ****** ****** ****** ****** ****** ******
  23  ****** ****** ****** ****** ****** ****** ****** ****** ****** ******
      ****** ****** ****** ****** ****** ****** ****** ****** ****** ******
      ****** ****** ****** ****** ****** ****** ****** ****** ****** ******
  24  ****** ****** ****** ****** ****** ****** ****** ****** ****** ******
      ****** ****** ****** ****** ****** ****** ****** ****** ****** ******
      ****** ****** ****** ****** ****** ****** ****** ****** ****** ******
  25  ****** ****** ****** ****** ****** ****** ****** ****** ****** ******
      ****** ****** ****** ****** ****** ****** ****** ****** ****** ******
      ****** ****** ****** ****** ****** ****** ****** ****** ****** ******

 HEAD WILL BE SAVED ON UNIT   51 AT END OF TIME STEP    1, STRESS PERIOD    8
1
  VOLUMETRIC BUDGET FOR ENTIRE MODEL AT END OF TIME STEP    1, STRESS PERIOD   8
  ------------------------------------------------------------------------------

     CUMULATIVE VOLUMES      L**3       RATES FOR THIS TIME STEP      L**3/T
     ------------------                 ------------------------

           IN:                                      IN:
           ---                                      ---
             STORAGE =    34156489.9315               STORAGE =        1451.9631
       CONSTANT HEAD =    20157285.8176         CONSTANT HEAD =       34590.4500
               WELLS =           0.0000                 WELLS =           0.0000
            RECHARGE =    17608800.0000              RECHARGE =       27600.0000
      STREAM LEAKAGE =     5966517.0423        STREAM LEAKAGE =       10431.3408

            TOTAL IN =    77889092.7914              TOTAL IN =       74073.7539

          OUT:                                     OUT:
          ----                                     ----
             STORAGE =      915903.6241               STORAGE =        1488.3613
       CONSTANT HEAD =           0.0000         CONSTANT HEAD =           0.0000
               WELLS =    25863656.0265                 WELLS =       35429.6658
            RECHARGE =           0.0000              RECHARGE =           0.0000
      STREAM LEAKAGE =    51109535.0348        STREAM LEAKAGE =       37155.7183

           TOTAL OUT =    77889094.6854             TOTAL OUT =       74073.7453

            IN - OUT =          -1.8939              IN - OUT =       8.5876E-03

 PERCENT DISCREPANCY =          -0.00     PERCENT DISCREPANCY =           0.00






         TIME SUMMARY AT END OF TIME STEP    1 IN STRESS PERIOD    8
                    SECONDS     MINUTES      HOURS       DAYS        YEARS
                    -----------------------------------------------------------
   TIME STEP LENGTH 7.86240E+06 1.31040E+05  2184.0      91.000     0.24914    
 STRESS PERIOD TIME 7.86240E+06 1.31040E+05  2184.0      91.000     0.24914    
         TOTAL TIME 6.30720E+07 1.05120E+06  17520.      730.00      1.9986    
1
1
                            STRESS PERIOD NO.    9, LENGTH =   92.00000    
                            -----------------------------------------------

                              NUMBER OF TIME STEPS =     1

                               MULTIPLIER FOR DELT =     1.500

                            INITIAL TIME STEP SIZE =   92.00000    

 WELL NO.  LAYER   ROW   COL   STRESS RATE         
 --------------------------------------------------
      1      1     16     16      -9666.    
      2      1      6     22      -5938.    
      3      1     19     13     -0.1394E+05
      4      1      6     21      -5885.    

      4 WELLS

                 RECHARGE =  5.000000E-04

 REUSING STREAM SEGMENT DATA FROM LAST STRESS PERIOD
 
 SOLVING FOR HEAD 


     6 CALLS TO PCG ROUTINE FOR TIME STEP   1 IN STRESS PERIOD    9
    23 TOTAL ITERATIONS

 OUTPUT CONTROL FOR STRESS PERIOD    9   TIME STEP    1
    SAVE BUDGET
    SAVE HEAD FOR ALL LAYERS
    PRINT HEAD FOR ALL LAYERS
 UBDSV2 SAVING "STREAMFLOW OUT  " ON UNIT  50 AT TIME STEP  1, STRESS PERIOD   9



 STREAM LISTING     PERIOD      9   STEP        1

 LAYER ROW COL. STREAM  RCH.  FLOW INTO     FLOW TO   FLOW OUT OF   OVRLND.     DIRECT     STREAM       STREAM     STREAM     STREAM   STREAMBED  STREAMBED
                SEG.NO.  NO.  STRM. RCH.    AQUIFER    STRM. RCH.    RUNOFF     PRECIP       ET          HEAD       DEPTH      WIDTH   CONDCTNC.   GRADIENT

   1   13    1     1     1    1.0000E+05 -1.5427E+03   1.0154E+05  0.000E+00  0.000E+00  0.000E+00  4.84067E+01  1.453E-01  2.000E+01  2.000E+04 -7.714E-02
   1   13    2     1     2    1.0154E+05 -2.4870E+03   1.0403E+05  0.000E+00  0.000E+00  0.000E+00  4.79311E+01  1.471E-01  2.000E+01  2.000E+04 -1.244E-01
   1   14    3     1     3    1.0403E+05 -3.7480E+02   1.0440E+05  0.000E+00  0.000E+00  0.000E+00  4.74551E+01  1.483E-01  2.000E+01  2.000E+04 -1.874E-02
   1   15    4     1     4    1.0440E+05 -3.2539E+02   1.0473E+05  0.000E+00  0.000E+00  0.000E+00  4.69781E+01  1.486E-01  2.000E+01  2.000E+04 -1.627E-02
   1   16    5     1     5    1.0473E+05 -9.8002E+02   1.0571E+05  0.000E+00  0.000E+00  0.000E+00  4.65014E+01  1.491E-01  2.000E+01  2.000E+04 -4.900E-02
   1   16    6     1     6    1.0571E+05 -5.8654E+02   1.0630E+05  0.000E+00  0.000E+00  0.000E+00  4.60248E+01  1.498E-01  2.000E+01  2.000E+04 -2.933E-02
   1   16    7     1     7    1.0630E+05 -4.9754E+02   1.0679E+05  0.000E+00  0.000E+00  0.000E+00  4.55480E+01  1.503E-01  2.000E+01  2.000E+04 -2.488E-02
   1   16    8     1     8    1.0679E+05 -3.6988E+02   1.0716E+05  0.000E+00  0.000E+00  0.000E+00  4.50711E+01  1.506E-01  2.000E+01  2.000E+04 -1.849E-02
   1   16    9     1     9    1.0716E+05 -1.7557E+02   1.0734E+05  0.000E+00  0.000E+00  0.000E+00  4.45940E+01  1.509E-01  2.000E+01  2.000E+04 -8.778E-03
   1   16   10     1    10    1.0734E+05  1.1619E+02   1.0722E+05  0.000E+00  0.000E+00  0.000E+00  4.41168E+01  1.509E-01  2.000E+01  2.000E+04  5.809E-03
   1   16   11     1    11    1.0722E+05  5.6402E+02   1.0666E+05  0.000E+00  0.000E+00  0.000E+00  4.36392E+01  1.506E-01  2.000E+01  2.000E+04  2.820E-02
   1   16   12     1    12    1.0666E+05  1.8039E+03   1.0486E+05  0.000E+00  0.000E+00  0.000E+00  4.31610E+01  1.496E-01  2.000E+01  2.000E+04  9.019E-02
   1   15   13     1    13    1.0486E+05  1.1474E+03   1.0371E+05  0.000E+00  0.000E+00  0.000E+00  4.26824E+01  1.483E-01  2.000E+01  2.000E+04  5.737E-02
   1   14   14     1    14    1.0371E+05  5.0427E+02   1.0320E+05  0.000E+00  0.000E+00  0.000E+00  4.22044E+01  1.476E-01  2.000E+01  2.000E+04  2.521E-02
   1   13   15     1    15    1.0320E+05 -3.3001E+02   1.0353E+05  0.000E+00  0.000E+00  0.000E+00  4.17271E+01  1.476E-01  2.000E+01  2.000E+04 -1.650E-02
   1   12   16     1    16    1.0353E+05 -1.5945E+03   1.0513E+05  0.000E+00  0.000E+00  0.000E+00  4.12507E+01  1.484E-01  2.000E+01  2.000E+04 -7.973E-02
   1   12   17     1    17    1.0513E+05 -6.7404E+02   1.0580E+05  0.000E+00  0.000E+00  0.000E+00  4.07743E+01  1.493E-01  2.000E+01  2.000E+04 -3.370E-02
   1   12   18     1    18    1.0580E+05 -6.1058E+02   1.0641E+05  0.000E+00  0.000E+00  0.000E+00  4.02976E+01  1.499E-01  2.000E+01  2.000E+04 -3.053E-02
   1   12   19     1    19    1.0641E+05 -9.4399E+02   1.0736E+05  0.000E+00  0.000E+00  0.000E+00  3.98210E+01  1.505E-01  2.000E+01  2.000E+04 -4.720E-02
   1   13   20     1    20    1.0736E+05 -3.4429E+02   1.0770E+05  0.000E+00  0.000E+00  0.000E+00  3.93443E+01  1.511E-01  2.000E+01  2.000E+04 -1.721E-02
   1   14   21     1    21    1.0770E+05 -1.7158E+02   1.0787E+05  0.000E+00  0.000E+00  0.000E+00  3.88672E+01  1.513E-01  2.000E+01  2.000E+04 -8.579E-03
   1   14   22     1    22    1.0787E+05  5.0491E+03   1.0282E+05  0.000E+00  0.000E+00  0.000E+00  3.83879E+01  1.492E-01  2.000E+01  2.000E+04  2.525E-01
   1    9   30     2     1    5.0000E+04 -2.1931E+02   5.0219E+04  0.000E+00  0.000E+00  0.000E+00  4.02410E+01  1.160E-01  2.000E+01  2.000E+04 -1.097E-02
   1    9   29     2     2    5.0219E+04 -4.7712E+02   5.0696E+04  0.000E+00  0.000E+00  0.000E+00  3.99915E+01  1.165E-01  2.000E+01  2.000E+04 -2.386E-02
   1    9   28     2     3    5.0696E+04 -6.2376E+02   5.1320E+04  0.000E+00  0.000E+00  0.000E+00  3.97423E+01  1.173E-01  2.000E+01  2.000E+04 -3.119E-02
   1    9   27     2     4    5.1320E+04 -1.1975E+03   5.2518E+04  0.000E+00  0.000E+00  0.000E+00  3.94935E+01  1.185E-01  2.000E+01  2.000E+04 -5.987E-02
   1   10   26     2     5    5.2518E+04 -5.7146E+02   5.3089E+04  0.000E+00  0.000E+00  0.000E+00  3.92447E+01  1.197E-01  2.000E+01  2.000E+04 -2.857E-02
   1   11   25     2     6    5.3089E+04 -4.8266E+02   5.3572E+04  0.000E+00  0.000E+00  0.000E+00  3.89954E+01  1.204E-01  2.000E+01  2.000E+04 -2.413E-02
   1   12   24     2     7    5.3572E+04 -6.5178E+02   5.4224E+04  0.000E+00  0.000E+00  0.000E+00  3.87462E+01  1.212E-01  2.000E+01  2.000E+04 -3.259E-02
   1   13   23     2     8    5.4224E+04 -1.1196E+02   5.4336E+04  0.000E+00  0.000E+00  0.000E+00  3.84967E+01  1.217E-01  2.000E+01  2.000E+04 -5.598E-03
   1   14   22     2     9    5.4336E+04  2.1976E+03   5.2138E+04  0.000E+00  0.000E+00  0.000E+00  3.82453E+01  1.203E-01  2.000E+01  2.000E+04  1.099E-01
   1   14   22     3     1    1.5496E+05 -8.4246E+03   1.6339E+05  0.000E+00  0.000E+00  0.000E+00  3.77142E+01  1.586E-01  2.000E+01  2.000E+04 -4.212E-01
   1   15   23     3     2    1.6339E+05 -3.2027E+02   1.6371E+05  0.000E+00  0.000E+00  0.000E+00  3.68279E+01  1.612E-01  2.000E+01  2.000E+04 -1.601E-02
   1   15   24     3     3    1.6371E+05 -1.9746E+02   1.6390E+05  0.000E+00  0.000E+00  0.000E+00  3.59392E+01  1.614E-01  2.000E+01  2.000E+04 -9.873E-03
   1   15   25     3     4    1.6390E+05 -2.0626E+02   1.6411E+05  0.000E+00  0.000E+00  0.000E+00  3.50504E+01  1.615E-01  2.000E+01  2.000E+04 -1.031E-02
   1   15   26     3     5    1.6411E+05 -2.7173E+02   1.6438E+05  0.000E+00  0.000E+00  0.000E+00  3.41617E+01  1.617E-01  2.000E+01  2.000E+04 -1.359E-02
   1   16   27     3     6    1.6438E+05 -2.8392E+02   1.6467E+05  0.000E+00  0.000E+00  0.000E+00  3.32729E+01  1.618E-01  2.000E+01  2.000E+04 -1.420E-02
   1   17   28     3     7    1.6467E+05 -1.2964E+03   1.6596E+05  0.000E+00  0.000E+00  0.000E+00  3.23845E+01  1.623E-01  2.000E+01  2.000E+04 -6.482E-02
   1   18   29     3     8    1.6596E+05 -2.4839E+03   1.6845E+05  0.000E+00  0.000E+00  0.000E+00  3.14967E+01  1.634E-01  2.000E+01  2.000E+04 -1.242E-01
   1   18   30     3     9    1.6845E+05 -2.9040E+03   1.7135E+05  0.000E+00  0.000E+00  0.000E+00  3.06094E+01  1.650E-01  2.000E+01  2.000E+04 -1.452E-01



1
              HEAD IN LAYER   1 AT END OF TIME STEP   1 IN STRESS PERIOD    9
  ---------------------------------------------------------------------------

          1      2      3      4      5      6      7      8      9     10
         11     12     13     14     15     16     17     18     19     20
         21     22     23     24     25     26     27     28     29     30
 .........................................................................
   1  ****** ****** ****** ****** ****** ****** ****** ****** ****** ******
      ****** ****** ****** ****** ****** ****** ****** ****** ****** ******
      ****** ****** ****** ****** ****** ****** ****** ****** ****** ******
   2  ****** ****** ****** ****** ****** ****** ****** ****** ****** ******
      ****** ****** ****** ****** ****** ****** ****** ****** ****** ******
      ****** ****** ****** ****** ****** ****** ****** ****** ****** ******
   3  ****** ****** ****** ****** ****** ****** ****** ****** ****** ******
      ****** ****** ****** ****** ****** ****** ****** ****** ****** ******
      ****** ****** ****** ****** ****** ****** ****** ****** ****** ******
   4  ****** ****** ****** ****** ****** ****** ****** ****** ****** ******
      ****** ****** ****** ****** ****** ****** ****** ****** ****** ******
      ****** ****** ****** ****** ****** ****** ****** ****** ****** ******
   5  ****** ****** ****** ****** ****** ****** ****** ****** ****** ******
      ****** ****** ****** ****** ****** ****** ****** ****** ****** ******
      ****** ****** ****** ****** ****** ****** ****** ****** ****** ******
   6  ****** ****** ****** ****** ****** ****** ****** ****** ****** ******
      ****** ****** ****** ****** ****** ****** ****** ****** ****** ******
      ****** ****** ****** ****** ****** ****** ****** ****** ****** ******
   7  ****** ****** ****** ****** ****** ****** ****** ****** ****** ******
      ****** ****** ****** ****** ****** ****** ****** ****** ****** ******
      ****** ****** ****** ****** ****** ****** ****** ****** ****** ******
   8  ****** ****** ****** ****** ****** ****** ****** ****** ****** ******
      ****** ****** ****** ****** ****** ****** ****** ****** ****** ******
      ****** ****** ****** ****** ****** ****** ****** ****** ****** ******
   9  ****** ****** ****** ****** ****** ****** ****** ****** ****** ******
      ****** ****** ****** ****** ****** ****** ****** ****** ****** ******
      ****** ****** ****** ****** ****** ****** ****** ****** ****** ******
  10  ****** ****** ****** ****** ****** ****** ****** ****** ****** ******
      ****** ****** ****** ****** ****** ****** ****** ****** ****** ******
      ****** ****** ****** ****** ****** ****** ****** ****** ****** ******
  11  ****** ****** ****** ****** ****** ****** ****** ****** ****** ******
      ****** ****** ****** ****** ****** ****** ****** ****** ****** ******
      ****** ****** ****** ****** ****** ****** ****** ****** ****** ******
  12  ****** ****** ****** ****** ****** ****** ****** ****** ****** ******
      ****** ****** ****** ****** ****** ****** ****** ****** ****** ******
      ****** ****** ****** ****** ****** ****** ****** ****** ****** ******
  13  ****** ****** ****** ****** ****** ****** ****** ****** ****** ******
      ****** ****** ****** ****** ****** ****** ****** ****** ****** ******
      ****** ****** ****** ****** ****** ****** ****** ****** ****** ******
  14  ****** ****** ****** ****** ****** ****** ****** ****** ****** ******
      ****** ****** ****** ****** ****** ****** ****** ****** ****** ******
      ****** ****** ****** ****** ****** ****** ****** ****** ****** ******
  15  ****** ****** ****** ****** ****** ****** ****** ****** ****** ******
      ****** ****** ****** ****** ****** ****** ****** ****** ****** ******
      ****** ****** ****** ****** ****** ****** ****** ****** ****** ******
  16  ****** ****** ****** ****** ****** ****** ****** ****** ****** ******
      ****** ****** ****** ****** ****** ****** ****** ****** ****** ******
      ****** ****** ****** ****** ****** ****** ****** ****** ****** ******
  17  ****** ****** ****** ****** ****** ****** ****** ****** ****** ******
      ****** ****** ****** ****** ****** ****** ****** ****** ****** ******
      ****** ****** ****** ****** ****** ****** ****** ****** ****** ******
  18  ****** ****** ****** ****** ****** ****** ****** ****** ****** ******
      ****** ****** ****** ****** ****** ****** ****** ****** ****** ******
      ****** ****** ****** ****** ****** ****** ****** ****** ****** ******
  19  ****** ****** ****** ****** ****** ****** ****** ****** ****** ******
      ****** ****** ****** ****** ****** ****** ****** ****** ****** ******
      ****** ****** ****** ****** ****** ****** ****** ****** ****** ******
  20  ****** ****** ****** ****** ****** ****** ****** ****** ****** ******
      ****** ****** ****** ****** ****** ****** ****** ****** ****** ******
      ****** ****** ****** ****** ****** ****** ****** ****** ****** ******
  21  ****** ****** ****** ****** ****** ****** ****** ****** ****** ******
      ****** ****** ****** ****** ****** ****** ****** ****** ****** ******
      ****** ****** ****** ****** ****** ****** ****** ****** ****** ******
  22  ****** ****** ****** ****** ****** ****** ****** ****** ****** ******
      ****** ****** ****** ****** ****** ****** ****** ****** ****** ******
      ****** ****** ****** ****** ****** ****** ****** ****** ****** ******
  23  ****** ****** ****** ****** ****** ****** ****** ****** ****** ******
      ****** ****** ****** ****** ****** ****** ****** ****** ****** ******
      ****** ****** ****** ****** ****** ****** ****** ****** ****** ******
  24  ****** ****** ****** ****** ****** ****** ****** ****** ****** ******
      ****** ****** ****** ****** ****** ****** ****** ****** ****** ******
      ****** ****** ****** ****** ****** ****** ****** ****** ****** ******
  25  ****** ****** ****** ****** ****** ****** ****** ****** ****** ******
      ****** ****** ****** ****** ****** ****** ****** ****** ****** ******
      ****** ****** ****** ****** ****** ****** ****** ****** ****** ******

 HEAD WILL BE SAVED ON UNIT   51 AT END OF TIME STEP    1, STRESS PERIOD    9
1
  VOLUMETRIC BUDGET FOR ENTIRE MODEL AT END OF TIME STEP    1, STRESS PERIOD   9
  ------------------------------------------------------------------------------

     CUMULATIVE VOLUMES      L**3       RATES FOR THIS TIME STEP      L**3/T
     ------------------                 ------------------------

           IN:                                      IN:
           ---                                      ---
             STORAGE =    34820437.4739               STORAGE =        7216.8211
       CONSTANT HEAD =    23447470.5326         CONSTANT HEAD =       35762.8773
               WELLS =           0.0000                 WELLS =           0.0000
            RECHARGE =    18878400.0000              RECHARGE =       13800.0000
      STREAM LEAKAGE =     7013709.2343        STREAM LEAKAGE =       11382.5238

            TOTAL IN =    84160017.2408              TOTAL IN =       68162.2223

          OUT:                                     OUT:
          ----                                     ----
             STORAGE =      915903.6241               STORAGE =           0.0000
       CONSTANT HEAD =           0.0000         CONSTANT HEAD =           0.0000
               WELLS =    29123185.2791                 WELLS =       35429.6658
            RECHARGE =           0.0000              RECHARGE =           0.0000
      STREAM LEAKAGE =    54120930.3059        STREAM LEAKAGE =       32732.5573

           TOTAL OUT =    84160019.2091             TOTAL OUT =       68162.2231

            IN - OUT =          -1.9683              IN - OUT =      -8.0876E-04

 PERCENT DISCREPANCY =          -0.00     PERCENT DISCREPANCY =          -0.00






         TIME SUMMARY AT END OF TIME STEP    1 IN STRESS PERIOD    9
                    SECONDS     MINUTES      HOURS       DAYS        YEARS
                    -----------------------------------------------------------
   TIME STEP LENGTH 7.94880E+06 1.32480E+05  2208.0      92.000     0.25188    
 STRESS PERIOD TIME 7.94880E+06 1.32480E+05  2208.0      92.000     0.25188    
         TOTAL TIME 7.10208E+07 1.18368E+06  19728.      822.00      2.2505    
1
1
                            STRESS PERIOD NO.   10, LENGTH =   91.00000    
                            -----------------------------------------------

                              NUMBER OF TIME STEPS =     1

                               MULTIPLIER FOR DELT =     1.500

                            INITIAL TIME STEP SIZE =   91.00000    

 WELL NO.  LAYER   ROW   COL   STRESS RATE         
 --------------------------------------------------
      1      1     16     16      -9666.    
      2      1      6     22      -5938.    
      3      1     19     13     -0.1394E+05
      4      1      6     21      -5885.    

      4 WELLS

                 RECHARGE =  2.000000E-03

 REUSING STREAM SEGMENT DATA FROM LAST STRESS PERIOD
 
 SOLVING FOR HEAD 


     7 CALLS TO PCG ROUTINE FOR TIME STEP   1 IN STRESS PERIOD   10
    26 TOTAL ITERATIONS

 OUTPUT CONTROL FOR STRESS PERIOD   10   TIME STEP    1
    SAVE BUDGET
    SAVE HEAD FOR ALL LAYERS
    PRINT HEAD FOR ALL LAYERS
 UBDSV2 SAVING "STREAMFLOW OUT  " ON UNIT  50 AT TIME STEP  1, STRESS PERIOD  10



 STREAM LISTING     PERIOD     10   STEP        1

 LAYER ROW COL. STREAM  RCH.  FLOW INTO     FLOW TO   FLOW OUT OF   OVRLND.     DIRECT     STREAM       STREAM     STREAM     STREAM   STREAMBED  STREAMBED
                SEG.NO.  NO.  STRM. RCH.    AQUIFER    STRM. RCH.    RUNOFF     PRECIP       ET          HEAD       DEPTH      WIDTH   CONDCTNC.   GRADIENT

   1   13    1     1     1    1.0000E+05 -1.9955E+03   1.0200E+05  0.000E+00  0.000E+00  0.000E+00  4.84069E+01  1.455E-01  2.000E+01  2.000E+04 -9.977E-02
   1   13    2     1     2    1.0200E+05 -2.9889E+03   1.0498E+05  0.000E+00  0.000E+00  0.000E+00  4.79318E+01  1.477E-01  2.000E+01  2.000E+04 -1.494E-01
   1   14    3     1     3    1.0498E+05 -5.6134E+02   1.0555E+05  0.000E+00  0.000E+00  0.000E+00  4.74560E+01  1.492E-01  2.000E+01  2.000E+04 -2.807E-02
   1   15    4     1     4    1.0555E+05 -5.2478E+02   1.0607E+05  0.000E+00  0.000E+00  0.000E+00  4.69792E+01  1.496E-01  2.000E+01  2.000E+04 -2.624E-02
   1   16    5     1     5    1.0607E+05 -1.5981E+03   1.0767E+05  0.000E+00  0.000E+00  0.000E+00  4.65028E+01  1.505E-01  2.000E+01  2.000E+04 -7.991E-02
   1   16    6     1     6    1.0767E+05 -9.4838E+02   1.0862E+05  0.000E+00  0.000E+00  0.000E+00  4.60266E+01  1.516E-01  2.000E+01  2.000E+04 -4.742E-02
   1   16    7     1     7    1.0862E+05 -8.4164E+02   1.0946E+05  0.000E+00  0.000E+00  0.000E+00  4.55501E+01  1.524E-01  2.000E+01  2.000E+04 -4.208E-02
   1   16    8     1     8    1.0946E+05 -7.0852E+02   1.1017E+05  0.000E+00  0.000E+00  0.000E+00  4.50735E+01  1.530E-01  2.000E+01  2.000E+04 -3.543E-02
   1   16    9     1     9    1.1017E+05 -5.1265E+02   1.1068E+05  0.000E+00  0.000E+00  0.000E+00  4.45967E+01  1.535E-01  2.000E+01  2.000E+04 -2.563E-02
   1   16   10     1    10    1.1068E+05 -2.2102E+02   1.1090E+05  0.000E+00  0.000E+00  0.000E+00  4.41197E+01  1.538E-01  2.000E+01  2.000E+04 -1.105E-02
   1   16   11     1    11    1.1090E+05  2.2343E+02   1.1068E+05  0.000E+00  0.000E+00  0.000E+00  4.36425E+01  1.538E-01  2.000E+01  2.000E+04  1.117E-02
   1   16   12     1    12    1.1068E+05  1.2354E+03   1.0944E+05  0.000E+00  0.000E+00  0.000E+00  4.31646E+01  1.532E-01  2.000E+01  2.000E+04  6.177E-02
   1   15   13     1    13    1.0944E+05  5.6159E+02   1.0888E+05  0.000E+00  0.000E+00  0.000E+00  4.26866E+01  1.525E-01  2.000E+01  2.000E+04  2.808E-02
   1   14   14     1    14    1.0888E+05 -8.8952E+01   1.0897E+05  0.000E+00  0.000E+00  0.000E+00  4.22091E+01  1.523E-01  2.000E+01  2.000E+04 -4.448E-03
   1   13   15     1    15    1.0897E+05 -9.1338E+02   1.0988E+05  0.000E+00  0.000E+00  0.000E+00  4.17322E+01  1.527E-01  2.000E+01  2.000E+04 -4.567E-02
   1   12   16     1    16    1.0988E+05 -2.1567E+03   1.1204E+05  0.000E+00  0.000E+00  0.000E+00  4.12562E+01  1.540E-01  2.000E+01  2.000E+04 -1.078E-01
   1   12   17     1    17    1.1204E+05 -1.0995E+03   1.1314E+05  0.000E+00  0.000E+00  0.000E+00  4.07803E+01  1.553E-01  2.000E+01  2.000E+04 -5.497E-02
   1   12   18     1    18    1.1314E+05 -1.0318E+03   1.1417E+05  0.000E+00  0.000E+00  0.000E+00  4.03039E+01  1.562E-01  2.000E+01  2.000E+04 -5.159E-02
   1   12   19     1    19    1.1417E+05 -1.4624E+03   1.1563E+05  0.000E+00  0.000E+00  0.000E+00  3.98277E+01  1.572E-01  2.000E+01  2.000E+04 -7.312E-02
   1   13   20     1    20    1.1563E+05 -8.6501E+02   1.1650E+05  0.000E+00  0.000E+00  0.000E+00  3.93514E+01  1.582E-01  2.000E+01  2.000E+04 -4.325E-02
   1   14   21     1    21    1.1650E+05 -6.9556E+02   1.1719E+05  0.000E+00  0.000E+00  0.000E+00  3.88747E+01  1.588E-01  2.000E+01  2.000E+04 -3.478E-02
   1   14   22     1    22    1.1719E+05  4.9249E+03   1.1227E+05  0.000E+00  0.000E+00  0.000E+00  3.83957E+01  1.571E-01  2.000E+01  2.000E+04  2.462E-01
   1    9   30     2     1    5.0000E+04 -6.3341E+02   5.0633E+04  0.000E+00  0.000E+00  0.000E+00  4.02413E+01  1.163E-01  2.000E+01  2.000E+04 -3.167E-02
   1    9   29     2     2    5.0633E+04 -8.8894E+02   5.1522E+04  0.000E+00  0.000E+00  0.000E+00  3.99924E+01  1.174E-01  2.000E+01  2.000E+04 -4.445E-02
   1    9   28     2     3    5.1522E+04 -1.0348E+03   5.2557E+04  0.000E+00  0.000E+00  0.000E+00  3.97437E+01  1.187E-01  2.000E+01  2.000E+04 -5.174E-02
   1    9   27     2     4    5.2557E+04 -1.7502E+03   5.4307E+04  0.000E+00  0.000E+00  0.000E+00  3.94956E+01  1.206E-01  2.000E+01  2.000E+04 -8.751E-02
   1   10   26     2     5    5.4307E+04 -1.1243E+03   5.5432E+04  0.000E+00  0.000E+00  0.000E+00  3.92475E+01  1.225E-01  2.000E+01  2.000E+04 -5.621E-02
   1   11   25     2     6    5.5432E+04 -1.0110E+03   5.6443E+04  0.000E+00  0.000E+00  0.000E+00  3.89989E+01  1.239E-01  2.000E+01  2.000E+04 -5.055E-02
   1   12   24     2     7    5.6443E+04 -1.1300E+03   5.7573E+04  0.000E+00  0.000E+00  0.000E+00  3.87504E+01  1.254E-01  2.000E+01  2.000E+04 -5.650E-02
   1   13   23     2     8    5.7573E+04 -2.6067E+02   5.7833E+04  0.000E+00  0.000E+00  0.000E+00  3.85013E+01  1.263E-01  2.000E+01  2.000E+04 -1.303E-02
   1   14   22     2     9    5.7833E+04  2.0127E+03   5.5821E+04  0.000E+00  0.000E+00  0.000E+00  3.82501E+01  1.251E-01  2.000E+01  2.000E+04  1.006E-01
   1   14   22     3     1    1.6809E+05 -8.5503E+03   1.7664E+05  0.000E+00  0.000E+00  0.000E+00  3.77220E+01  1.664E-01  2.000E+01  2.000E+04 -4.275E-01
   1   15   23     3     2    1.7664E+05 -4.8258E+02   1.7712E+05  0.000E+00  0.000E+00  0.000E+00  3.68357E+01  1.690E-01  2.000E+01  2.000E+04 -2.413E-02
   1   15   24     3     3    1.7712E+05 -3.3451E+02   1.7746E+05  0.000E+00  0.000E+00  0.000E+00  3.59470E+01  1.692E-01  2.000E+01  2.000E+04 -1.673E-02
   1   15   25     3     4    1.7746E+05 -3.4674E+02   1.7780E+05  0.000E+00  0.000E+00  0.000E+00  3.50583E+01  1.694E-01  2.000E+01  2.000E+04 -1.734E-02
   1   15   26     3     5    1.7780E+05 -4.3390E+02   1.7824E+05  0.000E+00  0.000E+00  0.000E+00  3.41697E+01  1.697E-01  2.000E+01  2.000E+04 -2.169E-02
   1   16   27     3     6    1.7824E+05 -4.6966E+02   1.7871E+05  0.000E+00  0.000E+00  0.000E+00  3.32810E+01  1.699E-01  2.000E+01  2.000E+04 -2.348E-02
   1   17   28     3     7    1.7871E+05 -1.8166E+03   1.8052E+05  0.000E+00  0.000E+00  0.000E+00  3.23928E+01  1.706E-01  2.000E+01  2.000E+04 -9.083E-02
   1   18   29     3     8    1.8052E+05 -3.0344E+03   1.8356E+05  0.000E+00  0.000E+00  0.000E+00  3.15053E+01  1.719E-01  2.000E+01  2.000E+04 -1.517E-01
   1   18   30     3     9    1.8356E+05 -3.3288E+03   1.8689E+05  0.000E+00  0.000E+00  0.000E+00  3.06182E+01  1.737E-01  2.000E+01  2.000E+04 -1.664E-01



1
              HEAD IN LAYER   1 AT END OF TIME STEP   1 IN STRESS PERIOD   10
  ---------------------------------------------------------------------------

          1      2      3      4      5      6      7      8      9     10
         11     12     13     14     15     16     17     18     19     20
         21     22     23     24     25     26     27     28     29     30
 .........................................................................
   1  ****** ****** ****** ****** ****** ****** ****** ****** ****** ******
      ****** ****** ****** ****** ****** ****** ****** ****** ****** ******
      ****** ****** ****** ****** ****** ****** ****** ****** ****** ******
   2  ****** ****** ****** ****** ****** ****** ****** ****** ****** ******
      ****** ****** ****** ****** ****** ****** ****** ****** ****** ******
      ****** ****** ****** ****** ****** ****** ****** ****** ****** ******
   3  ****** ****** ****** ****** ****** ****** ****** ****** ****** ******
      ****** ****** ****** ****** ****** ****** ****** ****** ****** ******
      ****** ****** ****** ****** ****** ****** ****** ****** ****** ******
   4  ****** ****** ****** ****** ****** ****** ****** ****** ****** ******
      ****** ****** ****** ****** ****** ****** ****** ****** ****** ******
      ****** ****** ****** ****** ****** ****** ****** ****** ****** ******
   5  ****** ****** ****** ****** ****** ****** ****** ****** ****** ******
      ****** ****** ****** ****** ****** ****** ****** ****** ****** ******
      ****** ****** ****** ****** ****** ****** ****** ****** ****** ******
   6  ****** ****** ****** ****** ****** ****** ****** ****** ****** ******
      ****** ****** ****** ****** ****** ****** ****** ****** ****** ******
      ****** ****** ****** ****** ****** ****** ****** ****** ****** ******
   7  ****** ****** ****** ****** ****** ****** ****** ****** ****** ******
      ****** ****** ****** ****** ****** ****** ****** ****** ****** ******
      ****** ****** ****** ****** ****** ****** ****** ****** ****** ******
   8  ****** ****** ****** ****** ****** ****** ****** ****** ****** ******
      ****** ****** ****** ****** ****** ****** ****** ****** ****** ******
      ****** ****** ****** ****** ****** ****** ****** ****** ****** ******
   9  ****** ****** ****** ****** ****** ****** ****** ****** ****** ******
      ****** ****** ****** ****** ****** ****** ****** ****** ****** ******
      ****** ****** ****** ****** ****** ****** ****** ****** ****** ******
  10  ****** ****** ****** ****** ****** ****** ****** ****** ****** ******
      ****** ****** ****** ****** ****** ****** ****** ****** ****** ******
      ****** ****** ****** ****** ****** ****** ****** ****** ****** ******
  11  ****** ****** ****** ****** ****** ****** ****** ****** ****** ******
      ****** ****** ****** ****** ****** ****** ****** ****** ****** ******
      ****** ****** ****** ****** ****** ****** ****** ****** ****** ******
  12  ****** ****** ****** ****** ****** ****** ****** ****** ****** ******
      ****** ****** ****** ****** ****** ****** ****** ****** ****** ******
      ****** ****** ****** ****** ****** ****** ****** ****** ****** ******
  13  ****** ****** ****** ****** ****** ****** ****** ****** ****** ******
      ****** ****** ****** ****** ****** ****** ****** ****** ****** ******
      ****** ****** ****** ****** ****** ****** ****** ****** ****** ******
  14  ****** ****** ****** ****** ****** ****** ****** ****** ****** ******
      ****** ****** ****** ****** ****** ****** ****** ****** ****** ******
      ****** ****** ****** ****** ****** ****** ****** ****** ****** ******
  15  ****** ****** ****** ****** ****** ****** ****** ****** ****** ******
      ****** ****** ****** ****** ****** ****** ****** ****** ****** ******
      ****** ****** ****** ****** ****** ****** ****** ****** ****** ******
  16  ****** ****** ****** ****** ****** ****** ****** ****** ****** ******
      ****** ****** ****** ****** ****** ****** ****** ****** ****** ******
      ****** ****** ****** ****** ****** ****** ****** ****** ****** ******
  17  ****** ****** ****** ****** ****** ****** ****** ****** ****** ******
      ****** ****** ****** ****** ****** ****** ****** ****** ****** ******
      ****** ****** ****** ****** ****** ****** ****** ****** ****** ******
  18  ****** ****** ****** ****** ****** ****** ****** ****** ****** ******
      ****** ****** ****** ****** ****** ****** ****** ****** ****** ******
      ****** ****** ****** ****** ****** ****** ****** ****** ****** ******
  19  ****** ****** ****** ****** ****** ****** ****** ****** ****** ******
      ****** ****** ****** ****** ****** ****** ****** ****** ****** ******
      ****** ****** ****** ****** ****** ****** ****** ****** ****** ******
  20  ****** ****** ****** ****** ****** ****** ****** ****** ****** ******
      ****** ****** ****** ****** ****** ****** ****** ****** ****** ******
      ****** ****** ****** ****** ****** ****** ****** ****** ****** ******
  21  ****** ****** ****** ****** ****** ****** ****** ****** ****** ******
      ****** ****** ****** ****** ****** ****** ****** ****** ****** ******
      ****** ****** ****** ****** ****** ****** ****** ****** ****** ******
  22  ****** ****** ****** ****** ****** ****** ****** ****** ****** ******
      ****** ****** ****** ****** ****** ****** ****** ****** ****** ******
      ****** ****** ****** ****** ****** ****** ****** ****** ****** ******
  23  ****** ****** ****** ****** ****** ****** ****** ****** ****** ******
      ****** ****** ****** ****** ****** ****** ****** ****** ****** ******
      ****** ****** ****** ****** ****** ****** ****** ****** ****** ******
  24  ****** ****** ****** ****** ****** ****** ****** ****** ****** ******
      ****** ****** ****** ****** ****** ****** ****** ****** ****** ******
      ****** ****** ****** ****** ****** ****** ****** ****** ****** ******
  25  ****** ****** ****** ****** ****** ****** ****** ****** ****** ******
      ****** ****** ****** ****** ****** ****** ****** ****** ****** ******
      ****** ****** ****** ****** ****** ****** ****** ****** ****** ******

 HEAD WILL BE SAVED ON UNIT   51 AT END OF TIME STEP    1, STRESS PERIOD   10
1
  VOLUMETRIC BUDGET FOR ENTIRE MODEL AT END OF TIME STEP    1, STRESS PERIOD  10
  ------------------------------------------------------------------------------

     CUMULATIVE VOLUMES      L**3       RATES FOR THIS TIME STEP      L**3/T
     ------------------                 ------------------------

           IN:                                      IN:
           ---                                      ---
             STORAGE =    34820437.4739               STORAGE =           0.0000
       CONSTANT HEAD =    26433333.7914         CONSTANT HEAD =       32811.6842
               WELLS =           0.0000                 WELLS =           0.0000
            RECHARGE =    23901600.0000              RECHARGE =       55200.0000
      STREAM LEAKAGE =     7828892.4338        STREAM LEAKAGE =        8958.0571

            TOTAL IN =    92984263.6991              TOTAL IN =       96969.7413

          OUT:                                     OUT:
          ----                                     ----
             STORAGE =     2344161.6591               STORAGE =       15695.1432
       CONSTANT HEAD =           0.0000         CONSTANT HEAD =           0.0000
               WELLS =    32347284.8660                 WELLS =       35429.6658
            RECHARGE =           0.0000              RECHARGE =           0.0000
      STREAM LEAKAGE =    58292818.7772        STREAM LEAKAGE =       45844.9283

           TOTAL OUT =    92984265.3023             TOTAL OUT =       96969.7373

            IN - OUT =          -1.6032              IN - OUT =       4.0126E-03

 PERCENT DISCREPANCY =          -0.00     PERCENT DISCREPANCY =           0.00






         TIME SUMMARY AT END OF TIME STEP    1 IN STRESS PERIOD   10
                    SECONDS     MINUTES      HOURS       DAYS        YEARS
                    -----------------------------------------------------------
   TIME STEP LENGTH 7.86240E+06 1.31040E+05  2184.0      91.000     0.24914    
 STRESS PERIOD TIME 7.86240E+06 1.31040E+05  2184.0      91.000     0.24914    
         TOTAL TIME 7.88832E+07 1.31472E+06  21912.      913.00      2.4997    
1
1
                            STRESS PERIOD NO.   11, LENGTH =   91.00000    
                            -----------------------------------------------

                              NUMBER OF TIME STEPS =     1

                               MULTIPLIER FOR DELT =     1.500

                            INITIAL TIME STEP SIZE =   91.00000    

 WELL NO.  LAYER   ROW   COL   STRESS RATE         
 --------------------------------------------------
      1      1     16     16      -9666.    
      2      1      6     22      -5938.    
      3      1     19     13     -0.1394E+05
      4      1      6     21      -5885.    

      4 WELLS

                 RECHARGE =   0.00000    

 REUSING STREAM SEGMENT DATA FROM LAST STRESS PERIOD
 
 SOLVING FOR HEAD 


     7 CALLS TO PCG ROUTINE FOR TIME STEP   1 IN STRESS PERIOD   11
    26 TOTAL ITERATIONS

 OUTPUT CONTROL FOR STRESS PERIOD   11   TIME STEP    1
    SAVE BUDGET
    SAVE HEAD FOR ALL LAYERS
    PRINT HEAD FOR ALL LAYERS
 UBDSV2 SAVING "STREAMFLOW OUT  " ON UNIT  50 AT TIME STEP  1, STRESS PERIOD  11



 STREAM LISTING     PERIOD     11   STEP        1

 LAYER ROW COL. STREAM  RCH.  FLOW INTO     FLOW TO   FLOW OUT OF   OVRLND.     DIRECT     STREAM       STREAM     STREAM     STREAM   STREAMBED  STREAMBED
                SEG.NO.  NO.  STRM. RCH.    AQUIFER    STRM. RCH.    RUNOFF     PRECIP       ET          HEAD       DEPTH      WIDTH   CONDCTNC.   GRADIENT

   1   13    1     1     1    1.0000E+05 -1.4280E+03   1.0143E+05  0.000E+00  0.000E+00  0.000E+00  4.84066E+01  1.453E-01  2.000E+01  2.000E+04 -7.140E-02
   1   13    2     1     2    1.0143E+05 -2.3571E+03   1.0379E+05  0.000E+00  0.000E+00  0.000E+00  4.79310E+01  1.469E-01  2.000E+01  2.000E+04 -1.179E-01
   1   14    3     1     3    1.0379E+05 -3.3049E+02   1.0412E+05  0.000E+00  0.000E+00  0.000E+00  4.74549E+01  1.481E-01  2.000E+01  2.000E+04 -1.652E-02
   1   15    4     1     4    1.0412E+05 -2.8289E+02   1.0440E+05  0.000E+00  0.000E+00  0.000E+00  4.69779E+01  1.483E-01  2.000E+01  2.000E+04 -1.414E-02
   1   16    5     1     5    1.0440E+05 -9.0992E+02   1.0531E+05  0.000E+00  0.000E+00  0.000E+00  4.65011E+01  1.488E-01  2.000E+01  2.000E+04 -4.550E-02
   1   16    6     1     6    1.0531E+05 -5.3393E+02   1.0584E+05  0.000E+00  0.000E+00  0.000E+00  4.60244E+01  1.494E-01  2.000E+01  2.000E+04 -2.670E-02
   1   16    7     1     7    1.0584E+05 -4.4480E+02   1.0629E+05  0.000E+00  0.000E+00  0.000E+00  4.55476E+01  1.499E-01  2.000E+01  2.000E+04 -2.224E-02
   1   16    8     1     8    1.0629E+05 -3.1720E+02   1.0660E+05  0.000E+00  0.000E+00  0.000E+00  4.50706E+01  1.502E-01  2.000E+01  2.000E+04 -1.586E-02
   1   16    9     1     9    1.0660E+05 -1.2354E+02   1.0673E+05  0.000E+00  0.000E+00  0.000E+00  4.45935E+01  1.504E-01  2.000E+01  2.000E+04 -6.177E-03
   1   16   10     1    10    1.0673E+05  1.6704E+02   1.0656E+05  0.000E+00  0.000E+00  0.000E+00  4.41163E+01  1.503E-01  2.000E+01  2.000E+04  8.352E-03
   1   16   11     1    11    1.0656E+05  6.1335E+02   1.0595E+05  0.000E+00  0.000E+00  0.000E+00  4.36387E+01  1.500E-01  2.000E+01  2.000E+04  3.067E-02
   1   16   12     1    12    1.0595E+05  1.8815E+03   1.0407E+05  0.000E+00  0.000E+00  0.000E+00  4.31603E+01  1.490E-01  2.000E+01  2.000E+04  9.407E-02
   1   15   13     1    13    1.0407E+05  1.2503E+03   1.0282E+05  0.000E+00  0.000E+00  0.000E+00  4.26817E+01  1.476E-01  2.000E+01  2.000E+04  6.252E-02
   1   14   14     1    14    1.0282E+05  6.1737E+02   1.0220E+05  0.000E+00  0.000E+00  0.000E+00  4.22036E+01  1.468E-01  2.000E+01  2.000E+04  3.087E-02
   1   13   15     1    15    1.0220E+05 -2.1277E+02   1.0241E+05  0.000E+00  0.000E+00  0.000E+00  4.17262E+01  1.466E-01  2.000E+01  2.000E+04 -1.064E-02
   1   12   16     1    16    1.0241E+05 -1.4797E+03   1.0389E+05  0.000E+00  0.000E+00  0.000E+00  4.12496E+01  1.474E-01  2.000E+01  2.000E+04 -7.399E-02
   1   12   17     1    17    1.0389E+05 -5.9284E+02   1.0448E+05  0.000E+00  0.000E+00  0.000E+00  4.07733E+01  1.483E-01  2.000E+01  2.000E+04 -2.964E-02
   1   12   18     1    18    1.0448E+05 -5.3282E+02   1.0502E+05  0.000E+00  0.000E+00  0.000E+00  4.02965E+01  1.487E-01  2.000E+01  2.000E+04 -2.664E-02
   1   12   19     1    19    1.0502E+05 -8.4988E+02   1.0587E+05  0.000E+00  0.000E+00  0.000E+00  3.98198E+01  1.493E-01  2.000E+01  2.000E+04 -4.249E-02
   1   13   20     1    20    1.0587E+05 -2.5265E+02   1.0612E+05  0.000E+00  0.000E+00  0.000E+00  3.93430E+01  1.498E-01  2.000E+01  2.000E+04 -1.263E-02
   1   14   21     1    21    1.0612E+05 -9.8466E+01   1.0622E+05  0.000E+00  0.000E+00  0.000E+00  3.88659E+01  1.499E-01  2.000E+01  2.000E+04 -4.923E-03
   1   14   22     1    22    1.0622E+05  5.0685E+03   1.0115E+05  0.000E+00  0.000E+00  0.000E+00  3.83865E+01  1.478E-01  2.000E+01  2.000E+04  2.534E-01
   1    9   30     2     1    5.0000E+04 -1.4535E+02   5.0145E+04  0.000E+00  0.000E+00  0.000E+00  4.02410E+01  1.160E-01  2.000E+01  2.000E+04 -7.268E-03
   1    9   29     2     2    5.0145E+04 -4.0393E+02   5.0549E+04  0.000E+00  0.000E+00  0.000E+00  3.99913E+01  1.163E-01  2.000E+01  2.000E+04 -2.020E-02
   1    9   28     2     3    5.0549E+04 -5.5194E+02   5.1101E+04  0.000E+00  0.000E+00  0.000E+00  3.97420E+01  1.170E-01  2.000E+01  2.000E+04 -2.760E-02
   1    9   27     2     4    5.1101E+04 -1.1105E+03   5.2212E+04  0.000E+00  0.000E+00  0.000E+00  3.94932E+01  1.182E-01  2.000E+01  2.000E+04 -5.552E-02
   1   10   26     2     5    5.2212E+04 -4.7015E+02   5.2682E+04  0.000E+00  0.000E+00  0.000E+00  3.92442E+01  1.192E-01  2.000E+01  2.000E+04 -2.351E-02
   1   11   25     2     6    5.2682E+04 -3.8070E+02   5.3063E+04  0.000E+00  0.000E+00  0.000E+00  3.89948E+01  1.198E-01  2.000E+01  2.000E+04 -1.903E-02
   1   12   24     2     7    5.3063E+04 -5.5667E+02   5.3619E+04  0.000E+00  0.000E+00  0.000E+00  3.87455E+01  1.205E-01  2.000E+01  2.000E+04 -2.783E-02
   1   13   23     2     8    5.3619E+04 -7.4795E+01   5.3694E+04  0.000E+00  0.000E+00  0.000E+00  3.84959E+01  1.209E-01  2.000E+01  2.000E+04 -3.740E-03
   1   14   22     2     9    5.3694E+04  2.2276E+03   5.1466E+04  0.000E+00  0.000E+00  0.000E+00  3.82444E+01  1.194E-01  2.000E+01  2.000E+04  1.114E-01
   1   14   22     3     1    1.5262E+05 -8.4050E+03   1.6102E+05  0.000E+00  0.000E+00  0.000E+00  3.77128E+01  1.572E-01  2.000E+01  2.000E+04 -4.203E-01
   1   15   23     3     2    1.6102E+05 -2.9045E+02   1.6131E+05  0.000E+00  0.000E+00  0.000E+00  3.68265E+01  1.598E-01  2.000E+01  2.000E+04 -1.452E-02
   1   15   24     3     3    1.6131E+05 -1.6935E+02   1.6148E+05  0.000E+00  0.000E+00  0.000E+00  3.59377E+01  1.600E-01  2.000E+01  2.000E+04 -8.468E-03
   1   15   25     3     4    1.6148E+05 -1.7776E+02   1.6166E+05  0.000E+00  0.000E+00  0.000E+00  3.50490E+01  1.601E-01  2.000E+01  2.000E+04 -8.888E-03
   1   15   26     3     5    1.6166E+05 -2.3820E+02   1.6190E+05  0.000E+00  0.000E+00  0.000E+00  3.41602E+01  1.602E-01  2.000E+01  2.000E+04 -1.191E-02
   1   16   27     3     6    1.6190E+05 -2.4662E+02   1.6214E+05  0.000E+00  0.000E+00  0.000E+00  3.32715E+01  1.603E-01  2.000E+01  2.000E+04 -1.233E-02
   1   17   28     3     7    1.6214E+05 -1.2068E+03   1.6335E+05  0.000E+00  0.000E+00  0.000E+00  3.23830E+01  1.608E-01  2.000E+01  2.000E+04 -6.034E-02
   1   18   29     3     8    1.6335E+05 -2.4121E+03   1.6576E+05  0.000E+00  0.000E+00  0.000E+00  3.14952E+01  1.618E-01  2.000E+01  2.000E+04 -1.206E-01
   1   18   30     3     9    1.6576E+05 -2.8394E+03   1.6860E+05  0.000E+00  0.000E+00  0.000E+00  3.06078E+01  1.634E-01  2.000E+01  2.000E+04 -1.420E-01



1
              HEAD IN LAYER   1 AT END OF TIME STEP   1 IN STRESS PERIOD   11
  ---------------------------------------------------------------------------

          1      2      3      4      5      6      7      8      9     10
         11     12     13     14     15     16     17     18     19     20
         21     22     23     24     25     26     27     28     29     30
 .........................................................................
   1  ****** ****** ****** ****** ****** ****** ****** ****** ****** ******
      ****** ****** ****** ****** ****** ****** ****** ****** ****** ******
      ****** ****** ****** ****** ****** ****** ****** ****** ****** ******
   2  ****** ****** ****** ****** ****** ****** ****** ****** ****** ******
      ****** ****** ****** ****** ****** ****** ****** ****** ****** ******
      ****** ****** ****** ****** ****** ****** ****** ****** ****** ******
   3  ****** ****** ****** ****** ****** ****** ****** ****** ****** ******
      ****** ****** ****** ****** ****** ****** ****** ****** ****** ******
      ****** ****** ****** ****** ****** ****** ****** ****** ****** ******
   4  ****** ****** ****** ****** ****** ****** ****** ****** ****** ******
      ****** ****** ****** ****** ****** ****** ****** ****** ****** ******
      ****** ****** ****** ****** ****** ****** ****** ****** ****** ******
   5  ****** ****** ****** ****** ****** ****** ****** ****** ****** ******
      ****** ****** ****** ****** ****** ****** ****** ****** ****** ******
      ****** ****** ****** ****** ****** ****** ****** ****** ****** ******
   6  ****** ****** ****** ****** ****** ****** ****** ****** ****** ******
      ****** ****** ****** ****** ****** ****** ****** ****** ****** ******
      ****** ****** ****** ****** ****** ****** ****** ****** ****** ******
   7  ****** ****** ****** ****** ****** ****** ****** ****** ****** ******
      ****** ****** ****** ****** ****** ****** ****** ****** ****** ******
      ****** ****** ****** ****** ****** ****** ****** ****** ****** ******
   8  ****** ****** ****** ****** ****** ****** ****** ****** ****** ******
      ****** ****** ****** ****** ****** ****** ****** ****** ****** ******
      ****** ****** ****** ****** ****** ****** ****** ****** ****** ******
   9  ****** ****** ****** ****** ****** ****** ****** ****** ****** ******
      ****** ****** ****** ****** ****** ****** ****** ****** ****** ******
      ****** ****** ****** ****** ****** ****** ****** ****** ****** ******
  10  ****** ****** ****** ****** ****** ****** ****** ****** ****** ******
      ****** ****** ****** ****** ****** ****** ****** ****** ****** ******
      ****** ****** ****** ****** ****** ****** ****** ****** ****** ******
  11  ****** ****** ****** ****** ****** ****** ****** ****** ****** ******
      ****** ****** ****** ****** ****** ****** ****** ****** ****** ******
      ****** ****** ****** ****** ****** ****** ****** ****** ****** ******
  12  ****** ****** ****** ****** ****** ****** ****** ****** ****** ******
      ****** ****** ****** ****** ****** ****** ****** ****** ****** ******
      ****** ****** ****** ****** ****** ****** ****** ****** ****** ******
  13  ****** ****** ****** ****** ****** ****** ****** ****** ****** ******
      ****** ****** ****** ****** ****** ****** ****** ****** ****** ******
      ****** ****** ****** ****** ****** ****** ****** ****** ****** ******
  14  ****** ****** ****** ****** ****** ****** ****** ****** ****** ******
      ****** ****** ****** ****** ****** ****** ****** ****** ****** ******
      ****** ****** ****** ****** ****** ****** ****** ****** ****** ******
  15  ****** ****** ****** ****** ****** ****** ****** ****** ****** ******
      ****** ****** ****** ****** ****** ****** ****** ****** ****** ******
      ****** ****** ****** ****** ****** ****** ****** ****** ****** ******
  16  ****** ****** ****** ****** ****** ****** ****** ****** ****** ******
      ****** ****** ****** ****** ****** ****** ****** ****** ****** ******
      ****** ****** ****** ****** ****** ****** ****** ****** ****** ******
  17  ****** ****** ****** ****** ****** ****** ****** ****** ****** ******
      ****** ****** ****** ****** ****** ****** ****** ****** ****** ******
      ****** ****** ****** ****** ****** ****** ****** ****** ****** ******
  18  ****** ****** ****** ****** ****** ****** ****** ****** ****** ******
      ****** ****** ****** ****** ****** ****** ****** ****** ****** ******
      ****** ****** ****** ****** ****** ****** ****** ****** ****** ******
  19  ****** ****** ****** ****** ****** ****** ****** ****** ****** ******
      ****** ****** ****** ****** ****** ****** ****** ****** ****** ******
      ****** ****** ****** ****** ****** ****** ****** ****** ****** ******
  20  ****** ****** ****** ****** ****** ****** ****** ****** ****** ******
      ****** ****** ****** ****** ****** ****** ****** ****** ****** ******
      ****** ****** ****** ****** ****** ****** ****** ****** ****** ******
  21  ****** ****** ****** ****** ****** ****** ****** ****** ****** ******
      ****** ****** ****** ****** ****** ****** ****** ****** ****** ******
      ****** ****** ****** ****** ****** ****** ****** ****** ****** ******
  22  ****** ****** ****** ****** ****** ****** ****** ****** ****** ******
      ****** ****** ****** ****** ****** ****** ****** ****** ****** ******
      ****** ****** ****** ****** ****** ****** ****** ****** ****** ******
  23  ****** ****** ****** ****** ****** ****** ****** ****** ****** ******
      ****** ****** ****** ****** ****** ****** ****** ****** ****** ******
      ****** ****** ****** ****** ****** ****** ****** ****** ****** ******
  24  ****** ****** ****** ****** ****** ****** ****** ****** ****** ******
      ****** ****** ****** ****** ****** ****** ****** ****** ****** ******
      ****** ****** ****** ****** ****** ****** ****** ****** ****** ******
  25  ****** ****** ****** ****** ****** ****** ****** ****** ****** ******
      ****** ****** ****** ****** ****** ****** ****** ****** ****** ******
      ****** ****** ****** ****** ****** ****** ****** ****** ****** ******

 HEAD WILL BE SAVED ON UNIT   51 AT END OF TIME STEP    1, STRESS PERIOD   11
1
  VOLUMETRIC BUDGET FOR ENTIRE MODEL AT END OF TIME STEP    1, STRESS PERIOD  11
  ------------------------------------------------------------------------------

     CUMULATIVE VOLUMES      L**3       RATES FOR THIS TIME STEP      L**3/T
     ------------------                 ------------------------

           IN:                                      IN:
           ---                                      ---
             STORAGE =    36452345.1035               STORAGE =       17933.0509
       CONSTANT HEAD =    29718236.9908         CONSTANT HEAD =       36097.8374
               WELLS =           0.0000                 WELLS =           0.0000
            RECHARGE =    23901600.0000              RECHARGE =           0.0000
      STREAM LEAKAGE =     8905024.9630        STREAM LEAKAGE =       11825.6322

            TOTAL IN =    98977207.0573              TOTAL IN =       65856.5204

          OUT:                                     OUT:
          ----                                     ----
             STORAGE =     2344161.6591               STORAGE =           0.0000
       CONSTANT HEAD =           0.0000         CONSTANT HEAD =           0.0000
               WELLS =    35571384.4528                 WELLS =       35429.6658
            RECHARGE =           0.0000              RECHARGE =           0.0000
      STREAM LEAKAGE =    61061663.0209        STREAM LEAKAGE =       30426.8598

           TOTAL OUT =    98977209.1328             TOTAL OUT =       65856.5256

            IN - OUT =          -2.0755              IN - OUT =      -5.1904E-03

 PERCENT DISCREPANCY =          -0.00     PERCENT DISCREPANCY =          -0.00






         TIME SUMMARY AT END OF TIME STEP    1 IN STRESS PERIOD   11
                    SECONDS     MINUTES      HOURS       DAYS        YEARS
                    -----------------------------------------------------------
   TIME STEP LENGTH 7.86240E+06 1.31040E+05  2184.0      91.000     0.24914    
 STRESS PERIOD TIME 7.86240E+06 1.31040E+05  2184.0      91.000     0.24914    
         TOTAL TIME 8.67456E+07 1.44576E+06  24096.      1004.0      2.7488    
1
1
                            STRESS PERIOD NO.   12, LENGTH =   91.00000    
                            -----------------------------------------------

                              NUMBER OF TIME STEPS =     1

                               MULTIPLIER FOR DELT =     1.500

                            INITIAL TIME STEP SIZE =   91.00000    

 WELL NO.  LAYER   ROW   COL   STRESS RATE         
 --------------------------------------------------
      1      1     16     16      -9666.    
      2      1      6     22      -5938.    
      3      1     19     13     -0.1394E+05
      4      1      6     21      -5885.    

      4 WELLS

                 RECHARGE =  1.000000E-03

 REUSING STREAM SEGMENT DATA FROM LAST STRESS PERIOD
 
 SOLVING FOR HEAD 


     7 CALLS TO PCG ROUTINE FOR TIME STEP   1 IN STRESS PERIOD   12
    25 TOTAL ITERATIONS

 OUTPUT CONTROL FOR STRESS PERIOD   12   TIME STEP    1
    SAVE BUDGET
    SAVE HEAD FOR ALL LAYERS
    PRINT HEAD FOR ALL LAYERS
 UBDSV2 SAVING "STREAMFLOW OUT  " ON UNIT  50 AT TIME STEP  1, STRESS PERIOD  12



 STREAM LISTING     PERIOD     12   STEP        1

 LAYER ROW COL. STREAM  RCH.  FLOW INTO     FLOW TO   FLOW OUT OF   OVRLND.     DIRECT     STREAM       STREAM     STREAM     STREAM   STREAMBED  STREAMBED
                SEG.NO.  NO.  STRM. RCH.    AQUIFER    STRM. RCH.    RUNOFF     PRECIP       ET          HEAD       DEPTH      WIDTH   CONDCTNC.   GRADIENT

   1   13    1     1     1    1.0000E+05 -1.5725E+03   1.0157E+05  0.000E+00  0.000E+00  0.000E+00  4.84067E+01  1.453E-01  2.000E+01  2.000E+04 -7.862E-02
   1   13    2     1     2    1.0157E+05 -2.5125E+03   1.0408E+05  0.000E+00  0.000E+00  0.000E+00  4.79312E+01  1.471E-01  2.000E+01  2.000E+04 -1.256E-01
   1   14    3     1     3    1.0408E+05 -4.0908E+02   1.0449E+05  0.000E+00  0.000E+00  0.000E+00  4.74552E+01  1.483E-01  2.000E+01  2.000E+04 -2.045E-02
   1   15    4     1     4    1.0449E+05 -3.6526E+02   1.0486E+05  0.000E+00  0.000E+00  0.000E+00  4.69782E+01  1.487E-01  2.000E+01  2.000E+04 -1.826E-02
   1   16    5     1     5    1.0486E+05 -1.1195E+03   1.0598E+05  0.000E+00  0.000E+00  0.000E+00  4.65016E+01  1.493E-01  2.000E+01  2.000E+04 -5.598E-02
   1   16    6     1     6    1.0598E+05 -6.6431E+02   1.0664E+05  0.000E+00  0.000E+00  0.000E+00  4.60251E+01  1.501E-01  2.000E+01  2.000E+04 -3.322E-02
   1   16    7     1     7    1.0664E+05 -5.7012E+02   1.0721E+05  0.000E+00  0.000E+00  0.000E+00  4.55483E+01  1.506E-01  2.000E+01  2.000E+04 -2.851E-02
   1   16    8     1     8    1.0721E+05 -4.4146E+02   1.0765E+05  0.000E+00  0.000E+00  0.000E+00  4.50715E+01  1.510E-01  2.000E+01  2.000E+04 -2.207E-02
   1   16    9     1     9    1.0765E+05 -2.4822E+02   1.0790E+05  0.000E+00  0.000E+00  0.000E+00  4.45945E+01  1.513E-01  2.000E+01  2.000E+04 -1.241E-02
   1   16   10     1    10    1.0790E+05  4.1058E+01   1.0786E+05  0.000E+00  0.000E+00  0.000E+00  4.41173E+01  1.514E-01  2.000E+01  2.000E+04  2.053E-03
   1   16   11     1    11    1.0786E+05  4.8518E+02   1.0738E+05  0.000E+00  0.000E+00  0.000E+00  4.36398E+01  1.512E-01  2.000E+01  2.000E+04  2.426E-02
   1   16   12     1    12    1.0738E+05  1.6800E+03   1.0570E+05  0.000E+00  0.000E+00  0.000E+00  4.31616E+01  1.503E-01  2.000E+01  2.000E+04  8.400E-02
   1   15   13     1    13    1.0570E+05  1.0335E+03   1.0466E+05  0.000E+00  0.000E+00  0.000E+00  4.26832E+01  1.491E-01  2.000E+01  2.000E+04  5.167E-02
   1   14   14     1    14    1.0466E+05  3.9986E+02   1.0426E+05  0.000E+00  0.000E+00  0.000E+00  4.22053E+01  1.485E-01  2.000E+01  2.000E+04  1.999E-02
   1   13   15     1    15    1.0426E+05 -4.2304E+02   1.0469E+05  0.000E+00  0.000E+00  0.000E+00  4.17280E+01  1.485E-01  2.000E+01  2.000E+04 -2.115E-02
   1   12   16     1    16    1.0469E+05 -1.6637E+03   1.0635E+05  0.000E+00  0.000E+00  0.000E+00  4.12517E+01  1.494E-01  2.000E+01  2.000E+04 -8.318E-02
   1   12   17     1    17    1.0635E+05 -7.4650E+02   1.0710E+05  0.000E+00  0.000E+00  0.000E+00  4.07754E+01  1.504E-01  2.000E+01  2.000E+04 -3.732E-02
   1   12   18     1    18    1.0710E+05 -6.8859E+02   1.0779E+05  0.000E+00  0.000E+00  0.000E+00  4.02987E+01  1.510E-01  2.000E+01  2.000E+04 -3.443E-02
   1   12   19     1    19    1.0779E+05 -1.0425E+03   1.0883E+05  0.000E+00  0.000E+00  0.000E+00  3.98222E+01  1.517E-01  2.000E+01  2.000E+04 -5.212E-02
   1   13   20     1    20    1.0883E+05 -4.6294E+02   1.0929E+05  0.000E+00  0.000E+00  0.000E+00  3.93456E+01  1.524E-01  2.000E+01  2.000E+04 -2.315E-02
   1   14   21     1    21    1.0929E+05 -2.9225E+02   1.0958E+05  0.000E+00  0.000E+00  0.000E+00  3.88686E+01  1.527E-01  2.000E+01  2.000E+04 -1.461E-02
   1   14   22     1    22    1.0958E+05  5.0165E+03   1.0457E+05  0.000E+00  0.000E+00  0.000E+00  3.83893E+01  1.507E-01  2.000E+01  2.000E+04  2.508E-01
   1    9   30     2     1    5.0000E+04 -3.2179E+02   5.0322E+04  0.000E+00  0.000E+00  0.000E+00  4.02411E+01  1.161E-01  2.000E+01  2.000E+04 -1.609E-02
   1    9   29     2     2    5.0322E+04 -5.7832E+02   5.0900E+04  0.000E+00  0.000E+00  0.000E+00  3.99917E+01  1.167E-01  2.000E+01  2.000E+04 -2.892E-02
   1    9   28     2     3    5.0900E+04 -7.2282E+02   5.1623E+04  0.000E+00  0.000E+00  0.000E+00  3.97426E+01  1.176E-01  2.000E+01  2.000E+04 -3.614E-02
   1    9   27     2     4    5.1623E+04 -1.3197E+03   5.2943E+04  0.000E+00  0.000E+00  0.000E+00  3.94940E+01  1.190E-01  2.000E+01  2.000E+04 -6.599E-02
   1   10   26     2     5    5.2943E+04 -7.0005E+02   5.3643E+04  0.000E+00  0.000E+00  0.000E+00  3.92454E+01  1.204E-01  2.000E+01  2.000E+04 -3.500E-02
   1   11   25     2     6    5.3643E+04 -6.0670E+02   5.4249E+04  0.000E+00  0.000E+00  0.000E+00  3.89963E+01  1.213E-01  2.000E+01  2.000E+04 -3.034E-02
   1   12   24     2     7    5.4249E+04 -7.6297E+02   5.5012E+04  0.000E+00  0.000E+00  0.000E+00  3.87472E+01  1.222E-01  2.000E+01  2.000E+04 -3.815E-02
   1   13   23     2     8    5.5012E+04 -1.5245E+02   5.5165E+04  0.000E+00  0.000E+00  0.000E+00  3.84978E+01  1.228E-01  2.000E+01  2.000E+04 -7.623E-03
   1   14   22     2     9    5.5165E+04  2.1587E+03   5.3006E+04  0.000E+00  0.000E+00  0.000E+00  3.82465E+01  1.215E-01  2.000E+01  2.000E+04  1.079E-01
   1   14   22     3     1    1.5757E+05 -8.4551E+03   1.6603E+05  0.000E+00  0.000E+00  0.000E+00  3.77158E+01  1.602E-01  2.000E+01  2.000E+04 -4.228E-01
   1   15   23     3     2    1.6603E+05 -3.6241E+02   1.6639E+05  0.000E+00  0.000E+00  0.000E+00  3.68295E+01  1.628E-01  2.000E+01  2.000E+04 -1.812E-02
   1   15   24     3     3    1.6639E+05 -2.3440E+02   1.6662E+05  0.000E+00  0.000E+00  0.000E+00  3.59408E+01  1.630E-01  2.000E+01  2.000E+04 -1.172E-02
   1   15   25     3     4    1.6662E+05 -2.4408E+02   1.6687E+05  0.000E+00  0.000E+00  0.000E+00  3.50520E+01  1.631E-01  2.000E+01  2.000E+04 -1.220E-02
   1   15   26     3     5    1.6687E+05 -3.1565E+02   1.6718E+05  0.000E+00  0.000E+00  0.000E+00  3.41633E+01  1.633E-01  2.000E+01  2.000E+04 -1.578E-02
   1   16   27     3     6    1.6718E+05 -3.3336E+02   1.6752E+05  0.000E+00  0.000E+00  0.000E+00  3.32746E+01  1.635E-01  2.000E+01  2.000E+04 -1.667E-02
   1   17   28     3     7    1.6752E+05 -1.4274E+03   1.6894E+05  0.000E+00  0.000E+00  0.000E+00  3.23862E+01  1.640E-01  2.000E+01  2.000E+04 -7.137E-02
   1   18   29     3     8    1.6894E+05 -2.6125E+03   1.7156E+05  0.000E+00  0.000E+00  0.000E+00  3.14985E+01  1.652E-01  2.000E+01  2.000E+04 -1.306E-01
   1   18   30     3     9    1.7156E+05 -3.0074E+03   1.7456E+05  0.000E+00  0.000E+00  0.000E+00  3.06113E+01  1.668E-01  2.000E+01  2.000E+04 -1.504E-01



1
              HEAD IN LAYER   1 AT END OF TIME STEP   1 IN STRESS PERIOD   12
  ---------------------------------------------------------------------------

          1      2      3      4      5      6      7      8      9     10
         11     12     13     14     15     16     17     18     19     20
         21     22     23     24     25     26     27     28     29     30
 .........................................................................
   1  ****** ****** ****** ****** ****** ****** ****** ****** ****** ******
      ****** ****** ****** ****** ****** ****** ****** ****** ****** ******
      ****** ****** ****** ****** ****** ****** ****** ****** ****** ******
   2  ****** ****** ****** ****** ****** ****** ****** ****** ****** ******
      ****** ****** ****** ****** ****** ****** ****** ****** ****** ******
      ****** ****** ****** ****** ****** ****** ****** ****** ****** ******
   3  ****** ****** ****** ****** ****** ****** ****** ****** ****** ******
      ****** ****** ****** ****** ****** ****** ****** ****** ****** ******
      ****** ****** ****** ****** ****** ****** ****** ****** ****** ******
   4  ****** ****** ****** ****** ****** ****** ****** ****** ****** ******
      ****** ****** ****** ****** ****** ****** ****** ****** ****** ******
      ****** ****** ****** ****** ****** ****** ****** ****** ****** ******
   5  ****** ****** ****** ****** ****** ****** ****** ****** ****** ******
      ****** ****** ****** ****** ****** ****** ****** ****** ****** ******
      ****** ****** ****** ****** ****** ****** ****** ****** ****** ******
   6  ****** ****** ****** ****** ****** ****** ****** ****** ****** ******
      ****** ****** ****** ****** ****** ****** ****** ****** ****** ******
      ****** ****** ****** ****** ****** ****** ****** ****** ****** ******
   7  ****** ****** ****** ****** ****** ****** ****** ****** ****** ******
      ****** ****** ****** ****** ****** ****** ****** ****** ****** ******
      ****** ****** ****** ****** ****** ****** ****** ****** ****** ******
   8  ****** ****** ****** ****** ****** ****** ****** ****** ****** ******
      ****** ****** ****** ****** ****** ****** ****** ****** ****** ******
      ****** ****** ****** ****** ****** ****** ****** ****** ****** ******
   9  ****** ****** ****** ****** ****** ****** ****** ****** ****** ******
      ****** ****** ****** ****** ****** ****** ****** ****** ****** ******
      ****** ****** ****** ****** ****** ****** ****** ****** ****** ******
  10  ****** ****** ****** ****** ****** ****** ****** ****** ****** ******
      ****** ****** ****** ****** ****** ****** ****** ****** ****** ******
      ****** ****** ****** ****** ****** ****** ****** ****** ****** ******
  11  ****** ****** ****** ****** ****** ****** ****** ****** ****** ******
      ****** ****** ****** ****** ****** ****** ****** ****** ****** ******
      ****** ****** ****** ****** ****** ****** ****** ****** ****** ******
  12  ****** ****** ****** ****** ****** ****** ****** ****** ****** ******
      ****** ****** ****** ****** ****** ****** ****** ****** ****** ******
      ****** ****** ****** ****** ****** ****** ****** ****** ****** ******
  13  ****** ****** ****** ****** ****** ****** ****** ****** ****** ******
      ****** ****** ****** ****** ****** ****** ****** ****** ****** ******
      ****** ****** ****** ****** ****** ****** ****** ****** ****** ******
  14  ****** ****** ****** ****** ****** ****** ****** ****** ****** ******
      ****** ****** ****** ****** ****** ****** ****** ****** ****** ******
      ****** ****** ****** ****** ****** ****** ****** ****** ****** ******
  15  ****** ****** ****** ****** ****** ****** ****** ****** ****** ******
      ****** ****** ****** ****** ****** ****** ****** ****** ****** ******
      ****** ****** ****** ****** ****** ****** ****** ****** ****** ******
  16  ****** ****** ****** ****** ****** ****** ****** ****** ****** ******
      ****** ****** ****** ****** ****** ****** ****** ****** ****** ******
      ****** ****** ****** ****** ****** ****** ****** ****** ****** ******
  17  ****** ****** ****** ****** ****** ****** ****** ****** ****** ******
      ****** ****** ****** ****** ****** ****** ****** ****** ****** ******
      ****** ****** ****** ****** ****** ****** ****** ****** ****** ******
  18  ****** ****** ****** ****** ****** ****** ****** ****** ****** ******
      ****** ****** ****** ****** ****** ****** ****** ****** ****** ******
      ****** ****** ****** ****** ****** ****** ****** ****** ****** ******
  19  ****** ****** ****** ****** ****** ****** ****** ****** ****** ******
      ****** ****** ****** ****** ****** ****** ****** ****** ****** ******
      ****** ****** ****** ****** ****** ****** ****** ****** ****** ******
  20  ****** ****** ****** ****** ****** ****** ****** ****** ****** ******
      ****** ****** ****** ****** ****** ****** ****** ****** ****** ******
      ****** ****** ****** ****** ****** ****** ****** ****** ****** ******
  21  ****** ****** ****** ****** ****** ****** ****** ****** ****** ******
      ****** ****** ****** ****** ****** ****** ****** ****** ****** ******
      ****** ****** ****** ****** ****** ****** ****** ****** ****** ******
  22  ****** ****** ****** ****** ****** ****** ****** ****** ****** ******
      ****** ****** ****** ****** ****** ****** ****** ****** ****** ******
      ****** ****** ****** ****** ****** ****** ****** ****** ****** ******
  23  ****** ****** ****** ****** ****** ****** ****** ****** ****** ******
      ****** ****** ****** ****** ****** ****** ****** ****** ****** ******
      ****** ****** ****** ****** ****** ****** ****** ****** ****** ******
  24  ****** ****** ****** ****** ****** ****** ****** ****** ****** ******
      ****** ****** ****** ****** ****** ****** ****** ****** ****** ******
      ****** ****** ****** ****** ****** ****** ****** ****** ****** ******
  25  ****** ****** ****** ****** ****** ****** ****** ****** ****** ******
      ****** ****** ****** ****** ****** ****** ****** ****** ****** ******
      ****** ****** ****** ****** ****** ****** ****** ****** ****** ******

 HEAD WILL BE SAVED ON UNIT   51 AT END OF TIME STEP    1, STRESS PERIOD   12
1
  VOLUMETRIC BUDGET FOR ENTIRE MODEL AT END OF TIME STEP    1, STRESS PERIOD  12
  ------------------------------------------------------------------------------

     CUMULATIVE VOLUMES      L**3       RATES FOR THIS TIME STEP      L**3/T
     ------------------                 ------------------------

           IN:                                      IN:
           ---                                      ---
             STORAGE =    36453221.6942               STORAGE =           9.6329
       CONSTANT HEAD =    32939779.5816         CONSTANT HEAD =       35401.5669
               WELLS =           0.0000                 WELLS =           0.0000
            RECHARGE =    26413200.0000              RECHARGE =       27600.0000
      STREAM LEAKAGE =     9889171.3660        STREAM LEAKAGE =       10814.7956

            TOTAL IN =   105695372.6418              TOTAL IN =       73825.9954

          OUT:                                     OUT:
          ----                                     ----
             STORAGE =     2618692.2575               STORAGE =        3016.8198
       CONSTANT HEAD =           0.0000         CONSTANT HEAD =           0.0000
               WELLS =    38795484.0397                 WELLS =       35429.6658
            RECHARGE =           0.0000              RECHARGE =           0.0000
      STREAM LEAKAGE =    64281198.4130        STREAM LEAKAGE =       35379.5098

           TOTAL OUT =   105695374.7102             TOTAL OUT =       73825.9954

            IN - OUT =          -2.0684              IN - OUT =       7.7997E-05

 PERCENT DISCREPANCY =          -0.00     PERCENT DISCREPANCY =           0.00






         TIME SUMMARY AT END OF TIME STEP    1 IN STRESS PERIOD   12
                    SECONDS     MINUTES      HOURS       DAYS        YEARS
                    -----------------------------------------------------------
   TIME STEP LENGTH 7.86240E+06 1.31040E+05  2184.0      91.000     0.24914    
 STRESS PERIOD TIME 7.86240E+06 1.31040E+05  2184.0      91.000     0.24914    
         TOTAL TIME 9.46080E+07 1.57680E+06  26280.      1095.0      2.9979    
1

 Run end date and time (yyyy/mm/dd hh:mm:ss): 2018/10/10 18:20:54
 Elapsed run time:  0.071 Seconds

