                                  MODFLOW-2005     
      U.S. GEOLOGICAL SURVEY MODULAR FINITE-DIFFERENCE GROUND-WATER FLOW MODEL
                            VERSION 1.11.00 8/8/2013

 LIST FILE: supply2.lst
                         UNIT   10

 OPENING ..\data\supply.dis
 FILE TYPE:DIS   UNIT   11   STATUS:OLD    
 FORMAT:FORMATTED              ACCESS:SEQUENTIAL          

 OPENING ..\data\supply.ba6
 FILE TYPE:BAS6   UNIT   12   STATUS:OLD    
 FORMAT:FORMATTED              ACCESS:SEQUENTIAL          

 OPENING ..\data\supply.bc6
 FILE TYPE:BCF6   UNIT   13   STATUS:OLD    
 FORMAT:FORMATTED              ACCESS:SEQUENTIAL          

 OPENING ..\data\supply.rch
 FILE TYPE:RCH   UNIT   15   STATUS:OLD    
 FORMAT:FORMATTED              ACCESS:SEQUENTIAL          

 OPENING ..\data\supply2.sfr
 FILE TYPE:SFR   UNIT   16   STATUS:OLD    
 FORMAT:FORMATTED              ACCESS:SEQUENTIAL          

 OPENING ..\data\supply.oc
 FILE TYPE:OC   UNIT   17   STATUS:OLD    
 FORMAT:FORMATTED              ACCESS:SEQUENTIAL          

 OPENING ..\data\supply.pcg
 FILE TYPE:PCG   UNIT   18   STATUS:OLD    
 FORMAT:FORMATTED              ACCESS:SEQUENTIAL          

 OPENING supply2.wel
 FILE TYPE:WEL   UNIT   19   STATUS:OLD    
 FORMAT:FORMATTED              ACCESS:SEQUENTIAL          

 OPENING supply2sf.cbc
 FILE TYPE:DATA(BINARY)   UNIT   50   STATUS:UNKNOWN
 FORMAT:BINARY                 ACCESS:SEQUENTIAL          

 OPENING supply2hd.bhd
 FILE TYPE:DATA(BINARY)   UNIT   51   STATUS:UNKNOWN
 FORMAT:BINARY                 ACCESS:SEQUENTIAL          

 BAS -- BASIC PACKAGE, VERSION 7, 5/2/2005 INPUT READ FROM UNIT   12
 
 MODFLOW was compiled using uniform precision
 Precision of REAL and DOUBLE PRECISION variables:          15

 DISCRETIZATION INPUT DATA READ FROM UNIT   11
    1 LAYERS        25 ROWS        30 COLUMNS
   12 STRESS PERIOD(S) IN SIMULATION
 MODEL TIME UNIT IS DAYS
 MODEL LENGTH UNIT IS UNDEFINED
  Confining bed flag for each layer:
   0

                     DELR =   200.000    

                     DELC =   200.000    

 TOP ELEVATION OF LAYER 1 =  100.0000    

   MODEL LAYER BOTTOM EL. =   0.00000     FOR LAYER   1


 STRESS PERIOD     LENGTH       TIME STEPS     MULTIPLIER FOR DELT    SS FLAG
 ----------------------------------------------------------------------------
        1         92.00000          1                    1.500         TR
        2         91.00000          1                    1.500         TR
        3         91.00000          1                    1.500         TR
        4         91.00000          1                    1.500         TR
        5         92.00000          1                    1.500         TR
        6         91.00000          1                    1.500         TR
        7         91.00000          1                    1.500         TR
        8         91.00000          1                    1.500         TR
        9         92.00000          1                    1.500         TR
       10         91.00000          1                    1.500         TR
       11         91.00000          1                    1.500         TR
       12         91.00000          1                    1.500         TR

 TRANSIENT SIMULATION



 
 #MODOFC transient water supply sample problem                                   
 #                                                                               
 THE FREE FORMAT OPTION HAS BEEN SELECTED



                     BOUNDARY ARRAY FOR LAYER   1
 READING ON UNIT   12 WITH FORMAT: (20I4)              

 AQUIFER HEAD WILL BE SET TO   0.0000     AT ALL NO-FLOW NODES (IBOUND=0).



                       INITIAL HEAD FOR LAYER   1
 READING ON UNIT   12 WITH FORMAT: (10F13.0)           

 OUTPUT CONTROL IS SPECIFIED ONLY AT TIME STEPS FOR WHICH OUTPUT IS DESIRED
 COMPACT CELL-BY-CELL BUDGET FILES WILL BE WRITTEN
 HEAD PRINT FORMAT CODE IS  18    DRAWDOWN PRINT FORMAT CODE IS   0
 HEADS WILL BE SAVED ON UNIT   51    DRAWDOWNS WILL BE SAVED ON UNIT    0

 BCF -- BLOCK-CENTERED FLOW PACKAGE, VERSION 7, 5/2/2005
         INPUT READ FROM UNIT 13
 TRANSIENT SIMULATION
 HEAD AT CELLS THAT CONVERT TO DRY=   0.0000    
 WETTING CAPABILITY IS NOT ACTIVE
      LAYER  LAYER-TYPE CODE     INTERBLOCK T
      --------------------------------------------
         1            0          0 -- HARMONIC    

 COLUMN TO ROW ANISOTROPY =  1.000000    

     PRIMARY STORAGE COEF =  5.000000E-02 FOR LAYER   1

     TRANSMIS. ALONG ROWS =   500.000     FOR LAYER   1

 WEL -- WELL PACKAGE, VERSION 7, 5/2/2005 INPUT READ FROM UNIT   19
 # Well package input file written by MMProc
 No named parameters
 MAXIMUM OF      4 ACTIVE WELLS AT ONE TIME


     0 Well parameters

 RCH -- RECHARGE PACKAGE, VERSION 7, 5/2/2005 INPUT READ FROM UNIT   15
 No named parameters
 OPTION 1 -- RECHARGE TO TOP LAYER


     0 Recharge parameters

 SFR7 -- STREAMFLOW ROUTING PACKAGE, VERSION 1.0.7, 2013-01-15
         INPUT READ FROM UNIT  16
 #  Supply2 test problem for GWM-VI
 #  The eighth entry in the first data line is ISTCB2 -
 #    Setting this to a negative number indicates that
 #    streamflows out of the reach will be saved to a
 #    binary file.  The absolute value of ISTCB2 is the
 #    unit to which unformatted flows will be written.
 #
 No named parameters
 Segment information will not be 
 read by reach
 No named parameters
 No specifed inflow files


 NUMBER OF STREAM REACHES IS   40

 NUMBER OF STREAM SEGMENTS IS    3

 NUMBER OF STREAM PARAMETERS IS    0

 NUMBER OF STREAM SEGMENTS DEFINED USING PARAMETERS IS              0

 MAXIMUM ERROR FOR STREAM LEAKAGE RATES IS  1.00E-04

 CONSTANT FOR MANNINGS EQUATION IS  1.2839E+05





   STREAM NETWORK DESCRIPTION: 

   LAYER    ROW    COL   SEGMENT   REACH     LENGTH
                          NUMBER   NUMBER    IN CELL        
   --------------------------------------------------
      1     13      1       1        1    2.0000E+02
      1     13      2       1        2    2.0000E+02
      1     14      3       1        3    2.0000E+02
      1     15      4       1        4    2.0000E+02
      1     16      5       1        5    2.0000E+02
      1     16      6       1        6    2.0000E+02
      1     16      7       1        7    2.0000E+02
      1     16      8       1        8    2.0000E+02
      1     16      9       1        9    2.0000E+02
      1     16     10       1       10    2.0000E+02
      1     16     11       1       11    2.0000E+02
      1     16     12       1       12    2.0000E+02
      1     15     13       1       13    2.0000E+02
      1     14     14       1       14    2.0000E+02
      1     13     15       1       15    2.0000E+02
      1     12     16       1       16    2.0000E+02
      1     12     17       1       17    2.0000E+02
      1     12     18       1       18    2.0000E+02
      1     12     19       1       19    2.0000E+02
      1     13     20       1       20    2.0000E+02
      1     14     21       1       21    2.0000E+02
      1     14     22       1       22    2.0000E+02
      1      9     30       2        1    2.0000E+02
      1      9     29       2        2    2.0000E+02
      1      9     28       2        3    2.0000E+02
      1      9     27       2        4    2.0000E+02
      1     10     26       2        5    2.0000E+02
      1     11     25       2        6    2.0000E+02
      1     12     24       2        7    2.0000E+02
      1     13     23       2        8    2.0000E+02
      1     14     22       2        9    2.0000E+02
      1     14     22       3        1    2.0000E+02
      1     15     23       3        2    2.0000E+02
      1     15     24       3        3    2.0000E+02
      1     15     25       3        4    2.0000E+02
      1     15     26       3        5    2.0000E+02
      1     16     27       3        6    2.0000E+02
      1     17     28       3        7    2.0000E+02
      1     18     29       3        8    2.0000E+02
      1     18     30       3        9    2.0000E+02




 PCG -- CONJUGATE-GRADIENT SOLUTION PACKAGE, VERSION 7, 5/2/2005
 MAXIMUM OF    500 CALLS OF SOLUTION ROUTINE
 MAXIMUM OF      5 INTERNAL ITERATIONS PER CALL TO SOLUTION ROUTINE
 MATRIX PRECONDITIONING TYPE :    1



                                    SOLUTION BY THE CONJUGATE-GRADIENT METHOD
                                   -------------------------------------------
                    MAXIMUM NUMBER OF CALLS TO PCG ROUTINE =      500
                        MAXIMUM ITERATIONS PER CALL TO PCG =        5
                               MATRIX PRECONDITIONING TYPE =        1
        RELAXATION FACTOR (ONLY USED WITH PRECOND. TYPE 1) =    0.10000E+01
 PARAMETER OF POLYNOMIAL PRECOND. = 2 (2) OR IS CALCULATED :        0
                         HEAD CHANGE CRITERION FOR CLOSURE =    0.10000E-05
                     RESIDUAL CHANGE CRITERION FOR CLOSURE =    0.10000E+01
            PCG HEAD AND RESIDUAL CHANGE PRINTOUT INTERVAL =        1
     PRINTING FROM SOLVER IS LIMITED(1) OR SUPPRESSED (>1) =        1
                            STEADY-STATE DAMPING PARAMETER =    0.10000E+01
                               TRANSIENT DAMPING PARAMETER =    0.10000E+01
1
                            STRESS PERIOD NO.    1, LENGTH =   92.00000    
                            -----------------------------------------------

                              NUMBER OF TIME STEPS =     1

                               MULTIPLIER FOR DELT =     1.500

                            INITIAL TIME STEP SIZE =   92.00000    

 WELL NO.  LAYER   ROW   COL   STRESS RATE         
 --------------------------------------------------
      1      1     21     23     -0.1821E+05
      2      1     20     24     -0.1241E+05
      3      1     19     20     -0.2882E+05
      4      1     19     24     -0.1691E+05

      4 WELLS

                 RECHARGE =  5.000000E-04



 CLASSIFICATION & COUNT OF STREAM SEGMENTS BASED ON SOURCE OF INFLOW:

                HEADWATER     DIVERSION     RECEIVES TRIBUTARY FLOW
                ---------     ---------     -----------------------
                     2              0               1



                    INPUT DATA FOR EACH STREAM SEGMENT
 ---------------------------------------------------------------------------------------------

 SEGMENT    SEG.     INFLOW   OVERLAND   STREAM    STREAM   ICALC  OUTFLOW  DIVERSION PRIORITY
    NO.    LENGTH     RATE     RUNOFF      ET       PPT.    METH.  TO SEG.  FROM SEG.    NO.

      1  4.400E+03 1.000E+05 0.000E+00 0.000E+00 0.000E+00    1        3        0        0
      2  1.800E+03 5.000E+04 0.000E+00 0.000E+00 0.000E+00    1        3        0        0
      3  1.800E+03 0.000E+00 0.000E+00 0.000E+00 0.000E+00    1        0        0        0


         STREAMBED PROPERTIES AND STREAM DIMENSIONS

 SEGMENT     BED HYD. COND.      BED THICKNESS     ELEV.-TOP OF BED     WIDTH OF STREAM     DEPTH OF STREAM    STREAM ROUGHNESS
    No.     UPPER     LOWER     UPPER     LOWER     UPPER     LOWER     UPPER     LOWER     UPPER     LOWER   CHANNEL      BANK

     1  5.000E+00 5.000E+00 1.000E+00 1.000E+00 4.850E+01 3.800E+01 2.000E+01 2.000E+01                     5.000E-02
     2  5.000E+00 5.000E+00 1.000E+00 1.000E+00 4.025E+01 3.800E+01 2.000E+01 2.000E+01                     5.000E-02
     3  5.000E+00 5.000E+00 1.000E+00 1.000E+00 3.800E+01 3.000E+01 2.000E+01 2.000E+01                     5.000E-02



 
 SOLVING FOR HEAD 


     8 CALLS TO PCG ROUTINE FOR TIME STEP   1 IN STRESS PERIOD    1
    34 TOTAL ITERATIONS

 OUTPUT CONTROL FOR STRESS PERIOD    1   TIME STEP    1
    SAVE BUDGET
    SAVE HEAD FOR ALL LAYERS
    PRINT HEAD FOR ALL LAYERS
 UBDSV2 SAVING "STREAMFLOW OUT  " ON UNIT  50 AT TIME STEP  1, STRESS PERIOD   1



 STREAM LISTING     PERIOD      1   STEP        1

 LAYER ROW COL. STREAM  RCH.  FLOW INTO     FLOW TO   FLOW OUT OF   OVRLND.     DIRECT     STREAM       STREAM     STREAM     STREAM   STREAMBED  STREAMBED
                SEG.NO.  NO.  STRM. RCH.    AQUIFER    STRM. RCH.    RUNOFF     PRECIP       ET          HEAD       DEPTH      WIDTH   CONDCTNC.   GRADIENT

   1   13    1     1     1    1.0000E+05 -5.7563E+03   1.0576E+05  0.000E+00  0.000E+00  0.000E+00  4.84085E+01  1.471E-01  2.000E+01  2.000E+04 -2.878E-01
   1   13    2     1     2    1.0576E+05 -8.6046E+03   1.1436E+05  0.000E+00  0.000E+00  0.000E+00  4.79373E+01  1.532E-01  2.000E+01  2.000E+04 -4.302E-01
   1   14    3     1     3    1.1436E+05 -7.8811E+03   1.2224E+05  0.000E+00  0.000E+00  0.000E+00  4.74668E+01  1.600E-01  2.000E+01  2.000E+04 -3.941E-01
   1   15    4     1     4    1.2224E+05 -7.7088E+03   1.2995E+05  0.000E+00  0.000E+00  0.000E+00  4.69958E+01  1.662E-01  2.000E+01  2.000E+04 -3.854E-01
   1   16    5     1     5    1.2995E+05 -7.4897E+03   1.3744E+05  0.000E+00  0.000E+00  0.000E+00  4.65245E+01  1.722E-01  2.000E+01  2.000E+04 -3.745E-01
   1   16    6     1     6    1.3744E+05 -5.9926E+03   1.4343E+05  0.000E+00  0.000E+00  0.000E+00  4.60523E+01  1.773E-01  2.000E+01  2.000E+04 -2.996E-01
   1   16    7     1     7    1.4343E+05 -6.1227E+03   1.4956E+05  0.000E+00  0.000E+00  0.000E+00  4.55796E+01  1.819E-01  2.000E+01  2.000E+04 -3.061E-01
   1   16    8     1     8    1.4956E+05 -6.1943E+03   1.5575E+05  0.000E+00  0.000E+00  0.000E+00  4.51069E+01  1.864E-01  2.000E+01  2.000E+04 -3.097E-01
   1   16    9     1     9    1.5575E+05 -6.1874E+03   1.6194E+05  0.000E+00  0.000E+00  0.000E+00  4.46341E+01  1.909E-01  2.000E+01  2.000E+04 -3.094E-01
   1   16   10     1    10    1.6194E+05 -6.1005E+03   1.6804E+05  0.000E+00  0.000E+00  0.000E+00  4.41613E+01  1.953E-01  2.000E+01  2.000E+04 -3.050E-01
   1   16   11     1    11    1.6804E+05 -5.9484E+03   1.7399E+05  0.000E+00  0.000E+00  0.000E+00  4.36882E+01  1.996E-01  2.000E+01  2.000E+04 -2.974E-01
   1   16   12     1    12    1.7399E+05 -7.3665E+03   1.8135E+05  0.000E+00  0.000E+00  0.000E+00  4.32156E+01  2.042E-01  2.000E+01  2.000E+04 -3.683E-01
   1   15   13     1    13    1.8135E+05 -7.6151E+03   1.8897E+05  0.000E+00  0.000E+00  0.000E+00  4.27434E+01  2.093E-01  2.000E+01  2.000E+04 -3.808E-01
   1   14   14     1    14    1.8897E+05 -7.8247E+03   1.9679E+05  0.000E+00  0.000E+00  0.000E+00  4.22714E+01  2.145E-01  2.000E+01  2.000E+04 -3.912E-01
   1   13   15     1    15    1.9679E+05 -8.1295E+03   2.0492E+05  0.000E+00  0.000E+00  0.000E+00  4.17994E+01  2.198E-01  2.000E+01  2.000E+04 -4.065E-01
   1   12   16     1    16    2.0492E+05 -9.2070E+03   2.1413E+05  0.000E+00  0.000E+00  0.000E+00  4.13277E+01  2.255E-01  2.000E+01  2.000E+04 -4.603E-01
   1   12   17     1    17    2.1413E+05 -6.2958E+03   2.2043E+05  0.000E+00  0.000E+00  0.000E+00  4.08554E+01  2.304E-01  2.000E+01  2.000E+04 -3.148E-01
   1   12   18     1    18    2.2043E+05 -6.0662E+03   2.2649E+05  0.000E+00  0.000E+00  0.000E+00  4.03821E+01  2.343E-01  2.000E+01  2.000E+04 -3.033E-01
   1   12   19     1    19    2.2649E+05 -7.8004E+03   2.3429E+05  0.000E+00  0.000E+00  0.000E+00  3.99091E+01  2.387E-01  2.000E+01  2.000E+04 -3.900E-01
   1   13   20     1    20    2.3429E+05 -5.6519E+03   2.3994E+05  0.000E+00  0.000E+00  0.000E+00  3.94360E+01  2.428E-01  2.000E+01  2.000E+04 -2.826E-01
   1   14   21     1    21    2.3994E+05 -3.3030E+03   2.4325E+05  0.000E+00  0.000E+00  0.000E+00  3.89615E+01  2.456E-01  2.000E+01  2.000E+04 -1.651E-01
   1   14   22     1    22    2.4325E+05  4.7651E+03   2.3848E+05  0.000E+00  0.000E+00  0.000E+00  3.84838E+01  2.451E-01  2.000E+01  2.000E+04  2.383E-01
   1    9   30     2     1    5.0000E+04 -5.5677E+03   5.5568E+04  0.000E+00  0.000E+00  0.000E+00  4.02447E+01  1.197E-01  2.000E+01  2.000E+04 -2.784E-01
   1    9   29     2     2    5.5568E+04 -5.8669E+03   6.1435E+04  0.000E+00  0.000E+00  0.000E+00  4.00023E+01  1.273E-01  2.000E+01  2.000E+04 -2.933E-01
   1    9   28     2     3    6.1435E+04 -6.1914E+03   6.7626E+04  0.000E+00  0.000E+00  0.000E+00  3.97600E+01  1.350E-01  2.000E+01  2.000E+04 -3.096E-01
   1    9   27     2     4    6.7626E+04 -9.5850E+03   7.7211E+04  0.000E+00  0.000E+00  0.000E+00  3.95197E+01  1.447E-01  2.000E+01  2.000E+04 -4.793E-01
   1   10   26     2     5    7.7211E+04 -7.7120E+03   8.4923E+04  0.000E+00  0.000E+00  0.000E+00  3.92798E+01  1.548E-01  2.000E+01  2.000E+04 -3.856E-01
   1   11   25     2     6    8.4923E+04 -6.5819E+03   9.1505E+04  0.000E+00  0.000E+00  0.000E+00  3.90379E+01  1.629E-01  2.000E+01  2.000E+04 -3.291E-01
   1   12   24     2     7    9.1505E+04 -5.3133E+03   9.6818E+04  0.000E+00  0.000E+00  0.000E+00  3.87944E+01  1.694E-01  2.000E+01  2.000E+04 -2.657E-01
   1   13   23     2     8    9.6818E+04 -3.7369E+03   1.0055E+05  0.000E+00  0.000E+00  0.000E+00  3.85492E+01  1.742E-01  2.000E+01  2.000E+04 -1.868E-01
   1   14   22     2     9    1.0055E+05  1.1024E+03   9.9453E+04  0.000E+00  0.000E+00  0.000E+00  3.83006E+01  1.756E-01  2.000E+01  2.000E+04  5.512E-02
   1   14   22     3     1    3.3793E+05 -8.7757E+03   3.4671E+05  0.000E+00  0.000E+00  0.000E+00  3.78067E+01  2.512E-01  2.000E+01  2.000E+04 -4.388E-01
   1   15   23     3     2    3.4671E+05 -2.2291E+03   3.4894E+05  0.000E+00  0.000E+00  0.000E+00  3.69202E+01  2.536E-01  2.000E+01  2.000E+04 -1.115E-01
   1   15   24     3     3    3.4894E+05 -1.9997E+03   3.5094E+05  0.000E+00  0.000E+00  0.000E+00  3.60323E+01  2.545E-01  2.000E+01  2.000E+04 -9.999E-02
   1   15   25     3     4    3.5094E+05 -2.5467E+03   3.5349E+05  0.000E+00  0.000E+00  0.000E+00  3.51444E+01  2.555E-01  2.000E+01  2.000E+04 -1.273E-01
   1   15   26     3     5    3.5349E+05 -4.5445E+03   3.5803E+05  0.000E+00  0.000E+00  0.000E+00  3.42570E+01  2.570E-01  2.000E+01  2.000E+04 -2.272E-01
   1   16   27     3     6    3.5803E+05 -4.9927E+03   3.6302E+05  0.000E+00  0.000E+00  0.000E+00  3.33702E+01  2.591E-01  2.000E+01  2.000E+04 -2.496E-01
   1   17   28     3     7    3.6302E+05 -5.7539E+03   3.6878E+05  0.000E+00  0.000E+00  0.000E+00  3.24836E+01  2.614E-01  2.000E+01  2.000E+04 -2.877E-01
   1   18   29     3     8    3.6878E+05 -7.0079E+03   3.7578E+05  0.000E+00  0.000E+00  0.000E+00  3.15975E+01  2.641E-01  2.000E+01  2.000E+04 -3.504E-01
   1   18   30     3     9    3.7578E+05 -6.7356E+03   3.8252E+05  0.000E+00  0.000E+00  0.000E+00  3.07115E+01  2.670E-01  2.000E+01  2.000E+04 -3.368E-01



1
              HEAD IN LAYER   1 AT END OF TIME STEP   1 IN STRESS PERIOD    1
  ---------------------------------------------------------------------------

          1      2      3      4      5      6      7      8      9     10
         11     12     13     14     15     16     17     18     19     20
         21     22     23     24     25     26     27     28     29     30
 .........................................................................
   1  ****** ****** ****** ****** ****** ****** ****** ****** ****** ******
      ****** ****** ****** ****** ****** ****** ****** ****** ****** ******
      ****** ****** ****** ****** ****** ****** ****** ****** ****** ******
   2  ****** ****** ****** ****** ****** ****** ****** ****** ****** ******
      ****** ****** ****** ****** ****** ****** ****** ****** ****** ******
      ****** ****** ****** ****** ****** ****** ****** ****** ****** ******
   3  ****** ****** ****** ****** ****** ****** ****** ****** ****** ******
      ****** ****** ****** ****** ****** ****** ****** ****** ****** ******
      ****** ****** ****** ****** ****** ****** ****** ****** ****** ******
   4  ****** ****** ****** ****** ****** ****** ****** ****** ****** ******
      ****** ****** ****** ****** ****** ****** ****** ****** ****** ******
      ****** ****** ****** ****** ****** ****** ****** ****** ****** ******
   5  ****** ****** ****** ****** ****** ****** ****** ****** ****** ******
      ****** ****** ****** ****** ****** ****** ****** ****** ****** ******
      ****** ****** ****** ****** ****** ****** ****** ****** ****** ******
   6  ****** ****** ****** ****** ****** ****** ****** ****** ****** ******
      ****** ****** ****** ****** ****** ****** ****** ****** ****** ******
      ****** ****** ****** ****** ****** ****** ****** ****** ****** ******
   7  ****** ****** ****** ****** ****** ****** ****** ****** ****** ******
      ****** ****** ****** ****** ****** ****** ****** ****** ****** ******
      ****** ****** ****** ****** ****** ****** ****** ****** ****** ******
   8  ****** ****** ****** ****** ****** ****** ****** ****** ****** ******
      ****** ****** ****** ****** ****** ****** ****** ****** ****** ******
      ****** ****** ****** ****** ****** ****** ****** ****** ****** ******
   9  ****** ****** ****** ****** ****** ****** ****** ****** ****** ******
      ****** ****** ****** ****** ****** ****** ****** ****** ****** ******
      ****** ****** ****** ****** ****** ****** ****** ****** ****** ******
  10  ****** ****** ****** ****** ****** ****** ****** ****** ****** ******
      ****** ****** ****** ****** ****** ****** ****** ****** ****** ******
      ****** ****** ****** ****** ****** ****** ****** ****** ****** ******
  11  ****** ****** ****** ****** ****** ****** ****** ****** ****** ******
      ****** ****** ****** ****** ****** ****** ****** ****** ****** ******
      ****** ****** ****** ****** ****** ****** ****** ****** ****** ******
  12  ****** ****** ****** ****** ****** ****** ****** ****** ****** ******
      ****** ****** ****** ****** ****** ****** ****** ****** ****** ******
      ****** ****** ****** ****** ****** ****** ****** ****** ****** ******
  13  ****** ****** ****** ****** ****** ****** ****** ****** ****** ******
      ****** ****** ****** ****** ****** ****** ****** ****** ****** ******
      ****** ****** ****** ****** ****** ****** ****** ****** ****** ******
  14  ****** ****** ****** ****** ****** ****** ****** ****** ****** ******
      ****** ****** ****** ****** ****** ****** ****** ****** ****** ******
      ****** ****** ****** ****** ****** ****** ****** ****** ****** ******
  15  ****** ****** ****** ****** ****** ****** ****** ****** ****** ******
      ****** ****** ****** ****** ****** ****** ****** ****** ****** ******
      ****** ****** ****** ****** ****** ****** ****** ****** ****** ******
  16  ****** ****** ****** ****** ****** ****** ****** ****** ****** ******
      ****** ****** ****** ****** ****** ****** ****** ****** ****** ******
      ****** ****** ****** ****** ****** ****** ****** ****** ****** ******
  17  ****** ****** ****** ****** ****** ****** ****** ****** ****** ******
      ****** ****** ****** ****** ****** ****** ****** ****** ****** ******
      ****** ****** ****** ****** ****** ****** ****** ****** ****** ******
  18  ****** ****** ****** ****** ****** ****** ****** ****** ****** ******
      ****** ****** ****** ****** ****** ****** ****** ****** ****** ******
      ****** ****** ****** ****** ****** ****** ****** ****** ****** ******
  19  ****** ****** ****** ****** ****** ****** ****** ****** ****** ******
      ****** ****** ****** ****** ****** ****** ****** ****** ****** ******
      ****** ****** ****** ****** ****** ****** ****** ****** ****** ******
  20  ****** ****** ****** ****** ****** ****** ****** ****** ****** ******
      ****** ****** ****** ****** ****** ****** ****** ****** ****** ******
      ****** ****** ****** ****** ****** ****** ****** ****** ****** ******
  21  ****** ****** ****** ****** ****** ****** ****** ****** ****** ******
      ****** ****** ****** ****** ****** ****** ****** ****** ****** ******
      ****** ****** ****** ****** ****** ****** ****** ****** ****** ******
  22  ****** ****** ****** ****** ****** ****** ****** ****** ****** ******
      ****** ****** ****** ****** ****** ****** ****** ****** ****** ******
      ****** ****** ****** ****** ****** ****** ****** ****** ****** ******
  23  ****** ****** ****** ****** ****** ****** ****** ****** ****** ******
      ****** ****** ****** ****** ****** ****** ****** ****** ****** ******
      ****** ****** ****** ****** ****** ****** ****** ****** ****** ******
  24  ****** ****** ****** ****** ****** ****** ****** ****** ****** ******
      ****** ****** ****** ****** ****** ****** ****** ****** ****** ******
      ****** ****** ****** ****** ****** ****** ****** ****** ****** ******
  25  ****** ****** ****** ****** ****** ****** ****** ****** ****** ******
      ****** ****** ****** ****** ****** ****** ****** ****** ****** ******
      ****** ****** ****** ****** ****** ****** ****** ****** ****** ******

 HEAD WILL BE SAVED ON UNIT   51 AT END OF TIME STEP    1, STRESS PERIOD    1
1
  VOLUMETRIC BUDGET FOR ENTIRE MODEL AT END OF TIME STEP    1, STRESS PERIOD   1
  ------------------------------------------------------------------------------

     CUMULATIVE VOLUMES      L**3       RATES FOR THIS TIME STEP      L**3/T
     ------------------                 ------------------------

           IN:                                      IN:
           ---                                      ---
             STORAGE =    17869406.9838               STORAGE =      194232.6846
       CONSTANT HEAD =     9276843.0975         CONSTANT HEAD =      100835.2511
               WELLS =           0.0000                 WELLS =           0.0000
            RECHARGE =     1269600.0000              RECHARGE =       13800.0000
      STREAM LEAKAGE =      539811.5823        STREAM LEAKAGE =        5867.5172

            TOTAL IN =    28955661.6637              TOTAL IN =      314735.4529

          OUT:                                     OUT:
          ----                                     ----
             STORAGE =           0.0000               STORAGE =           0.0000
       CONSTANT HEAD =           0.0000         CONSTANT HEAD =           0.0000
               WELLS =     7024021.6062                 WELLS =       76348.0609
            RECHARGE =           0.0000              RECHARGE =           0.0000
      STREAM LEAKAGE =    21931640.1962        STREAM LEAKAGE =      238387.3934

           TOTAL OUT =    28955661.8024             TOTAL OUT =      314735.4544

            IN - OUT =          -0.1387              IN - OUT =      -1.5080E-03

 PERCENT DISCREPANCY =          -0.00     PERCENT DISCREPANCY =          -0.00






         TIME SUMMARY AT END OF TIME STEP    1 IN STRESS PERIOD    1
                    SECONDS     MINUTES      HOURS       DAYS        YEARS
                    -----------------------------------------------------------
   TIME STEP LENGTH 7.94880E+06 1.32480E+05  2208.0      92.000     0.25188    
 STRESS PERIOD TIME 7.94880E+06 1.32480E+05  2208.0      92.000     0.25188    
         TOTAL TIME 7.94880E+06 1.32480E+05  2208.0      92.000     0.25188    
1
1
                            STRESS PERIOD NO.    2, LENGTH =   91.00000    
                            -----------------------------------------------

                              NUMBER OF TIME STEPS =     1

                               MULTIPLIER FOR DELT =     1.500

                            INITIAL TIME STEP SIZE =   91.00000    

 WELL NO.  LAYER   ROW   COL   STRESS RATE         
 --------------------------------------------------
      1      1     21     23     -0.1821E+05
      2      1     20     24     -0.1241E+05
      3      1     19     20     -0.2882E+05
      4      1     19     24     -0.1691E+05

      4 WELLS

                 RECHARGE =  2.000000E-03

 REUSING STREAM SEGMENT DATA FROM LAST STRESS PERIOD
 
 SOLVING FOR HEAD 


     7 CALLS TO PCG ROUTINE FOR TIME STEP   1 IN STRESS PERIOD    2
    27 TOTAL ITERATIONS

 OUTPUT CONTROL FOR STRESS PERIOD    2   TIME STEP    1
    SAVE BUDGET
    SAVE HEAD FOR ALL LAYERS
    PRINT HEAD FOR ALL LAYERS
 UBDSV2 SAVING "STREAMFLOW OUT  " ON UNIT  50 AT TIME STEP  1, STRESS PERIOD   2



 STREAM LISTING     PERIOD      2   STEP        1

 LAYER ROW COL. STREAM  RCH.  FLOW INTO     FLOW TO   FLOW OUT OF   OVRLND.     DIRECT     STREAM       STREAM     STREAM     STREAM   STREAMBED  STREAMBED
                SEG.NO.  NO.  STRM. RCH.    AQUIFER    STRM. RCH.    RUNOFF     PRECIP       ET          HEAD       DEPTH      WIDTH   CONDCTNC.   GRADIENT

   1   13    1     1     1    1.0000E+05 -3.8477E+03   1.0385E+05  0.000E+00  0.000E+00  0.000E+00  4.84077E+01  1.463E-01  2.000E+01  2.000E+04 -1.924E-01
   1   13    2     1     2    1.0385E+05 -6.1994E+03   1.1005E+05  0.000E+00  0.000E+00  0.000E+00  4.79347E+01  1.506E-01  2.000E+01  2.000E+04 -3.100E-01
   1   14    3     1     3    1.1005E+05 -5.1626E+03   1.1521E+05  0.000E+00  0.000E+00  0.000E+00  4.74622E+01  1.554E-01  2.000E+01  2.000E+04 -2.581E-01
   1   15    4     1     4    1.1521E+05 -5.0052E+03   1.2021E+05  0.000E+00  0.000E+00  0.000E+00  4.69891E+01  1.595E-01  2.000E+01  2.000E+04 -2.503E-01
   1   16    5     1     5    1.2021E+05 -5.1652E+03   1.2538E+05  0.000E+00  0.000E+00  0.000E+00  4.65159E+01  1.636E-01  2.000E+01  2.000E+04 -2.583E-01
   1   16    6     1     6    1.2538E+05 -4.0902E+03   1.2947E+05  0.000E+00  0.000E+00  0.000E+00  4.60423E+01  1.673E-01  2.000E+01  2.000E+04 -2.045E-01
   1   16    7     1     7    1.2947E+05 -4.1749E+03   1.3365E+05  0.000E+00  0.000E+00  0.000E+00  4.55683E+01  1.705E-01  2.000E+01  2.000E+04 -2.087E-01
   1   16    8     1     8    1.3365E+05 -4.2103E+03   1.3786E+05  0.000E+00  0.000E+00  0.000E+00  4.50942E+01  1.738E-01  2.000E+01  2.000E+04 -2.105E-01
   1   16    9     1     9    1.3786E+05 -4.1765E+03   1.4203E+05  0.000E+00  0.000E+00  0.000E+00  4.46202E+01  1.770E-01  2.000E+01  2.000E+04 -2.088E-01
   1   16   10     1    10    1.4203E+05 -4.0686E+03   1.4610E+05  0.000E+00  0.000E+00  0.000E+00  4.41460E+01  1.801E-01  2.000E+01  2.000E+04 -2.034E-01
   1   16   11     1    11    1.4610E+05 -3.8897E+03   1.4999E+05  0.000E+00  0.000E+00  0.000E+00  4.36717E+01  1.830E-01  2.000E+01  2.000E+04 -1.945E-01
   1   16   12     1    12    1.4999E+05 -4.6042E+03   1.5459E+05  0.000E+00  0.000E+00  0.000E+00  4.31975E+01  1.862E-01  2.000E+01  2.000E+04 -2.302E-01
   1   15   13     1    13    1.5459E+05 -4.3965E+03   1.5899E+05  0.000E+00  0.000E+00  0.000E+00  4.27236E+01  1.895E-01  2.000E+01  2.000E+04 -2.198E-01
   1   14   14     1    14    1.5899E+05 -4.4891E+03   1.6348E+05  0.000E+00  0.000E+00  0.000E+00  4.22495E+01  1.927E-01  2.000E+01  2.000E+04 -2.245E-01
   1   13   15     1    15    1.6348E+05 -4.8906E+03   1.6837E+05  0.000E+00  0.000E+00  0.000E+00  4.17756E+01  1.960E-01  2.000E+01  2.000E+04 -2.445E-01
   1   12   16     1    16    1.6837E+05 -6.4872E+03   1.7486E+05  0.000E+00  0.000E+00  0.000E+00  4.13023E+01  2.000E-01  2.000E+01  2.000E+04 -3.244E-01
   1   12   17     1    17    1.7486E+05 -4.0209E+03   1.7888E+05  0.000E+00  0.000E+00  0.000E+00  4.08287E+01  2.037E-01  2.000E+01  2.000E+04 -2.010E-01
   1   12   18     1    18    1.7888E+05 -3.7788E+03   1.8266E+05  0.000E+00  0.000E+00  0.000E+00  4.03541E+01  2.063E-01  2.000E+01  2.000E+04 -1.889E-01
   1   12   19     1    19    1.8266E+05 -5.1164E+03   1.8777E+05  0.000E+00  0.000E+00  0.000E+00  3.98798E+01  2.094E-01  2.000E+01  2.000E+04 -2.558E-01
   1   13   20     1    20    1.8777E+05 -2.5130E+03   1.9029E+05  0.000E+00  0.000E+00  0.000E+00  3.94051E+01  2.120E-01  2.000E+01  2.000E+04 -1.256E-01
   1   14   21     1    21    1.9029E+05 -8.5551E+01   1.9037E+05  0.000E+00  0.000E+00  0.000E+00  3.89287E+01  2.128E-01  2.000E+01  2.000E+04 -4.278E-03
   1   14   22     1    22    1.9037E+05  5.4495E+03   1.8492E+05  0.000E+00  0.000E+00  0.000E+00  3.84497E+01  2.110E-01  2.000E+01  2.000E+04  2.725E-01
   1    9   30     2     1    5.0000E+04 -3.4520E+03   5.3452E+04  0.000E+00  0.000E+00  0.000E+00  4.02432E+01  1.182E-01  2.000E+01  2.000E+04 -1.726E-01
   1    9   29     2     2    5.3452E+04 -3.7763E+03   5.7228E+04  0.000E+00  0.000E+00  0.000E+00  3.99981E+01  1.231E-01  2.000E+01  2.000E+04 -1.888E-01
   1    9   28     2     3    5.7228E+04 -4.1527E+03   6.1381E+04  0.000E+00  0.000E+00  0.000E+00  3.97534E+01  1.284E-01  2.000E+01  2.000E+04 -2.076E-01
   1    9   27     2     4    6.1381E+04 -7.1601E+03   6.8541E+04  0.000E+00  0.000E+00  0.000E+00  3.95106E+01  1.356E-01  2.000E+01  2.000E+04 -3.580E-01
   1   10   26     2     5    6.8541E+04 -4.8245E+03   7.3365E+04  0.000E+00  0.000E+00  0.000E+00  3.92679E+01  1.429E-01  2.000E+01  2.000E+04 -2.412E-01
   1   11   25     2     6    7.3365E+04 -3.7220E+03   7.7087E+04  0.000E+00  0.000E+00  0.000E+00  3.90230E+01  1.480E-01  2.000E+01  2.000E+04 -1.861E-01
   1   12   24     2     7    7.7087E+04 -2.7177E+03   7.9805E+04  0.000E+00  0.000E+00  0.000E+00  3.87768E+01  1.518E-01  2.000E+01  2.000E+04 -1.359E-01
   1   13   23     2     8    7.9805E+04 -1.6324E+03   8.1438E+04  0.000E+00  0.000E+00  0.000E+00  3.85293E+01  1.543E-01  2.000E+01  2.000E+04 -8.162E-02
   1   14   22     2     9    8.1438E+04  2.0382E+03   7.9399E+04  0.000E+00  0.000E+00  0.000E+00  3.82791E+01  1.541E-01  2.000E+01  2.000E+04  1.019E-01
   1   14   22     3     1    2.6432E+05 -8.0918E+03   2.7241E+05  0.000E+00  0.000E+00  0.000E+00  3.77726E+01  2.170E-01  2.000E+01  2.000E+04 -4.046E-01
   1   15   23     3     2    2.7241E+05  1.1199E+03   2.7129E+05  0.000E+00  0.000E+00  0.000E+00  3.68854E+01  2.187E-01  2.000E+01  2.000E+04  5.600E-02
   1   15   24     3     3    2.7129E+05  4.2896E+02   2.7087E+05  0.000E+00  0.000E+00  0.000E+00  3.59961E+01  2.184E-01  2.000E+01  2.000E+04  2.145E-02
   1   15   25     3     4    2.7087E+05 -1.4902E+02   2.7101E+05  0.000E+00  0.000E+00  0.000E+00  3.51072E+01  2.183E-01  2.000E+01  2.000E+04 -7.451E-03
   1   15   26     3     5    2.7101E+05 -1.5712E+03   2.7259E+05  0.000E+00  0.000E+00  0.000E+00  3.42187E+01  2.187E-01  2.000E+01  2.000E+04 -7.856E-02
   1   16   27     3     6    2.7259E+05 -1.2050E+03   2.7379E+05  0.000E+00  0.000E+00  0.000E+00  3.33305E+01  2.194E-01  2.000E+01  2.000E+04 -6.025E-02
   1   17   28     3     7    2.7379E+05 -1.9694E+03   2.7576E+05  0.000E+00  0.000E+00  0.000E+00  3.24424E+01  2.201E-01  2.000E+01  2.000E+04 -9.847E-02
   1   18   29     3     8    2.7576E+05 -3.7350E+03   2.7949E+05  0.000E+00  0.000E+00  0.000E+00  3.15548E+01  2.215E-01  2.000E+01  2.000E+04 -1.867E-01
   1   18   30     3     9    2.7949E+05 -4.2927E+03   2.8379E+05  0.000E+00  0.000E+00  0.000E+00  3.06679E+01  2.234E-01  2.000E+01  2.000E+04 -2.146E-01



1
              HEAD IN LAYER   1 AT END OF TIME STEP   1 IN STRESS PERIOD    2
  ---------------------------------------------------------------------------

          1      2      3      4      5      6      7      8      9     10
         11     12     13     14     15     16     17     18     19     20
         21     22     23     24     25     26     27     28     29     30
 .........................................................................
   1  ****** ****** ****** ****** ****** ****** ****** ****** ****** ******
      ****** ****** ****** ****** ****** ****** ****** ****** ****** ******
      ****** ****** ****** ****** ****** ****** ****** ****** ****** ******
   2  ****** ****** ****** ****** ****** ****** ****** ****** ****** ******
      ****** ****** ****** ****** ****** ****** ****** ****** ****** ******
      ****** ****** ****** ****** ****** ****** ****** ****** ****** ******
   3  ****** ****** ****** ****** ****** ****** ****** ****** ****** ******
      ****** ****** ****** ****** ****** ****** ****** ****** ****** ******
      ****** ****** ****** ****** ****** ****** ****** ****** ****** ******
   4  ****** ****** ****** ****** ****** ****** ****** ****** ****** ******
      ****** ****** ****** ****** ****** ****** ****** ****** ****** ******
      ****** ****** ****** ****** ****** ****** ****** ****** ****** ******
   5  ****** ****** ****** ****** ****** ****** ****** ****** ****** ******
      ****** ****** ****** ****** ****** ****** ****** ****** ****** ******
      ****** ****** ****** ****** ****** ****** ****** ****** ****** ******
   6  ****** ****** ****** ****** ****** ****** ****** ****** ****** ******
      ****** ****** ****** ****** ****** ****** ****** ****** ****** ******
      ****** ****** ****** ****** ****** ****** ****** ****** ****** ******
   7  ****** ****** ****** ****** ****** ****** ****** ****** ****** ******
      ****** ****** ****** ****** ****** ****** ****** ****** ****** ******
      ****** ****** ****** ****** ****** ****** ****** ****** ****** ******
   8  ****** ****** ****** ****** ****** ****** ****** ****** ****** ******
      ****** ****** ****** ****** ****** ****** ****** ****** ****** ******
      ****** ****** ****** ****** ****** ****** ****** ****** ****** ******
   9  ****** ****** ****** ****** ****** ****** ****** ****** ****** ******
      ****** ****** ****** ****** ****** ****** ****** ****** ****** ******
      ****** ****** ****** ****** ****** ****** ****** ****** ****** ******
  10  ****** ****** ****** ****** ****** ****** ****** ****** ****** ******
      ****** ****** ****** ****** ****** ****** ****** ****** ****** ******
      ****** ****** ****** ****** ****** ****** ****** ****** ****** ******
  11  ****** ****** ****** ****** ****** ****** ****** ****** ****** ******
      ****** ****** ****** ****** ****** ****** ****** ****** ****** ******
      ****** ****** ****** ****** ****** ****** ****** ****** ****** ******
  12  ****** ****** ****** ****** ****** ****** ****** ****** ****** ******
      ****** ****** ****** ****** ****** ****** ****** ****** ****** ******
      ****** ****** ****** ****** ****** ****** ****** ****** ****** ******
  13  ****** ****** ****** ****** ****** ****** ****** ****** ****** ******
      ****** ****** ****** ****** ****** ****** ****** ****** ****** ******
      ****** ****** ****** ****** ****** ****** ****** ****** ****** ******
  14  ****** ****** ****** ****** ****** ****** ****** ****** ****** ******
      ****** ****** ****** ****** ****** ****** ****** ****** ****** ******
      ****** ****** ****** ****** ****** ****** ****** ****** ****** ******
  15  ****** ****** ****** ****** ****** ****** ****** ****** ****** ******
      ****** ****** ****** ****** ****** ****** ****** ****** ****** ******
      ****** ****** ****** ****** ****** ****** ****** ****** ****** ******
  16  ****** ****** ****** ****** ****** ****** ****** ****** ****** ******
      ****** ****** ****** ****** ****** ****** ****** ****** ****** ******
      ****** ****** ****** ****** ****** ****** ****** ****** ****** ******
  17  ****** ****** ****** ****** ****** ****** ****** ****** ****** ******
      ****** ****** ****** ****** ****** ****** ****** ****** ****** ******
      ****** ****** ****** ****** ****** ****** ****** ****** ****** ******
  18  ****** ****** ****** ****** ****** ****** ****** ****** ****** ******
      ****** ****** ****** ****** ****** ****** ****** ****** ****** ******
      ****** ****** ****** ****** ****** ****** ****** ****** ****** ******
  19  ****** ****** ****** ****** ****** ****** ****** ****** ****** ******
      ****** ****** ****** ****** ****** ****** ****** ****** ****** ******
      ****** ****** ****** ****** ****** ****** ****** ****** ****** ******
  20  ****** ****** ****** ****** ****** ****** ****** ****** ****** ******
      ****** ****** ****** ****** ****** ****** ****** ****** ****** ******
      ****** ****** ****** ****** ****** ****** ****** ****** ****** ******
  21  ****** ****** ****** ****** ****** ****** ****** ****** ****** ******
      ****** ****** ****** ****** ****** ****** ****** ****** ****** ******
      ****** ****** ****** ****** ****** ****** ****** ****** ****** ******
  22  ****** ****** ****** ****** ****** ****** ****** ****** ****** ******
      ****** ****** ****** ****** ****** ****** ****** ****** ****** ******
      ****** ****** ****** ****** ****** ****** ****** ****** ****** ******
  23  ****** ****** ****** ****** ****** ****** ****** ****** ****** ******
      ****** ****** ****** ****** ****** ****** ****** ****** ****** ******
      ****** ****** ****** ****** ****** ****** ****** ****** ****** ******
  24  ****** ****** ****** ****** ****** ****** ****** ****** ****** ******
      ****** ****** ****** ****** ****** ****** ****** ****** ****** ******
      ****** ****** ****** ****** ****** ****** ****** ****** ****** ******
  25  ****** ****** ****** ****** ****** ****** ****** ****** ****** ******
      ****** ****** ****** ****** ****** ****** ****** ****** ****** ******
      ****** ****** ****** ****** ****** ****** ****** ****** ****** ******

 HEAD WILL BE SAVED ON UNIT   51 AT END OF TIME STEP    1, STRESS PERIOD    2
1
  VOLUMETRIC BUDGET FOR ENTIRE MODEL AT END OF TIME STEP    1, STRESS PERIOD   2
  ------------------------------------------------------------------------------

     CUMULATIVE VOLUMES      L**3       RATES FOR THIS TIME STEP      L**3/T
     ------------------                 ------------------------

           IN:                                      IN:
           ---                                      ---
             STORAGE =    21106362.7454               STORAGE =       35570.9424
       CONSTANT HEAD =    20139031.2051         CONSTANT HEAD =      119364.7045
               WELLS =           0.0000                 WELLS =           0.0000
            RECHARGE =     6292800.0000              RECHARGE =       55200.0000
      STREAM LEAKAGE =     1362148.0093        STREAM LEAKAGE =        9036.6640

            TOTAL IN =    48900341.9598              TOTAL IN =      219172.3109

          OUT:                                     OUT:
          ----                                     ----
             STORAGE =           0.0000               STORAGE =           0.0000
       CONSTANT HEAD =           0.0000         CONSTANT HEAD =           0.0000
               WELLS =    13971695.1515                 WELLS =       76348.0609
            RECHARGE =           0.0000              RECHARGE =           0.0000
      STREAM LEAKAGE =    34928647.3917        STREAM LEAKAGE =      142824.2549

           TOTAL OUT =    48900342.5431             TOTAL OUT =      219172.3158

            IN - OUT =          -0.5833              IN - OUT =      -4.8857E-03

 PERCENT DISCREPANCY =          -0.00     PERCENT DISCREPANCY =          -0.00






         TIME SUMMARY AT END OF TIME STEP    1 IN STRESS PERIOD    2
                    SECONDS     MINUTES      HOURS       DAYS        YEARS
                    -----------------------------------------------------------
   TIME STEP LENGTH 7.86240E+06 1.31040E+05  2184.0      91.000     0.24914    
 STRESS PERIOD TIME 7.86240E+06 1.31040E+05  2184.0      91.000     0.24914    
         TOTAL TIME 1.58112E+07 2.63520E+05  4392.0      183.00     0.50103    
1
1
                            STRESS PERIOD NO.    3, LENGTH =   91.00000    
                            -----------------------------------------------

                              NUMBER OF TIME STEPS =     1

                               MULTIPLIER FOR DELT =     1.500

                            INITIAL TIME STEP SIZE =   91.00000    

 WELL NO.  LAYER   ROW   COL   STRESS RATE         
 --------------------------------------------------
      1      1     21     23     -0.1821E+05
      2      1     20     24     -0.1241E+05
      3      1     19     20     -0.2882E+05
      4      1     19     24     -0.1691E+05

      4 WELLS

                 RECHARGE =   0.00000    

 REUSING STREAM SEGMENT DATA FROM LAST STRESS PERIOD
 
 SOLVING FOR HEAD 


     7 CALLS TO PCG ROUTINE FOR TIME STEP   1 IN STRESS PERIOD    3
    27 TOTAL ITERATIONS

 OUTPUT CONTROL FOR STRESS PERIOD    3   TIME STEP    1
    SAVE BUDGET
    SAVE HEAD FOR ALL LAYERS
    PRINT HEAD FOR ALL LAYERS
 UBDSV2 SAVING "STREAMFLOW OUT  " ON UNIT  50 AT TIME STEP  1, STRESS PERIOD   3



 STREAM LISTING     PERIOD      3   STEP        1

 LAYER ROW COL. STREAM  RCH.  FLOW INTO     FLOW TO   FLOW OUT OF   OVRLND.     DIRECT     STREAM       STREAM     STREAM     STREAM   STREAMBED  STREAMBED
                SEG.NO.  NO.  STRM. RCH.    AQUIFER    STRM. RCH.    RUNOFF     PRECIP       ET          HEAD       DEPTH      WIDTH   CONDCTNC.   GRADIENT

   1   13    1     1     1    1.0000E+05 -2.9378E+03   1.0294E+05  0.000E+00  0.000E+00  0.000E+00  4.84073E+01  1.459E-01  2.000E+01  2.000E+04 -1.469E-01
   1   13    2     1     2    1.0294E+05 -4.9540E+03   1.0789E+05  0.000E+00  0.000E+00  0.000E+00  4.79334E+01  1.493E-01  2.000E+01  2.000E+04 -2.477E-01
   1   14    3     1     3    1.0789E+05 -3.9235E+03   1.1182E+05  0.000E+00  0.000E+00  0.000E+00  4.74599E+01  1.530E-01  2.000E+01  2.000E+04 -1.962E-01
   1   15    4     1     4    1.1182E+05 -3.7871E+03   1.1560E+05  0.000E+00  0.000E+00  0.000E+00  4.69858E+01  1.562E-01  2.000E+01  2.000E+04 -1.894E-01
   1   16    5     1     5    1.1560E+05 -4.0585E+03   1.1966E+05  0.000E+00  0.000E+00  0.000E+00  4.65117E+01  1.595E-01  2.000E+01  2.000E+04 -2.029E-01
   1   16    6     1     6    1.1966E+05 -3.2146E+03   1.2288E+05  0.000E+00  0.000E+00  0.000E+00  4.60374E+01  1.624E-01  2.000E+01  2.000E+04 -1.607E-01
   1   16    7     1     7    1.2288E+05 -3.2746E+03   1.2615E+05  0.000E+00  0.000E+00  0.000E+00  4.55627E+01  1.650E-01  2.000E+01  2.000E+04 -1.637E-01
   1   16    8     1     8    1.2615E+05 -3.2917E+03   1.2944E+05  0.000E+00  0.000E+00  0.000E+00  4.50880E+01  1.676E-01  2.000E+01  2.000E+04 -1.646E-01
   1   16    9     1     9    1.2944E+05 -3.2481E+03   1.3269E+05  0.000E+00  0.000E+00  0.000E+00  4.46133E+01  1.701E-01  2.000E+01  2.000E+04 -1.624E-01
   1   16   10     1    10    1.3269E+05 -3.1371E+03   1.3583E+05  0.000E+00  0.000E+00  0.000E+00  4.41385E+01  1.726E-01  2.000E+01  2.000E+04 -1.569E-01
   1   16   11     1    11    1.3583E+05 -2.9530E+03   1.3878E+05  0.000E+00  0.000E+00  0.000E+00  4.36636E+01  1.750E-01  2.000E+01  2.000E+04 -1.476E-01
   1   16   12     1    12    1.3878E+05 -3.3017E+03   1.4208E+05  0.000E+00  0.000E+00  0.000E+00  4.31887E+01  1.773E-01  2.000E+01  2.000E+04 -1.651E-01
   1   15   13     1    13    1.4208E+05 -2.9705E+03   1.4505E+05  0.000E+00  0.000E+00  0.000E+00  4.27138E+01  1.797E-01  2.000E+01  2.000E+04 -1.485E-01
   1   14   14     1    14    1.4505E+05 -3.0309E+03   1.4808E+05  0.000E+00  0.000E+00  0.000E+00  4.22388E+01  1.819E-01  2.000E+01  2.000E+04 -1.515E-01
   1   13   15     1    15    1.4808E+05 -3.4815E+03   1.5156E+05  0.000E+00  0.000E+00  0.000E+00  4.17639E+01  1.844E-01  2.000E+01  2.000E+04 -1.741E-01
   1   12   16     1    16    1.5156E+05 -5.1912E+03   1.5676E+05  0.000E+00  0.000E+00  0.000E+00  4.12898E+01  1.875E-01  2.000E+01  2.000E+04 -2.596E-01
   1   12   17     1    17    1.5676E+05 -3.0524E+03   1.5981E+05  0.000E+00  0.000E+00  0.000E+00  4.08155E+01  1.905E-01  2.000E+01  2.000E+04 -1.526E-01
   1   12   18     1    18    1.5981E+05 -2.8265E+03   1.6263E+05  0.000E+00  0.000E+00  0.000E+00  4.03404E+01  1.927E-01  2.000E+01  2.000E+04 -1.413E-01
   1   12   19     1    19    1.6263E+05 -3.9858E+03   1.6662E+05  0.000E+00  0.000E+00  0.000E+00  3.98655E+01  1.951E-01  2.000E+01  2.000E+04 -1.993E-01
   1   13   20     1    20    1.6662E+05 -1.3333E+03   1.6795E+05  0.000E+00  0.000E+00  0.000E+00  3.93902E+01  1.970E-01  2.000E+01  2.000E+04 -6.666E-02
   1   14   21     1    21    1.6795E+05  1.1484E+03   1.6681E+05  0.000E+00  0.000E+00  0.000E+00  3.89129E+01  1.970E-01  2.000E+01  2.000E+04  5.742E-02
   1   14   22     1    22    1.6681E+05  5.6456E+03   1.6116E+05  0.000E+00  0.000E+00  0.000E+00  3.84333E+01  1.946E-01  2.000E+01  2.000E+04  2.823E-01
   1    9   30     2     1    5.0000E+04 -2.6841E+03   5.2684E+04  0.000E+00  0.000E+00  0.000E+00  4.02427E+01  1.177E-01  2.000E+01  2.000E+04 -1.342E-01
   1    9   29     2     2    5.2684E+04 -3.0185E+03   5.5703E+04  0.000E+00  0.000E+00  0.000E+00  3.99966E+01  1.216E-01  2.000E+01  2.000E+04 -1.509E-01
   1    9   28     2     3    5.5703E+04 -3.4061E+03   5.9109E+04  0.000E+00  0.000E+00  0.000E+00  3.97509E+01  1.259E-01  2.000E+01  2.000E+04 -1.703E-01
   1    9   27     2     4    5.9109E+04 -6.1521E+03   6.5261E+04  0.000E+00  0.000E+00  0.000E+00  3.95071E+01  1.321E-01  2.000E+01  2.000E+04 -3.076E-01
   1   10   26     2     5    6.5261E+04 -3.7576E+03   6.9018E+04  0.000E+00  0.000E+00  0.000E+00  3.92633E+01  1.383E-01  2.000E+01  2.000E+04 -1.879E-01
   1   11   25     2     6    6.9018E+04 -2.7042E+03   7.1723E+04  0.000E+00  0.000E+00  0.000E+00  3.90172E+01  1.422E-01  2.000E+01  2.000E+04 -1.352E-01
   1   12   24     2     7    7.1723E+04 -1.8431E+03   7.3566E+04  0.000E+00  0.000E+00  0.000E+00  3.87700E+01  1.450E-01  2.000E+01  2.000E+04 -9.215E-02
   1   13   23     2     8    7.3566E+04 -9.8193E+02   7.4548E+04  0.000E+00  0.000E+00  0.000E+00  3.85217E+01  1.467E-01  2.000E+01  2.000E+04 -4.910E-02
   1   14   22     2     9    7.4548E+04  2.3966E+03   7.2151E+04  0.000E+00  0.000E+00  0.000E+00  3.82708E+01  1.458E-01  2.000E+01  2.000E+04  1.198E-01
   1   14   22     3     1    2.3331E+05 -7.8772E+03   2.4119E+05  0.000E+00  0.000E+00  0.000E+00  3.77571E+01  2.016E-01  2.000E+01  2.000E+04 -3.939E-01
   1   15   23     3     2    2.4119E+05  2.3479E+03   2.3884E+05  0.000E+00  0.000E+00  0.000E+00  3.68696E+01  2.030E-01  2.000E+01  2.000E+04  1.174E-01
   1   15   24     3     3    2.3884E+05  1.2232E+03   2.3762E+05  0.000E+00  0.000E+00  0.000E+00  3.59798E+01  2.021E-01  2.000E+01  2.000E+04  6.116E-02
   1   15   25     3     4    2.3762E+05  6.0067E+02   2.3702E+05  0.000E+00  0.000E+00  0.000E+00  3.50905E+01  2.016E-01  2.000E+01  2.000E+04  3.003E-02
   1   15   26     3     5    2.3702E+05 -6.5371E+02   2.3767E+05  0.000E+00  0.000E+00  0.000E+00  3.42016E+01  2.016E-01  2.000E+01  2.000E+04 -3.269E-02
   1   16   27     3     6    2.3767E+05  3.9854E+01   2.3763E+05  0.000E+00  0.000E+00  0.000E+00  3.33129E+01  2.018E-01  2.000E+01  2.000E+04  1.993E-03
   1   17   28     3     7    2.3763E+05 -6.9520E+02   2.3833E+05  0.000E+00  0.000E+00  0.000E+00  3.24242E+01  2.019E-01  2.000E+01  2.000E+04 -3.476E-02
   1   18   29     3     8    2.3833E+05 -2.5344E+03   2.4086E+05  0.000E+00  0.000E+00  0.000E+00  3.15361E+01  2.028E-01  2.000E+01  2.000E+04 -1.267E-01
   1   18   30     3     9    2.4086E+05 -3.4608E+03   2.4432E+05  0.000E+00  0.000E+00  0.000E+00  3.06487E+01  2.043E-01  2.000E+01  2.000E+04 -1.730E-01



1
              HEAD IN LAYER   1 AT END OF TIME STEP   1 IN STRESS PERIOD    3
  ---------------------------------------------------------------------------

          1      2      3      4      5      6      7      8      9     10
         11     12     13     14     15     16     17     18     19     20
         21     22     23     24     25     26     27     28     29     30
 .........................................................................
   1  ****** ****** ****** ****** ****** ****** ****** ****** ****** ******
      ****** ****** ****** ****** ****** ****** ****** ****** ****** ******
      ****** ****** ****** ****** ****** ****** ****** ****** ****** ******
   2  ****** ****** ****** ****** ****** ****** ****** ****** ****** ******
      ****** ****** ****** ****** ****** ****** ****** ****** ****** ******
      ****** ****** ****** ****** ****** ****** ****** ****** ****** ******
   3  ****** ****** ****** ****** ****** ****** ****** ****** ****** ******
      ****** ****** ****** ****** ****** ****** ****** ****** ****** ******
      ****** ****** ****** ****** ****** ****** ****** ****** ****** ******
   4  ****** ****** ****** ****** ****** ****** ****** ****** ****** ******
      ****** ****** ****** ****** ****** ****** ****** ****** ****** ******
      ****** ****** ****** ****** ****** ****** ****** ****** ****** ******
   5  ****** ****** ****** ****** ****** ****** ****** ****** ****** ******
      ****** ****** ****** ****** ****** ****** ****** ****** ****** ******
      ****** ****** ****** ****** ****** ****** ****** ****** ****** ******
   6  ****** ****** ****** ****** ****** ****** ****** ****** ****** ******
      ****** ****** ****** ****** ****** ****** ****** ****** ****** ******
      ****** ****** ****** ****** ****** ****** ****** ****** ****** ******
   7  ****** ****** ****** ****** ****** ****** ****** ****** ****** ******
      ****** ****** ****** ****** ****** ****** ****** ****** ****** ******
      ****** ****** ****** ****** ****** ****** ****** ****** ****** ******
   8  ****** ****** ****** ****** ****** ****** ****** ****** ****** ******
      ****** ****** ****** ****** ****** ****** ****** ****** ****** ******
      ****** ****** ****** ****** ****** ****** ****** ****** ****** ******
   9  ****** ****** ****** ****** ****** ****** ****** ****** ****** ******
      ****** ****** ****** ****** ****** ****** ****** ****** ****** ******
      ****** ****** ****** ****** ****** ****** ****** ****** ****** ******
  10  ****** ****** ****** ****** ****** ****** ****** ****** ****** ******
      ****** ****** ****** ****** ****** ****** ****** ****** ****** ******
      ****** ****** ****** ****** ****** ****** ****** ****** ****** ******
  11  ****** ****** ****** ****** ****** ****** ****** ****** ****** ******
      ****** ****** ****** ****** ****** ****** ****** ****** ****** ******
      ****** ****** ****** ****** ****** ****** ****** ****** ****** ******
  12  ****** ****** ****** ****** ****** ****** ****** ****** ****** ******
      ****** ****** ****** ****** ****** ****** ****** ****** ****** ******
      ****** ****** ****** ****** ****** ****** ****** ****** ****** ******
  13  ****** ****** ****** ****** ****** ****** ****** ****** ****** ******
      ****** ****** ****** ****** ****** ****** ****** ****** ****** ******
      ****** ****** ****** ****** ****** ****** ****** ****** ****** ******
  14  ****** ****** ****** ****** ****** ****** ****** ****** ****** ******
      ****** ****** ****** ****** ****** ****** ****** ****** ****** ******
      ****** ****** ****** ****** ****** ****** ****** ****** ****** ******
  15  ****** ****** ****** ****** ****** ****** ****** ****** ****** ******
      ****** ****** ****** ****** ****** ****** ****** ****** ****** ******
      ****** ****** ****** ****** ****** ****** ****** ****** ****** ******
  16  ****** ****** ****** ****** ****** ****** ****** ****** ****** ******
      ****** ****** ****** ****** ****** ****** ****** ****** ****** ******
      ****** ****** ****** ****** ****** ****** ****** ****** ****** ******
  17  ****** ****** ****** ****** ****** ****** ****** ****** ****** ******
      ****** ****** ****** ****** ****** ****** ****** ****** ****** ******
      ****** ****** ****** ****** ****** ****** ****** ****** ****** ******
  18  ****** ****** ****** ****** ****** ****** ****** ****** ****** ******
      ****** ****** ****** ****** ****** ****** ****** ****** ****** ******
      ****** ****** ****** ****** ****** ****** ****** ****** ****** ******
  19  ****** ****** ****** ****** ****** ****** ****** ****** ****** ******
      ****** ****** ****** ****** ****** ****** ****** ****** ****** ******
      ****** ****** ****** ****** ****** ****** ****** ****** ****** ******
  20  ****** ****** ****** ****** ****** ****** ****** ****** ****** ******
      ****** ****** ****** ****** ****** ****** ****** ****** ****** ******
      ****** ****** ****** ****** ****** ****** ****** ****** ****** ******
  21  ****** ****** ****** ****** ****** ****** ****** ****** ****** ******
      ****** ****** ****** ****** ****** ****** ****** ****** ****** ******
      ****** ****** ****** ****** ****** ****** ****** ****** ****** ******
  22  ****** ****** ****** ****** ****** ****** ****** ****** ****** ******
      ****** ****** ****** ****** ****** ****** ****** ****** ****** ******
      ****** ****** ****** ****** ****** ****** ****** ****** ****** ******
  23  ****** ****** ****** ****** ****** ****** ****** ****** ****** ******
      ****** ****** ****** ****** ****** ****** ****** ****** ****** ******
      ****** ****** ****** ****** ****** ****** ****** ****** ****** ******
  24  ****** ****** ****** ****** ****** ****** ****** ****** ****** ******
      ****** ****** ****** ****** ****** ****** ****** ****** ****** ******
      ****** ****** ****** ****** ****** ****** ****** ****** ****** ******
  25  ****** ****** ****** ****** ****** ****** ****** ****** ****** ******
      ****** ****** ****** ****** ****** ****** ****** ****** ****** ******
      ****** ****** ****** ****** ****** ****** ****** ****** ****** ******

 HEAD WILL BE SAVED ON UNIT   51 AT END OF TIME STEP    1, STRESS PERIOD    3
1
  VOLUMETRIC BUDGET FOR ENTIRE MODEL AT END OF TIME STEP    1, STRESS PERIOD   3
  ------------------------------------------------------------------------------

     CUMULATIVE VOLUMES      L**3       RATES FOR THIS TIME STEP      L**3/T
     ------------------                 ------------------------

           IN:                                      IN:
           ---                                      ---
             STORAGE =    23557084.8260               STORAGE =       26931.0119
       CONSTANT HEAD =    33219126.6094         CONSTANT HEAD =      143737.3121
               WELLS =           0.0000                 WELLS =           0.0000
            RECHARGE =     6292800.0000              RECHARGE =           0.0000
      STREAM LEAKAGE =     2581756.4431        STREAM LEAKAGE =       13402.2905

            TOTAL IN =    65650767.8785              TOTAL IN =      184070.6145

          OUT:                                     OUT:
          ----                                     ----
             STORAGE =           0.0000               STORAGE =           0.0000
       CONSTANT HEAD =           0.0000         CONSTANT HEAD =           0.0000
               WELLS =    20919368.6967                 WELLS =       76348.0609
            RECHARGE =           0.0000              RECHARGE =           0.0000
      STREAM LEAKAGE =    44731399.9984        STREAM LEAKAGE =      107722.5561

           TOTAL OUT =    65650768.6951             TOTAL OUT =      184070.6171

            IN - OUT =          -0.8166              IN - OUT =      -2.5632E-03

 PERCENT DISCREPANCY =          -0.00     PERCENT DISCREPANCY =          -0.00






         TIME SUMMARY AT END OF TIME STEP    1 IN STRESS PERIOD    3
                    SECONDS     MINUTES      HOURS       DAYS        YEARS
                    -----------------------------------------------------------
   TIME STEP LENGTH 7.86240E+06 1.31040E+05  2184.0      91.000     0.24914    
 STRESS PERIOD TIME 7.86240E+06 1.31040E+05  2184.0      91.000     0.24914    
         TOTAL TIME 2.36736E+07 3.94560E+05  6576.0      274.00     0.75017    
1
1
                            STRESS PERIOD NO.    4, LENGTH =   91.00000    
                            -----------------------------------------------

                              NUMBER OF TIME STEPS =     1

                               MULTIPLIER FOR DELT =     1.500

                            INITIAL TIME STEP SIZE =   91.00000    

 WELL NO.  LAYER   ROW   COL   STRESS RATE         
 --------------------------------------------------
      1      1     21     23     -0.1821E+05
      2      1     20     24     -0.1241E+05
      3      1     19     20     -0.2882E+05
      4      1     19     24     -0.1691E+05

      4 WELLS

                 RECHARGE =  1.000000E-03

 REUSING STREAM SEGMENT DATA FROM LAST STRESS PERIOD
 
 SOLVING FOR HEAD 


     6 CALLS TO PCG ROUTINE FOR TIME STEP   1 IN STRESS PERIOD    4
    21 TOTAL ITERATIONS

 OUTPUT CONTROL FOR STRESS PERIOD    4   TIME STEP    1
    SAVE BUDGET
    SAVE HEAD FOR ALL LAYERS
    PRINT HEAD FOR ALL LAYERS
 UBDSV2 SAVING "STREAMFLOW OUT  " ON UNIT  50 AT TIME STEP  1, STRESS PERIOD   4



 STREAM LISTING     PERIOD      4   STEP        1

 LAYER ROW COL. STREAM  RCH.  FLOW INTO     FLOW TO   FLOW OUT OF   OVRLND.     DIRECT     STREAM       STREAM     STREAM     STREAM   STREAMBED  STREAMBED
                SEG.NO.  NO.  STRM. RCH.    AQUIFER    STRM. RCH.    RUNOFF     PRECIP       ET          HEAD       DEPTH      WIDTH   CONDCTNC.   GRADIENT

   1   13    1     1     1    1.0000E+05 -2.9621E+03   1.0296E+05  0.000E+00  0.000E+00  0.000E+00  4.84073E+01  1.459E-01  2.000E+01  2.000E+04 -1.481E-01
   1   13    2     1     2    1.0296E+05 -4.9490E+03   1.0791E+05  0.000E+00  0.000E+00  0.000E+00  4.79334E+01  1.493E-01  2.000E+01  2.000E+04 -2.475E-01
   1   14    3     1     3    1.0791E+05 -3.9731E+03   1.1188E+05  0.000E+00  0.000E+00  0.000E+00  4.74599E+01  1.531E-01  2.000E+01  2.000E+04 -1.987E-01
   1   15    4     1     4    1.1188E+05 -3.8534E+03   1.1574E+05  0.000E+00  0.000E+00  0.000E+00  4.69859E+01  1.563E-01  2.000E+01  2.000E+04 -1.927E-01
   1   16    5     1     5    1.1574E+05 -4.1310E+03   1.1987E+05  0.000E+00  0.000E+00  0.000E+00  4.65119E+01  1.596E-01  2.000E+01  2.000E+04 -2.066E-01
   1   16    6     1     6    1.1987E+05 -3.2669E+03   1.2314E+05  0.000E+00  0.000E+00  0.000E+00  4.60376E+01  1.626E-01  2.000E+01  2.000E+04 -1.633E-01
   1   16    7     1     7    1.2314E+05 -3.3215E+03   1.2646E+05  0.000E+00  0.000E+00  0.000E+00  4.55629E+01  1.652E-01  2.000E+01  2.000E+04 -1.661E-01
   1   16    8     1     8    1.2646E+05 -3.3343E+03   1.2979E+05  0.000E+00  0.000E+00  0.000E+00  4.50883E+01  1.678E-01  2.000E+01  2.000E+04 -1.667E-01
   1   16    9     1     9    1.2979E+05 -3.2871E+03   1.3308E+05  0.000E+00  0.000E+00  0.000E+00  4.46136E+01  1.704E-01  2.000E+01  2.000E+04 -1.644E-01
   1   16   10     1    10    1.3308E+05 -3.1724E+03   1.3625E+05  0.000E+00  0.000E+00  0.000E+00  4.41388E+01  1.729E-01  2.000E+01  2.000E+04 -1.586E-01
   1   16   11     1    11    1.3625E+05 -2.9828E+03   1.3923E+05  0.000E+00  0.000E+00  0.000E+00  4.36639E+01  1.753E-01  2.000E+01  2.000E+04 -1.491E-01
   1   16   12     1    12    1.3923E+05 -3.3050E+03   1.4254E+05  0.000E+00  0.000E+00  0.000E+00  4.31890E+01  1.777E-01  2.000E+01  2.000E+04 -1.653E-01
   1   15   13     1    13    1.4254E+05 -2.9729E+03   1.4551E+05  0.000E+00  0.000E+00  0.000E+00  4.27141E+01  1.800E-01  2.000E+01  2.000E+04 -1.486E-01
   1   14   14     1    14    1.4551E+05 -3.0288E+03   1.4854E+05  0.000E+00  0.000E+00  0.000E+00  4.22391E+01  1.823E-01  2.000E+01  2.000E+04 -1.514E-01
   1   13   15     1    15    1.4854E+05 -3.4829E+03   1.5202E+05  0.000E+00  0.000E+00  0.000E+00  4.17642E+01  1.847E-01  2.000E+01  2.000E+04 -1.741E-01
   1   12   16     1    16    1.5202E+05 -5.1847E+03   1.5721E+05  0.000E+00  0.000E+00  0.000E+00  4.12902E+01  1.879E-01  2.000E+01  2.000E+04 -2.592E-01
   1   12   17     1    17    1.5721E+05 -3.0694E+03   1.6028E+05  0.000E+00  0.000E+00  0.000E+00  4.08159E+01  1.909E-01  2.000E+01  2.000E+04 -1.535E-01
   1   12   18     1    18    1.6028E+05 -2.8506E+03   1.6313E+05  0.000E+00  0.000E+00  0.000E+00  4.03407E+01  1.930E-01  2.000E+01  2.000E+04 -1.425E-01
   1   12   19     1    19    1.6313E+05 -4.0299E+03   1.6716E+05  0.000E+00  0.000E+00  0.000E+00  3.98659E+01  1.955E-01  2.000E+01  2.000E+04 -2.015E-01
   1   13   20     1    20    1.6716E+05 -1.3794E+03   1.6854E+05  0.000E+00  0.000E+00  0.000E+00  3.93905E+01  1.974E-01  2.000E+01  2.000E+04 -6.897E-02
   1   14   21     1    21    1.6854E+05  1.1551E+03   1.6738E+05  0.000E+00  0.000E+00  0.000E+00  3.89134E+01  1.974E-01  2.000E+01  2.000E+04  5.776E-02
   1   14   22     1    22    1.6738E+05  5.6225E+03   1.6176E+05  0.000E+00  0.000E+00  0.000E+00  3.84337E+01  1.950E-01  2.000E+01  2.000E+04  2.811E-01
   1    9   30     2     1    5.0000E+04 -2.7961E+03   5.2796E+04  0.000E+00  0.000E+00  0.000E+00  4.02428E+01  1.178E-01  2.000E+01  2.000E+04 -1.398E-01
   1    9   29     2     2    5.2796E+04 -3.1289E+03   5.5925E+04  0.000E+00  0.000E+00  0.000E+00  3.99968E+01  1.218E-01  2.000E+01  2.000E+04 -1.564E-01
   1    9   28     2     3    5.5925E+04 -3.5124E+03   5.9437E+04  0.000E+00  0.000E+00  0.000E+00  3.97512E+01  1.262E-01  2.000E+01  2.000E+04 -1.756E-01
   1    9   27     2     4    5.9437E+04 -6.2625E+03   6.5700E+04  0.000E+00  0.000E+00  0.000E+00  3.95076E+01  1.326E-01  2.000E+01  2.000E+04 -3.131E-01
   1   10   26     2     5    6.5700E+04 -3.8860E+03   6.9586E+04  0.000E+00  0.000E+00  0.000E+00  3.92639E+01  1.389E-01  2.000E+01  2.000E+04 -1.943E-01
   1   11   25     2     6    6.9586E+04 -2.8335E+03   7.2419E+04  0.000E+00  0.000E+00  0.000E+00  3.90180E+01  1.430E-01  2.000E+01  2.000E+04 -1.417E-01
   1   12   24     2     7    7.2419E+04 -1.9693E+03   7.4389E+04  0.000E+00  0.000E+00  0.000E+00  3.87709E+01  1.459E-01  2.000E+01  2.000E+04 -9.846E-02
   1   13   23     2     8    7.4389E+04 -1.0945E+03   7.5483E+04  0.000E+00  0.000E+00  0.000E+00  3.85227E+01  1.477E-01  2.000E+01  2.000E+04 -5.472E-02
   1   14   22     2     9    7.5483E+04  2.3876E+03   7.3096E+04  0.000E+00  0.000E+00  0.000E+00  3.82719E+01  1.469E-01  2.000E+01  2.000E+04  1.194E-01
   1   14   22     3     1    2.3486E+05 -7.8928E+03   2.4275E+05  0.000E+00  0.000E+00  0.000E+00  3.77579E+01  2.024E-01  2.000E+01  2.000E+04 -3.946E-01
   1   15   23     3     2    2.4275E+05  2.3705E+03   2.4038E+05  0.000E+00  0.000E+00  0.000E+00  3.68704E+01  2.038E-01  2.000E+01  2.000E+04  1.185E-01
   1   15   24     3     3    2.4038E+05  1.1930E+03   2.3918E+05  0.000E+00  0.000E+00  0.000E+00  3.59806E+01  2.029E-01  2.000E+01  2.000E+04  5.965E-02
   1   15   25     3     4    2.3918E+05  5.4587E+02   2.3864E+05  0.000E+00  0.000E+00  0.000E+00  3.50913E+01  2.024E-01  2.000E+01  2.000E+04  2.729E-02
   1   15   26     3     5    2.3864E+05 -7.5586E+02   2.3939E+05  0.000E+00  0.000E+00  0.000E+00  3.42025E+01  2.025E-01  2.000E+01  2.000E+04 -3.779E-02
   1   16   27     3     6    2.3939E+05 -4.2971E+01   2.3944E+05  0.000E+00  0.000E+00  0.000E+00  3.33138E+01  2.027E-01  2.000E+01  2.000E+04 -2.149E-03
   1   17   28     3     7    2.3944E+05 -7.7164E+02   2.4021E+05  0.000E+00  0.000E+00  0.000E+00  3.24251E+01  2.029E-01  2.000E+01  2.000E+04 -3.858E-02
   1   18   29     3     8    2.4021E+05 -2.5863E+03   2.4280E+05  0.000E+00  0.000E+00  0.000E+00  3.15371E+01  2.037E-01  2.000E+01  2.000E+04 -1.293E-01
   1   18   30     3     9    2.4280E+05 -3.5344E+03   2.4633E+05  0.000E+00  0.000E+00  0.000E+00  3.06497E+01  2.053E-01  2.000E+01  2.000E+04 -1.767E-01



1
              HEAD IN LAYER   1 AT END OF TIME STEP   1 IN STRESS PERIOD    4
  ---------------------------------------------------------------------------

          1      2      3      4      5      6      7      8      9     10
         11     12     13     14     15     16     17     18     19     20
         21     22     23     24     25     26     27     28     29     30
 .........................................................................
   1  ****** ****** ****** ****** ****** ****** ****** ****** ****** ******
      ****** ****** ****** ****** ****** ****** ****** ****** ****** ******
      ****** ****** ****** ****** ****** ****** ****** ****** ****** ******
   2  ****** ****** ****** ****** ****** ****** ****** ****** ****** ******
      ****** ****** ****** ****** ****** ****** ****** ****** ****** ******
      ****** ****** ****** ****** ****** ****** ****** ****** ****** ******
   3  ****** ****** ****** ****** ****** ****** ****** ****** ****** ******
      ****** ****** ****** ****** ****** ****** ****** ****** ****** ******
      ****** ****** ****** ****** ****** ****** ****** ****** ****** ******
   4  ****** ****** ****** ****** ****** ****** ****** ****** ****** ******
      ****** ****** ****** ****** ****** ****** ****** ****** ****** ******
      ****** ****** ****** ****** ****** ****** ****** ****** ****** ******
   5  ****** ****** ****** ****** ****** ****** ****** ****** ****** ******
      ****** ****** ****** ****** ****** ****** ****** ****** ****** ******
      ****** ****** ****** ****** ****** ****** ****** ****** ****** ******
   6  ****** ****** ****** ****** ****** ****** ****** ****** ****** ******
      ****** ****** ****** ****** ****** ****** ****** ****** ****** ******
      ****** ****** ****** ****** ****** ****** ****** ****** ****** ******
   7  ****** ****** ****** ****** ****** ****** ****** ****** ****** ******
      ****** ****** ****** ****** ****** ****** ****** ****** ****** ******
      ****** ****** ****** ****** ****** ****** ****** ****** ****** ******
   8  ****** ****** ****** ****** ****** ****** ****** ****** ****** ******
      ****** ****** ****** ****** ****** ****** ****** ****** ****** ******
      ****** ****** ****** ****** ****** ****** ****** ****** ****** ******
   9  ****** ****** ****** ****** ****** ****** ****** ****** ****** ******
      ****** ****** ****** ****** ****** ****** ****** ****** ****** ******
      ****** ****** ****** ****** ****** ****** ****** ****** ****** ******
  10  ****** ****** ****** ****** ****** ****** ****** ****** ****** ******
      ****** ****** ****** ****** ****** ****** ****** ****** ****** ******
      ****** ****** ****** ****** ****** ****** ****** ****** ****** ******
  11  ****** ****** ****** ****** ****** ****** ****** ****** ****** ******
      ****** ****** ****** ****** ****** ****** ****** ****** ****** ******
      ****** ****** ****** ****** ****** ****** ****** ****** ****** ******
  12  ****** ****** ****** ****** ****** ****** ****** ****** ****** ******
      ****** ****** ****** ****** ****** ****** ****** ****** ****** ******
      ****** ****** ****** ****** ****** ****** ****** ****** ****** ******
  13  ****** ****** ****** ****** ****** ****** ****** ****** ****** ******
      ****** ****** ****** ****** ****** ****** ****** ****** ****** ******
      ****** ****** ****** ****** ****** ****** ****** ****** ****** ******
  14  ****** ****** ****** ****** ****** ****** ****** ****** ****** ******
      ****** ****** ****** ****** ****** ****** ****** ****** ****** ******
      ****** ****** ****** ****** ****** ****** ****** ****** ****** ******
  15  ****** ****** ****** ****** ****** ****** ****** ****** ****** ******
      ****** ****** ****** ****** ****** ****** ****** ****** ****** ******
      ****** ****** ****** ****** ****** ****** ****** ****** ****** ******
  16  ****** ****** ****** ****** ****** ****** ****** ****** ****** ******
      ****** ****** ****** ****** ****** ****** ****** ****** ****** ******
      ****** ****** ****** ****** ****** ****** ****** ****** ****** ******
  17  ****** ****** ****** ****** ****** ****** ****** ****** ****** ******
      ****** ****** ****** ****** ****** ****** ****** ****** ****** ******
      ****** ****** ****** ****** ****** ****** ****** ****** ****** ******
  18  ****** ****** ****** ****** ****** ****** ****** ****** ****** ******
      ****** ****** ****** ****** ****** ****** ****** ****** ****** ******
      ****** ****** ****** ****** ****** ****** ****** ****** ****** ******
  19  ****** ****** ****** ****** ****** ****** ****** ****** ****** ******
      ****** ****** ****** ****** ****** ****** ****** ****** ****** ******
      ****** ****** ****** ****** ****** ****** ****** ****** ****** ******
  20  ****** ****** ****** ****** ****** ****** ****** ****** ****** ******
      ****** ****** ****** ****** ****** ****** ****** ****** ****** ******
      ****** ****** ****** ****** ****** ****** ****** ****** ****** ******
  21  ****** ****** ****** ****** ****** ****** ****** ****** ****** ******
      ****** ****** ****** ****** ****** ****** ****** ****** ****** ******
      ****** ****** ****** ****** ****** ****** ****** ****** ****** ******
  22  ****** ****** ****** ****** ****** ****** ****** ****** ****** ******
      ****** ****** ****** ****** ****** ****** ****** ****** ****** ******
      ****** ****** ****** ****** ****** ****** ****** ****** ****** ******
  23  ****** ****** ****** ****** ****** ****** ****** ****** ****** ******
      ****** ****** ****** ****** ****** ****** ****** ****** ****** ******
      ****** ****** ****** ****** ****** ****** ****** ****** ****** ******
  24  ****** ****** ****** ****** ****** ****** ****** ****** ****** ******
      ****** ****** ****** ****** ****** ****** ****** ****** ****** ******
      ****** ****** ****** ****** ****** ****** ****** ****** ****** ******
  25  ****** ****** ****** ****** ****** ****** ****** ****** ****** ******
      ****** ****** ****** ****** ****** ****** ****** ****** ****** ******
      ****** ****** ****** ****** ****** ****** ****** ****** ****** ******

 HEAD WILL BE SAVED ON UNIT   51 AT END OF TIME STEP    1, STRESS PERIOD    4
1
  VOLUMETRIC BUDGET FOR ENTIRE MODEL AT END OF TIME STEP    1, STRESS PERIOD   4
  ------------------------------------------------------------------------------

     CUMULATIVE VOLUMES      L**3       RATES FOR THIS TIME STEP      L**3/T
     ------------------                 ------------------------

           IN:                                      IN:
           ---                                      ---
             STORAGE =    23717717.5601               STORAGE =        1765.1949
       CONSTANT HEAD =    46283261.9431         CONSTANT HEAD =      143561.9267
               WELLS =           0.0000                 WELLS =           0.0000
            RECHARGE =     8804400.0000              RECHARGE =       27600.0000
      STREAM LEAKAGE =     3789748.6221        STREAM LEAKAGE =       13274.6393

            TOTAL IN =    82595128.1253              TOTAL IN =      186201.7610

          OUT:                                     OUT:
          ----                                     ----
             STORAGE =       22690.8188               STORAGE =         249.3497
       CONSTANT HEAD =           0.0000         CONSTANT HEAD =           0.0000
               WELLS =    27867042.2420                 WELLS =       76348.0609
            RECHARGE =           0.0000              RECHARGE =           0.0000
      STREAM LEAKAGE =    54705395.7117        STREAM LEAKAGE =      109604.3485

           TOTAL OUT =    82595128.7725             TOTAL OUT =      186201.7591

            IN - OUT =          -0.6472              IN - OUT =       1.8617E-03

 PERCENT DISCREPANCY =          -0.00     PERCENT DISCREPANCY =           0.00






         TIME SUMMARY AT END OF TIME STEP    1 IN STRESS PERIOD    4
                    SECONDS     MINUTES      HOURS       DAYS        YEARS
                    -----------------------------------------------------------
   TIME STEP LENGTH 7.86240E+06 1.31040E+05  2184.0      91.000     0.24914    
 STRESS PERIOD TIME 7.86240E+06 1.31040E+05  2184.0      91.000     0.24914    
         TOTAL TIME 3.15360E+07 5.25600E+05  8760.0      365.00     0.99932    
1
1
                            STRESS PERIOD NO.    5, LENGTH =   92.00000    
                            -----------------------------------------------

                              NUMBER OF TIME STEPS =     1

                               MULTIPLIER FOR DELT =     1.500

                            INITIAL TIME STEP SIZE =   92.00000    

 WELL NO.  LAYER   ROW   COL   STRESS RATE         
 --------------------------------------------------
      1      1     21     23     -0.1821E+05
      2      1     20     24     -0.1241E+05
      3      1     19     20     -0.2882E+05
      4      1     19     24     -0.1691E+05

      4 WELLS

                 RECHARGE =  5.000000E-04

 REUSING STREAM SEGMENT DATA FROM LAST STRESS PERIOD
 
 SOLVING FOR HEAD 


     6 CALLS TO PCG ROUTINE FOR TIME STEP   1 IN STRESS PERIOD    5
    23 TOTAL ITERATIONS

 OUTPUT CONTROL FOR STRESS PERIOD    5   TIME STEP    1
    SAVE BUDGET
    SAVE HEAD FOR ALL LAYERS
    PRINT HEAD FOR ALL LAYERS
 UBDSV2 SAVING "STREAMFLOW OUT  " ON UNIT  50 AT TIME STEP  1, STRESS PERIOD   5



 STREAM LISTING     PERIOD      5   STEP        1

 LAYER ROW COL. STREAM  RCH.  FLOW INTO     FLOW TO   FLOW OUT OF   OVRLND.     DIRECT     STREAM       STREAM     STREAM     STREAM   STREAMBED  STREAMBED
                SEG.NO.  NO.  STRM. RCH.    AQUIFER    STRM. RCH.    RUNOFF     PRECIP       ET          HEAD       DEPTH      WIDTH   CONDCTNC.   GRADIENT

   1   13    1     1     1    1.0000E+05 -2.7889E+03   1.0279E+05  0.000E+00  0.000E+00  0.000E+00  4.84072E+01  1.459E-01  2.000E+01  2.000E+04 -1.394E-01
   1   13    2     1     2    1.0279E+05 -4.7088E+03   1.0750E+05  0.000E+00  0.000E+00  0.000E+00  4.79332E+01  1.491E-01  2.000E+01  2.000E+04 -2.354E-01
   1   14    3     1     3    1.0750E+05 -3.7492E+03   1.1125E+05  0.000E+00  0.000E+00  0.000E+00  4.74595E+01  1.526E-01  2.000E+01  2.000E+04 -1.875E-01
   1   15    4     1     4    1.1125E+05 -3.6403E+03   1.1489E+05  0.000E+00  0.000E+00  0.000E+00  4.69853E+01  1.557E-01  2.000E+01  2.000E+04 -1.820E-01
   1   16    5     1     5    1.1489E+05 -3.9443E+03   1.1883E+05  0.000E+00  0.000E+00  0.000E+00  4.65111E+01  1.588E-01  2.000E+01  2.000E+04 -1.972E-01
   1   16    6     1     6    1.1883E+05 -3.1132E+03   1.2194E+05  0.000E+00  0.000E+00  0.000E+00  4.60367E+01  1.617E-01  2.000E+01  2.000E+04 -1.557E-01
   1   16    7     1     7    1.2194E+05 -3.1629E+03   1.2511E+05  0.000E+00  0.000E+00  0.000E+00  4.55619E+01  1.642E-01  2.000E+01  2.000E+04 -1.581E-01
   1   16    8     1     8    1.2511E+05 -3.1726E+03   1.2828E+05  0.000E+00  0.000E+00  0.000E+00  4.50872E+01  1.667E-01  2.000E+01  2.000E+04 -1.586E-01
   1   16    9     1     9    1.2828E+05 -3.1243E+03   1.3140E+05  0.000E+00  0.000E+00  0.000E+00  4.46124E+01  1.692E-01  2.000E+01  2.000E+04 -1.562E-01
   1   16   10     1    10    1.3140E+05 -3.0102E+03   1.3441E+05  0.000E+00  0.000E+00  0.000E+00  4.41375E+01  1.716E-01  2.000E+01  2.000E+04 -1.505E-01
   1   16   11     1    11    1.3441E+05 -2.8217E+03   1.3724E+05  0.000E+00  0.000E+00  0.000E+00  4.36625E+01  1.738E-01  2.000E+01  2.000E+04 -1.411E-01
   1   16   12     1    12    1.3724E+05 -3.0928E+03   1.4033E+05  0.000E+00  0.000E+00  0.000E+00  4.31874E+01  1.761E-01  2.000E+01  2.000E+04 -1.546E-01
   1   15   13     1    13    1.4033E+05 -2.7369E+03   1.4307E+05  0.000E+00  0.000E+00  0.000E+00  4.27124E+01  1.783E-01  2.000E+01  2.000E+04 -1.368E-01
   1   14   14     1    14    1.4307E+05 -2.7861E+03   1.4585E+05  0.000E+00  0.000E+00  0.000E+00  4.22372E+01  1.804E-01  2.000E+01  2.000E+04 -1.393E-01
   1   13   15     1    15    1.4585E+05 -3.2440E+03   1.4910E+05  0.000E+00  0.000E+00  0.000E+00  4.17622E+01  1.826E-01  2.000E+01  2.000E+04 -1.622E-01
   1   12   16     1    16    1.4910E+05 -4.9547E+03   1.5405E+05  0.000E+00  0.000E+00  0.000E+00  4.12879E+01  1.857E-01  2.000E+01  2.000E+04 -2.477E-01
   1   12   17     1    17    1.5405E+05 -2.9050E+03   1.5696E+05  0.000E+00  0.000E+00  0.000E+00  4.08135E+01  1.885E-01  2.000E+01  2.000E+04 -1.453E-01
   1   12   18     1    18    1.5696E+05 -2.6921E+03   1.5965E+05  0.000E+00  0.000E+00  0.000E+00  4.03383E+01  1.906E-01  2.000E+01  2.000E+04 -1.346E-01
   1   12   19     1    19    1.5965E+05 -3.8429E+03   1.6349E+05  0.000E+00  0.000E+00  0.000E+00  3.98634E+01  1.929E-01  2.000E+01  2.000E+04 -1.921E-01
   1   13   20     1    20    1.6349E+05 -1.1963E+03   1.6469E+05  0.000E+00  0.000E+00  0.000E+00  3.93879E+01  1.947E-01  2.000E+01  2.000E+04 -5.982E-02
   1   14   21     1    21    1.6469E+05  1.3343E+03   1.6335E+05  0.000E+00  0.000E+00  0.000E+00  3.89106E+01  1.947E-01  2.000E+01  2.000E+04  6.671E-02
   1   14   22     1    22    1.6335E+05  5.6505E+03   1.5770E+05  0.000E+00  0.000E+00  0.000E+00  3.84308E+01  1.922E-01  2.000E+01  2.000E+04  2.825E-01
   1    9   30     2     1    5.0000E+04 -2.6806E+03   5.2681E+04  0.000E+00  0.000E+00  0.000E+00  4.02427E+01  1.177E-01  2.000E+01  2.000E+04 -1.340E-01
   1    9   29     2     2    5.2681E+04 -3.0137E+03   5.5694E+04  0.000E+00  0.000E+00  0.000E+00  3.99966E+01  1.216E-01  2.000E+01  2.000E+04 -1.507E-01
   1    9   28     2     3    5.5694E+04 -3.3965E+03   5.9091E+04  0.000E+00  0.000E+00  0.000E+00  3.97509E+01  1.259E-01  2.000E+01  2.000E+04 -1.698E-01
   1    9   27     2     4    5.9091E+04 -6.1013E+03   6.5192E+04  0.000E+00  0.000E+00  0.000E+00  3.95070E+01  1.320E-01  2.000E+01  2.000E+04 -3.051E-01
   1   10   26     2     5    6.5192E+04 -3.7200E+03   6.8912E+04  0.000E+00  0.000E+00  0.000E+00  3.92632E+01  1.382E-01  2.000E+01  2.000E+04 -1.860E-01
   1   11   25     2     6    6.8912E+04 -2.6737E+03   7.1586E+04  0.000E+00  0.000E+00  0.000E+00  3.90171E+01  1.421E-01  2.000E+01  2.000E+04 -1.337E-01
   1   12   24     2     7    7.1586E+04 -1.8271E+03   7.3413E+04  0.000E+00  0.000E+00  0.000E+00  3.87698E+01  1.448E-01  2.000E+01  2.000E+04 -9.136E-02
   1   13   23     2     8    7.3413E+04 -9.8290E+02   7.4396E+04  0.000E+00  0.000E+00  0.000E+00  3.85215E+01  1.465E-01  2.000E+01  2.000E+04 -4.915E-02
   1   14   22     2     9    7.4396E+04  2.4468E+03   7.1949E+04  0.000E+00  0.000E+00  0.000E+00  3.82706E+01  1.456E-01  2.000E+01  2.000E+04  1.223E-01
   1   14   22     3     1    2.2965E+05 -7.8603E+03   2.3751E+05  0.000E+00  0.000E+00  0.000E+00  3.77552E+01  1.997E-01  2.000E+01  2.000E+04 -3.930E-01
   1   15   23     3     2    2.3751E+05  2.5410E+03   2.3497E+05  0.000E+00  0.000E+00  0.000E+00  3.68677E+01  2.011E-01  2.000E+01  2.000E+04  1.271E-01
   1   15   24     3     3    2.3497E+05  1.3071E+03   2.3366E+05  0.000E+00  0.000E+00  0.000E+00  3.59778E+01  2.001E-01  2.000E+01  2.000E+04  6.535E-02
   1   15   25     3     4    2.3366E+05  6.5398E+02   2.3301E+05  0.000E+00  0.000E+00  0.000E+00  3.50885E+01  1.996E-01  2.000E+01  2.000E+04  3.270E-02
   1   15   26     3     5    2.3301E+05 -6.2854E+02   2.3364E+05  0.000E+00  0.000E+00  0.000E+00  3.41996E+01  1.996E-01  2.000E+01  2.000E+04 -3.143E-02
   1   16   27     3     6    2.3364E+05  1.2569E+02   2.3351E+05  0.000E+00  0.000E+00  0.000E+00  3.33108E+01  1.997E-01  2.000E+01  2.000E+04  6.284E-03
   1   17   28     3     7    2.3351E+05 -5.9783E+02   2.3411E+05  0.000E+00  0.000E+00  0.000E+00  3.24220E+01  1.998E-01  2.000E+01  2.000E+04 -2.989E-02
   1   18   29     3     8    2.3411E+05 -2.4187E+03   2.3653E+05  0.000E+00  0.000E+00  0.000E+00  3.15339E+01  2.006E-01  2.000E+01  2.000E+04 -1.209E-01
   1   18   30     3     9    2.3653E+05 -3.4152E+03   2.3994E+05  0.000E+00  0.000E+00  0.000E+00  3.06465E+01  2.021E-01  2.000E+01  2.000E+04 -1.708E-01



1
              HEAD IN LAYER   1 AT END OF TIME STEP   1 IN STRESS PERIOD    5
  ---------------------------------------------------------------------------

          1      2      3      4      5      6      7      8      9     10
         11     12     13     14     15     16     17     18     19     20
         21     22     23     24     25     26     27     28     29     30
 .........................................................................
   1  ****** ****** ****** ****** ****** ****** ****** ****** ****** ******
      ****** ****** ****** ****** ****** ****** ****** ****** ****** ******
      ****** ****** ****** ****** ****** ****** ****** ****** ****** ******
   2  ****** ****** ****** ****** ****** ****** ****** ****** ****** ******
      ****** ****** ****** ****** ****** ****** ****** ****** ****** ******
      ****** ****** ****** ****** ****** ****** ****** ****** ****** ******
   3  ****** ****** ****** ****** ****** ****** ****** ****** ****** ******
      ****** ****** ****** ****** ****** ****** ****** ****** ****** ******
      ****** ****** ****** ****** ****** ****** ****** ****** ****** ******
   4  ****** ****** ****** ****** ****** ****** ****** ****** ****** ******
      ****** ****** ****** ****** ****** ****** ****** ****** ****** ******
      ****** ****** ****** ****** ****** ****** ****** ****** ****** ******
   5  ****** ****** ****** ****** ****** ****** ****** ****** ****** ******
      ****** ****** ****** ****** ****** ****** ****** ****** ****** ******
      ****** ****** ****** ****** ****** ****** ****** ****** ****** ******
   6  ****** ****** ****** ****** ****** ****** ****** ****** ****** ******
      ****** ****** ****** ****** ****** ****** ****** ****** ****** ******
      ****** ****** ****** ****** ****** ****** ****** ****** ****** ******
   7  ****** ****** ****** ****** ****** ****** ****** ****** ****** ******
      ****** ****** ****** ****** ****** ****** ****** ****** ****** ******
      ****** ****** ****** ****** ****** ****** ****** ****** ****** ******
   8  ****** ****** ****** ****** ****** ****** ****** ****** ****** ******
      ****** ****** ****** ****** ****** ****** ****** ****** ****** ******
      ****** ****** ****** ****** ****** ****** ****** ****** ****** ******
   9  ****** ****** ****** ****** ****** ****** ****** ****** ****** ******
      ****** ****** ****** ****** ****** ****** ****** ****** ****** ******
      ****** ****** ****** ****** ****** ****** ****** ****** ****** ******
  10  ****** ****** ****** ****** ****** ****** ****** ****** ****** ******
      ****** ****** ****** ****** ****** ****** ****** ****** ****** ******
      ****** ****** ****** ****** ****** ****** ****** ****** ****** ******
  11  ****** ****** ****** ****** ****** ****** ****** ****** ****** ******
      ****** ****** ****** ****** ****** ****** ****** ****** ****** ******
      ****** ****** ****** ****** ****** ****** ****** ****** ****** ******
  12  ****** ****** ****** ****** ****** ****** ****** ****** ****** ******
      ****** ****** ****** ****** ****** ****** ****** ****** ****** ******
      ****** ****** ****** ****** ****** ****** ****** ****** ****** ******
  13  ****** ****** ****** ****** ****** ****** ****** ****** ****** ******
      ****** ****** ****** ****** ****** ****** ****** ****** ****** ******
      ****** ****** ****** ****** ****** ****** ****** ****** ****** ******
  14  ****** ****** ****** ****** ****** ****** ****** ****** ****** ******
      ****** ****** ****** ****** ****** ****** ****** ****** ****** ******
      ****** ****** ****** ****** ****** ****** ****** ****** ****** ******
  15  ****** ****** ****** ****** ****** ****** ****** ****** ****** ******
      ****** ****** ****** ****** ****** ****** ****** ****** ****** ******
      ****** ****** ****** ****** ****** ****** ****** ****** ****** ******
  16  ****** ****** ****** ****** ****** ****** ****** ****** ****** ******
      ****** ****** ****** ****** ****** ****** ****** ****** ****** ******
      ****** ****** ****** ****** ****** ****** ****** ****** ****** ******
  17  ****** ****** ****** ****** ****** ****** ****** ****** ****** ******
      ****** ****** ****** ****** ****** ****** ****** ****** ****** ******
      ****** ****** ****** ****** ****** ****** ****** ****** ****** ******
  18  ****** ****** ****** ****** ****** ****** ****** ****** ****** ******
      ****** ****** ****** ****** ****** ****** ****** ****** ****** ******
      ****** ****** ****** ****** ****** ****** ****** ****** ****** ******
  19  ****** ****** ****** ****** ****** ****** ****** ****** ****** ******
      ****** ****** ****** ****** ****** ****** ****** ****** ****** ******
      ****** ****** ****** ****** ****** ****** ****** ****** ****** ******
  20  ****** ****** ****** ****** ****** ****** ****** ****** ****** ******
      ****** ****** ****** ****** ****** ****** ****** ****** ****** ******
      ****** ****** ****** ****** ****** ****** ****** ****** ****** ******
  21  ****** ****** ****** ****** ****** ****** ****** ****** ****** ******
      ****** ****** ****** ****** ****** ****** ****** ****** ****** ******
      ****** ****** ****** ****** ****** ****** ****** ****** ****** ******
  22  ****** ****** ****** ****** ****** ****** ****** ****** ****** ******
      ****** ****** ****** ****** ****** ****** ****** ****** ****** ******
      ****** ****** ****** ****** ****** ****** ****** ****** ****** ******
  23  ****** ****** ****** ****** ****** ****** ****** ****** ****** ******
      ****** ****** ****** ****** ****** ****** ****** ****** ****** ******
      ****** ****** ****** ****** ****** ****** ****** ****** ****** ******
  24  ****** ****** ****** ****** ****** ****** ****** ****** ****** ******
      ****** ****** ****** ****** ****** ****** ****** ****** ****** ******
      ****** ****** ****** ****** ****** ****** ****** ****** ****** ******
  25  ****** ****** ****** ****** ****** ****** ****** ****** ****** ******
      ****** ****** ****** ****** ****** ****** ****** ****** ****** ******
      ****** ****** ****** ****** ****** ****** ****** ****** ****** ******

 HEAD WILL BE SAVED ON UNIT   51 AT END OF TIME STEP    1, STRESS PERIOD    5
1
  VOLUMETRIC BUDGET FOR ENTIRE MODEL AT END OF TIME STEP    1, STRESS PERIOD   5
  ------------------------------------------------------------------------------

     CUMULATIVE VOLUMES      L**3       RATES FOR THIS TIME STEP      L**3/T
     ------------------                 ------------------------

           IN:                                      IN:
           ---                                      ---
             STORAGE =    24134357.4251               STORAGE =        4528.6942
       CONSTANT HEAD =    59895918.0396         CONSTANT HEAD =      147963.6532
               WELLS =           0.0000                 WELLS =           0.0000
            RECHARGE =    10074000.0000              RECHARGE =       13800.0000
      STREAM LEAKAGE =     5083218.3735        STREAM LEAKAGE =       14059.4538

            TOTAL IN =    99187493.8382              TOTAL IN =      180351.8012

          OUT:                                     OUT:
          ----                                     ----
             STORAGE =       22690.8188               STORAGE =           0.0000
       CONSTANT HEAD =           0.0000         CONSTANT HEAD =           0.0000
               WELLS =    34891063.8482                 WELLS =       76348.0609
            RECHARGE =           0.0000              RECHARGE =           0.0000
      STREAM LEAKAGE =    64273739.8883        STREAM LEAKAGE =      104003.7410

           TOTAL OUT =    99187494.5553             TOTAL OUT =      180351.8020

            IN - OUT =          -0.7171              IN - OUT =      -7.6006E-04

 PERCENT DISCREPANCY =          -0.00     PERCENT DISCREPANCY =          -0.00






         TIME SUMMARY AT END OF TIME STEP    1 IN STRESS PERIOD    5
                    SECONDS     MINUTES      HOURS       DAYS        YEARS
                    -----------------------------------------------------------
   TIME STEP LENGTH 7.94880E+06 1.32480E+05  2208.0      92.000     0.25188    
 STRESS PERIOD TIME 7.94880E+06 1.32480E+05  2208.0      92.000     0.25188    
         TOTAL TIME 3.94848E+07 6.58080E+05  10968.      457.00      1.2512    
1
1
                            STRESS PERIOD NO.    6, LENGTH =   91.00000    
                            -----------------------------------------------

                              NUMBER OF TIME STEPS =     1

                               MULTIPLIER FOR DELT =     1.500

                            INITIAL TIME STEP SIZE =   91.00000    

 WELL NO.  LAYER   ROW   COL   STRESS RATE         
 --------------------------------------------------
      1      1     21     23     -0.1821E+05
      2      1     20     24     -0.1241E+05
      3      1     19     20     -0.2882E+05
      4      1     19     24     -0.1691E+05

      4 WELLS

                 RECHARGE =  2.000000E-03

 REUSING STREAM SEGMENT DATA FROM LAST STRESS PERIOD
 
 SOLVING FOR HEAD 


     7 CALLS TO PCG ROUTINE FOR TIME STEP   1 IN STRESS PERIOD    6
    26 TOTAL ITERATIONS

 OUTPUT CONTROL FOR STRESS PERIOD    6   TIME STEP    1
    SAVE BUDGET
    SAVE HEAD FOR ALL LAYERS
    PRINT HEAD FOR ALL LAYERS
 UBDSV2 SAVING "STREAMFLOW OUT  " ON UNIT  50 AT TIME STEP  1, STRESS PERIOD   6



 STREAM LISTING     PERIOD      6   STEP        1

 LAYER ROW COL. STREAM  RCH.  FLOW INTO     FLOW TO   FLOW OUT OF   OVRLND.     DIRECT     STREAM       STREAM     STREAM     STREAM   STREAMBED  STREAMBED
                SEG.NO.  NO.  STRM. RCH.    AQUIFER    STRM. RCH.    RUNOFF     PRECIP       ET          HEAD       DEPTH      WIDTH   CONDCTNC.   GRADIENT

   1   13    1     1     1    1.0000E+05 -3.1885E+03   1.0319E+05  0.000E+00  0.000E+00  0.000E+00  4.84074E+01  1.460E-01  2.000E+01  2.000E+04 -1.594E-01
   1   13    2     1     2    1.0319E+05 -5.2345E+03   1.0842E+05  0.000E+00  0.000E+00  0.000E+00  4.79337E+01  1.496E-01  2.000E+01  2.000E+04 -2.617E-01
   1   14    3     1     3    1.0842E+05 -4.2886E+03   1.1271E+05  0.000E+00  0.000E+00  0.000E+00  4.74605E+01  1.536E-01  2.000E+01  2.000E+04 -2.144E-01
   1   15    4     1     4    1.1271E+05 -4.1770E+03   1.1689E+05  0.000E+00  0.000E+00  0.000E+00  4.69867E+01  1.571E-01  2.000E+01  2.000E+04 -2.088E-01
   1   16    5     1     5    1.1689E+05 -4.4424E+03   1.2133E+05  0.000E+00  0.000E+00  0.000E+00  4.65129E+01  1.607E-01  2.000E+01  2.000E+04 -2.221E-01
   1   16    6     1     6    1.2133E+05 -3.5047E+03   1.2484E+05  0.000E+00  0.000E+00  0.000E+00  4.60388E+01  1.638E-01  2.000E+01  2.000E+04 -1.752E-01
   1   16    7     1     7    1.2484E+05 -3.5598E+03   1.2840E+05  0.000E+00  0.000E+00  0.000E+00  4.55644E+01  1.667E-01  2.000E+01  2.000E+04 -1.780E-01
   1   16    8     1     8    1.2840E+05 -3.5726E+03   1.3197E+05  0.000E+00  0.000E+00  0.000E+00  4.50899E+01  1.695E-01  2.000E+01  2.000E+04 -1.786E-01
   1   16    9     1     9    1.3197E+05 -3.5239E+03   1.3549E+05  0.000E+00  0.000E+00  0.000E+00  4.46154E+01  1.722E-01  2.000E+01  2.000E+04 -1.762E-01
   1   16   10     1    10    1.3549E+05 -3.4059E+03   1.3890E+05  0.000E+00  0.000E+00  0.000E+00  4.41408E+01  1.749E-01  2.000E+01  2.000E+04 -1.703E-01
   1   16   11     1    11    1.3890E+05 -3.2117E+03   1.4211E+05  0.000E+00  0.000E+00  0.000E+00  4.36660E+01  1.774E-01  2.000E+01  2.000E+04 -1.606E-01
   1   16   12     1    12    1.4211E+05 -3.5932E+03   1.4570E+05  0.000E+00  0.000E+00  0.000E+00  4.31913E+01  1.800E-01  2.000E+01  2.000E+04 -1.797E-01
   1   15   13     1    13    1.4570E+05 -3.2801E+03   1.4898E+05  0.000E+00  0.000E+00  0.000E+00  4.27166E+01  1.825E-01  2.000E+01  2.000E+04 -1.640E-01
   1   14   14     1    14    1.4898E+05 -3.3390E+03   1.5232E+05  0.000E+00  0.000E+00  0.000E+00  4.22418E+01  1.850E-01  2.000E+01  2.000E+04 -1.669E-01
   1   13   15     1    15    1.5232E+05 -3.7881E+03   1.5611E+05  0.000E+00  0.000E+00  0.000E+00  4.17671E+01  1.876E-01  2.000E+01  2.000E+04 -1.894E-01
   1   12   16     1    16    1.5611E+05 -5.4756E+03   1.6159E+05  0.000E+00  0.000E+00  0.000E+00  4.12932E+01  1.909E-01  2.000E+01  2.000E+04 -2.738E-01
   1   12   17     1    17    1.6159E+05 -3.2940E+03   1.6488E+05  0.000E+00  0.000E+00  0.000E+00  4.08191E+01  1.941E-01  2.000E+01  2.000E+04 -1.647E-01
   1   12   18     1    18    1.6488E+05 -3.0750E+03   1.6795E+05  0.000E+00  0.000E+00  0.000E+00  4.03441E+01  1.964E-01  2.000E+01  2.000E+04 -1.538E-01
   1   12   19     1    19    1.6795E+05 -4.3111E+03   1.7227E+05  0.000E+00  0.000E+00  0.000E+00  3.98694E+01  1.990E-01  2.000E+01  2.000E+04 -2.156E-01
   1   13   20     1    20    1.7227E+05 -1.6519E+03   1.7392E+05  0.000E+00  0.000E+00  0.000E+00  3.93942E+01  2.010E-01  2.000E+01  2.000E+04 -8.260E-02
   1   14   21     1    21    1.7392E+05  9.1773E+02   1.7300E+05  0.000E+00  0.000E+00  0.000E+00  3.89172E+01  2.013E-01  2.000E+01  2.000E+04  4.589E-02
   1   14   22     1    22    1.7300E+05  5.5716E+03   1.6743E+05  0.000E+00  0.000E+00  0.000E+00  3.84377E+01  1.990E-01  2.000E+01  2.000E+04  2.786E-01
   1    9   30     2     1    5.0000E+04 -3.0376E+03   5.3038E+04  0.000E+00  0.000E+00  0.000E+00  4.02430E+01  1.180E-01  2.000E+01  2.000E+04 -1.519E-01
   1    9   29     2     2    5.3038E+04 -3.3679E+03   5.6406E+04  0.000E+00  0.000E+00  0.000E+00  3.99973E+01  1.223E-01  2.000E+01  2.000E+04 -1.684E-01
   1    9   28     2     3    5.6406E+04 -3.7485E+03   6.0154E+04  0.000E+00  0.000E+00  0.000E+00  3.97520E+01  1.270E-01  2.000E+01  2.000E+04 -1.874E-01
   1    9   27     2     4    6.0154E+04 -6.5709E+03   6.6725E+04  0.000E+00  0.000E+00  0.000E+00  3.95087E+01  1.337E-01  2.000E+01  2.000E+04 -3.285E-01
   1   10   26     2     5    6.6725E+04 -4.2060E+03   7.0931E+04  0.000E+00  0.000E+00  0.000E+00  3.92654E+01  1.404E-01  2.000E+01  2.000E+04 -2.103E-01
   1   11   25     2     6    7.0931E+04 -3.1387E+03   7.4070E+04  0.000E+00  0.000E+00  0.000E+00  3.90198E+01  1.448E-01  2.000E+01  2.000E+04 -1.569E-01
   1   12   24     2     7    7.4070E+04 -2.2381E+03   7.6308E+04  0.000E+00  0.000E+00  0.000E+00  3.87730E+01  1.480E-01  2.000E+01  2.000E+04 -1.119E-01
   1   13   23     2     8    7.6308E+04 -1.3035E+03   7.7611E+04  0.000E+00  0.000E+00  0.000E+00  3.85251E+01  1.501E-01  2.000E+01  2.000E+04 -6.517E-02
   1   14   22     2     9    7.7611E+04  2.3082E+03   7.5303E+04  0.000E+00  0.000E+00  0.000E+00  3.82745E+01  1.495E-01  2.000E+01  2.000E+04  1.154E-01
   1   14   22     3     1    2.4273E+05 -7.9436E+03   2.5067E+05  0.000E+00  0.000E+00  0.000E+00  3.77619E+01  2.064E-01  2.000E+01  2.000E+04 -3.972E-01
   1   15   23     3     2    2.5067E+05  2.1529E+03   2.4852E+05  0.000E+00  0.000E+00  0.000E+00  3.68745E+01  2.078E-01  2.000E+01  2.000E+04  1.076E-01
   1   15   24     3     3    2.4852E+05  1.0244E+03   2.4750E+05  0.000E+00  0.000E+00  0.000E+00  3.59848E+01  2.070E-01  2.000E+01  2.000E+04  5.122E-02
   1   15   25     3     4    2.4750E+05  3.6941E+02   2.4713E+05  0.000E+00  0.000E+00  0.000E+00  3.50955E+01  2.067E-01  2.000E+01  2.000E+04  1.847E-02
   1   15   26     3     5    2.4713E+05 -9.9754E+02   2.4813E+05  0.000E+00  0.000E+00  0.000E+00  3.42068E+01  2.068E-01  2.000E+01  2.000E+04 -4.988E-02
   1   16   27     3     6    2.4813E+05 -3.3547E+02   2.4846E+05  0.000E+00  0.000E+00  0.000E+00  3.33183E+01  2.071E-01  2.000E+01  2.000E+04 -1.677E-02
   1   17   28     3     7    2.4846E+05 -1.0683E+03   2.4953E+05  0.000E+00  0.000E+00  0.000E+00  3.24297E+01  2.075E-01  2.000E+01  2.000E+04 -5.341E-02
   1   18   29     3     8    2.4953E+05 -2.8591E+03   2.5239E+05  0.000E+00  0.000E+00  0.000E+00  3.15418E+01  2.085E-01  2.000E+01  2.000E+04 -1.430E-01
   1   18   30     3     9    2.5239E+05 -3.7487E+03   2.5614E+05  0.000E+00  0.000E+00  0.000E+00  3.06546E+01  2.101E-01  2.000E+01  2.000E+04 -1.874E-01



1
              HEAD IN LAYER   1 AT END OF TIME STEP   1 IN STRESS PERIOD    6
  ---------------------------------------------------------------------------

          1      2      3      4      5      6      7      8      9     10
         11     12     13     14     15     16     17     18     19     20
         21     22     23     24     25     26     27     28     29     30
 .........................................................................
   1  ****** ****** ****** ****** ****** ****** ****** ****** ****** ******
      ****** ****** ****** ****** ****** ****** ****** ****** ****** ******
      ****** ****** ****** ****** ****** ****** ****** ****** ****** ******
   2  ****** ****** ****** ****** ****** ****** ****** ****** ****** ******
      ****** ****** ****** ****** ****** ****** ****** ****** ****** ******
      ****** ****** ****** ****** ****** ****** ****** ****** ****** ******
   3  ****** ****** ****** ****** ****** ****** ****** ****** ****** ******
      ****** ****** ****** ****** ****** ****** ****** ****** ****** ******
      ****** ****** ****** ****** ****** ****** ****** ****** ****** ******
   4  ****** ****** ****** ****** ****** ****** ****** ****** ****** ******
      ****** ****** ****** ****** ****** ****** ****** ****** ****** ******
      ****** ****** ****** ****** ****** ****** ****** ****** ****** ******
   5  ****** ****** ****** ****** ****** ****** ****** ****** ****** ******
      ****** ****** ****** ****** ****** ****** ****** ****** ****** ******
      ****** ****** ****** ****** ****** ****** ****** ****** ****** ******
   6  ****** ****** ****** ****** ****** ****** ****** ****** ****** ******
      ****** ****** ****** ****** ****** ****** ****** ****** ****** ******
      ****** ****** ****** ****** ****** ****** ****** ****** ****** ******
   7  ****** ****** ****** ****** ****** ****** ****** ****** ****** ******
      ****** ****** ****** ****** ****** ****** ****** ****** ****** ******
      ****** ****** ****** ****** ****** ****** ****** ****** ****** ******
   8  ****** ****** ****** ****** ****** ****** ****** ****** ****** ******
      ****** ****** ****** ****** ****** ****** ****** ****** ****** ******
      ****** ****** ****** ****** ****** ****** ****** ****** ****** ******
   9  ****** ****** ****** ****** ****** ****** ****** ****** ****** ******
      ****** ****** ****** ****** ****** ****** ****** ****** ****** ******
      ****** ****** ****** ****** ****** ****** ****** ****** ****** ******
  10  ****** ****** ****** ****** ****** ****** ****** ****** ****** ******
      ****** ****** ****** ****** ****** ****** ****** ****** ****** ******
      ****** ****** ****** ****** ****** ****** ****** ****** ****** ******
  11  ****** ****** ****** ****** ****** ****** ****** ****** ****** ******
      ****** ****** ****** ****** ****** ****** ****** ****** ****** ******
      ****** ****** ****** ****** ****** ****** ****** ****** ****** ******
  12  ****** ****** ****** ****** ****** ****** ****** ****** ****** ******
      ****** ****** ****** ****** ****** ****** ****** ****** ****** ******
      ****** ****** ****** ****** ****** ****** ****** ****** ****** ******
  13  ****** ****** ****** ****** ****** ****** ****** ****** ****** ******
      ****** ****** ****** ****** ****** ****** ****** ****** ****** ******
      ****** ****** ****** ****** ****** ****** ****** ****** ****** ******
  14  ****** ****** ****** ****** ****** ****** ****** ****** ****** ******
      ****** ****** ****** ****** ****** ****** ****** ****** ****** ******
      ****** ****** ****** ****** ****** ****** ****** ****** ****** ******
  15  ****** ****** ****** ****** ****** ****** ****** ****** ****** ******
      ****** ****** ****** ****** ****** ****** ****** ****** ****** ******
      ****** ****** ****** ****** ****** ****** ****** ****** ****** ******
  16  ****** ****** ****** ****** ****** ****** ****** ****** ****** ******
      ****** ****** ****** ****** ****** ****** ****** ****** ****** ******
      ****** ****** ****** ****** ****** ****** ****** ****** ****** ******
  17  ****** ****** ****** ****** ****** ****** ****** ****** ****** ******
      ****** ****** ****** ****** ****** ****** ****** ****** ****** ******
      ****** ****** ****** ****** ****** ****** ****** ****** ****** ******
  18  ****** ****** ****** ****** ****** ****** ****** ****** ****** ******
      ****** ****** ****** ****** ****** ****** ****** ****** ****** ******
      ****** ****** ****** ****** ****** ****** ****** ****** ****** ******
  19  ****** ****** ****** ****** ****** ****** ****** ****** ****** ******
      ****** ****** ****** ****** ****** ****** ****** ****** ****** ******
      ****** ****** ****** ****** ****** ****** ****** ****** ****** ******
  20  ****** ****** ****** ****** ****** ****** ****** ****** ****** ******
      ****** ****** ****** ****** ****** ****** ****** ****** ****** ******
      ****** ****** ****** ****** ****** ****** ****** ****** ****** ******
  21  ****** ****** ****** ****** ****** ****** ****** ****** ****** ******
      ****** ****** ****** ****** ****** ****** ****** ****** ****** ******
      ****** ****** ****** ****** ****** ****** ****** ****** ****** ******
  22  ****** ****** ****** ****** ****** ****** ****** ****** ****** ******
      ****** ****** ****** ****** ****** ****** ****** ****** ****** ******
      ****** ****** ****** ****** ****** ****** ****** ****** ****** ******
  23  ****** ****** ****** ****** ****** ****** ****** ****** ****** ******
      ****** ****** ****** ****** ****** ****** ****** ****** ****** ******
      ****** ****** ****** ****** ****** ****** ****** ****** ****** ******
  24  ****** ****** ****** ****** ****** ****** ****** ****** ****** ******
      ****** ****** ****** ****** ****** ****** ****** ****** ****** ******
      ****** ****** ****** ****** ****** ****** ****** ****** ****** ******
  25  ****** ****** ****** ****** ****** ****** ****** ****** ****** ******
      ****** ****** ****** ****** ****** ****** ****** ****** ****** ******
      ****** ****** ****** ****** ****** ****** ****** ****** ****** ******

 HEAD WILL BE SAVED ON UNIT   51 AT END OF TIME STEP    1, STRESS PERIOD    6
1
  VOLUMETRIC BUDGET FOR ENTIRE MODEL AT END OF TIME STEP    1, STRESS PERIOD   6
  ------------------------------------------------------------------------------

     CUMULATIVE VOLUMES      L**3       RATES FOR THIS TIME STEP      L**3/T
     ------------------                 ------------------------

           IN:                                      IN:
           ---                                      ---
             STORAGE =    24134357.4251               STORAGE =           0.0000
       CONSTANT HEAD =    72395265.5304         CONSTANT HEAD =      137355.4669
               WELLS =           0.0000                 WELLS =           0.0000
            RECHARGE =    15097200.0000              RECHARGE =       55200.0000
      STREAM LEAKAGE =     6206549.2060        STREAM LEAKAGE =       12344.2949

            TOTAL IN =   117833372.1615              TOTAL IN =      204899.7618

          OUT:                                     OUT:
          ----                                     ----
             STORAGE =      939073.2704               STORAGE =       10070.1368
       CONSTANT HEAD =           0.0000         CONSTANT HEAD =           0.0000
               WELLS =    41838737.3934                 WELLS =       76348.0609
            RECHARGE =           0.0000              RECHARGE =           0.0000
      STREAM LEAKAGE =    75055562.0646        STREAM LEAKAGE =      118481.5624

           TOTAL OUT =   117833372.7284             TOTAL OUT =      204899.7601

            IN - OUT =          -0.5669              IN - OUT =       1.6506E-03

 PERCENT DISCREPANCY =          -0.00     PERCENT DISCREPANCY =           0.00






         TIME SUMMARY AT END OF TIME STEP    1 IN STRESS PERIOD    6
                    SECONDS     MINUTES      HOURS       DAYS        YEARS
                    -----------------------------------------------------------
   TIME STEP LENGTH 7.86240E+06 1.31040E+05  2184.0      91.000     0.24914    
 STRESS PERIOD TIME 7.86240E+06 1.31040E+05  2184.0      91.000     0.24914    
         TOTAL TIME 4.73472E+07 7.89120E+05  13152.      548.00      1.5003    
1
1
                            STRESS PERIOD NO.    7, LENGTH =   91.00000    
                            -----------------------------------------------

                              NUMBER OF TIME STEPS =     1

                               MULTIPLIER FOR DELT =     1.500

                            INITIAL TIME STEP SIZE =   91.00000    

 WELL NO.  LAYER   ROW   COL   STRESS RATE         
 --------------------------------------------------
      1      1     21     23     -0.1821E+05
      2      1     20     24     -0.1241E+05
      3      1     19     20     -0.2882E+05
      4      1     19     24     -0.1691E+05

      4 WELLS

                 RECHARGE =   0.00000    

 REUSING STREAM SEGMENT DATA FROM LAST STRESS PERIOD
 
 SOLVING FOR HEAD 


     7 CALLS TO PCG ROUTINE FOR TIME STEP   1 IN STRESS PERIOD    7
    26 TOTAL ITERATIONS

 OUTPUT CONTROL FOR STRESS PERIOD    7   TIME STEP    1
    SAVE BUDGET
    SAVE HEAD FOR ALL LAYERS
    PRINT HEAD FOR ALL LAYERS
 UBDSV2 SAVING "STREAMFLOW OUT  " ON UNIT  50 AT TIME STEP  1, STRESS PERIOD   7



 STREAM LISTING     PERIOD      7   STEP        1

 LAYER ROW COL. STREAM  RCH.  FLOW INTO     FLOW TO   FLOW OUT OF   OVRLND.     DIRECT     STREAM       STREAM     STREAM     STREAM   STREAMBED  STREAMBED
                SEG.NO.  NO.  STRM. RCH.    AQUIFER    STRM. RCH.    RUNOFF     PRECIP       ET          HEAD       DEPTH      WIDTH   CONDCTNC.   GRADIENT

   1   13    1     1     1    1.0000E+05 -2.6945E+03   1.0269E+05  0.000E+00  0.000E+00  0.000E+00  4.84072E+01  1.458E-01  2.000E+01  2.000E+04 -1.347E-01
   1   13    2     1     2    1.0269E+05 -4.5860E+03   1.0728E+05  0.000E+00  0.000E+00  0.000E+00  4.79330E+01  1.489E-01  2.000E+01  2.000E+04 -2.293E-01
   1   14    3     1     3    1.0728E+05 -3.6227E+03   1.1090E+05  0.000E+00  0.000E+00  0.000E+00  4.74592E+01  1.524E-01  2.000E+01  2.000E+04 -1.811E-01
   1   15    4     1     4    1.1090E+05 -3.5163E+03   1.1442E+05  0.000E+00  0.000E+00  0.000E+00  4.69849E+01  1.554E-01  2.000E+01  2.000E+04 -1.758E-01
   1   16    5     1     5    1.1442E+05 -3.8347E+03   1.1825E+05  0.000E+00  0.000E+00  0.000E+00  4.65107E+01  1.584E-01  2.000E+01  2.000E+04 -1.917E-01
   1   16    6     1     6    1.1825E+05 -3.0227E+03   1.2128E+05  0.000E+00  0.000E+00  0.000E+00  4.60362E+01  1.612E-01  2.000E+01  2.000E+04 -1.511E-01
   1   16    7     1     7    1.2128E+05 -3.0704E+03   1.2435E+05  0.000E+00  0.000E+00  0.000E+00  4.55614E+01  1.636E-01  2.000E+01  2.000E+04 -1.535E-01
   1   16    8     1     8    1.2435E+05 -3.0789E+03   1.2743E+05  0.000E+00  0.000E+00  0.000E+00  4.50865E+01  1.661E-01  2.000E+01  2.000E+04 -1.539E-01
   1   16    9     1     9    1.2743E+05 -3.0302E+03   1.3046E+05  0.000E+00  0.000E+00  0.000E+00  4.46117E+01  1.685E-01  2.000E+01  2.000E+04 -1.515E-01
   1   16   10     1    10    1.3046E+05 -2.9165E+03   1.3337E+05  0.000E+00  0.000E+00  0.000E+00  4.41367E+01  1.708E-01  2.000E+01  2.000E+04 -1.458E-01
   1   16   11     1    11    1.3337E+05 -2.7288E+03   1.3610E+05  0.000E+00  0.000E+00  0.000E+00  4.36616E+01  1.730E-01  2.000E+01  2.000E+04 -1.364E-01
   1   16   12     1    12    1.3610E+05 -2.9751E+03   1.3908E+05  0.000E+00  0.000E+00  0.000E+00  4.31865E+01  1.752E-01  2.000E+01  2.000E+04 -1.488E-01
   1   15   13     1    13    1.3908E+05 -2.6058E+03   1.4168E+05  0.000E+00  0.000E+00  0.000E+00  4.27114E+01  1.773E-01  2.000E+01  2.000E+04 -1.303E-01
   1   14   14     1    14    1.4168E+05 -2.6527E+03   1.4434E+05  0.000E+00  0.000E+00  0.000E+00  4.22361E+01  1.793E-01  2.000E+01  2.000E+04 -1.326E-01
   1   13   15     1    15    1.4434E+05 -3.1136E+03   1.4745E+05  0.000E+00  0.000E+00  0.000E+00  4.17610E+01  1.814E-01  2.000E+01  2.000E+04 -1.557E-01
   1   12   16     1    16    1.4745E+05 -4.8358E+03   1.5228E+05  0.000E+00  0.000E+00  0.000E+00  4.12867E+01  1.844E-01  2.000E+01  2.000E+04 -2.418E-01
   1   12   17     1    17    1.5228E+05 -2.8134E+03   1.5510E+05  0.000E+00  0.000E+00  0.000E+00  4.08122E+01  1.872E-01  2.000E+01  2.000E+04 -1.407E-01
   1   12   18     1    18    1.5510E+05 -2.6018E+03   1.5770E+05  0.000E+00  0.000E+00  0.000E+00  4.03369E+01  1.892E-01  2.000E+01  2.000E+04 -1.301E-01
   1   12   19     1    19    1.5770E+05 -3.7348E+03   1.6143E+05  0.000E+00  0.000E+00  0.000E+00  3.98619E+01  1.915E-01  2.000E+01  2.000E+04 -1.867E-01
   1   13   20     1    20    1.6143E+05 -1.0831E+03   1.6252E+05  0.000E+00  0.000E+00  0.000E+00  3.93864E+01  1.932E-01  2.000E+01  2.000E+04 -5.416E-02
   1   14   21     1    21    1.6252E+05  1.4389E+03   1.6108E+05  0.000E+00  0.000E+00  0.000E+00  3.89090E+01  1.931E-01  2.000E+01  2.000E+04  7.195E-02
   1   14   22     1    22    1.6108E+05  5.6722E+03   1.5541E+05  0.000E+00  0.000E+00  0.000E+00  3.84291E+01  1.905E-01  2.000E+01  2.000E+04  2.836E-01
   1    9   30     2     1    5.0000E+04 -2.5949E+03   5.2595E+04  0.000E+00  0.000E+00  0.000E+00  4.02427E+01  1.177E-01  2.000E+01  2.000E+04 -1.297E-01
   1    9   29     2     2    5.2595E+04 -2.9289E+03   5.5524E+04  0.000E+00  0.000E+00  0.000E+00  3.99964E+01  1.214E-01  2.000E+01  2.000E+04 -1.464E-01
   1    9   28     2     3    5.5524E+04 -3.3127E+03   5.8836E+04  0.000E+00  0.000E+00  0.000E+00  3.97506E+01  1.256E-01  2.000E+01  2.000E+04 -1.656E-01
   1    9   27     2     4    5.8836E+04 -5.9957E+03   6.4832E+04  0.000E+00  0.000E+00  0.000E+00  3.95066E+01  1.316E-01  2.000E+01  2.000E+04 -2.998E-01
   1   10   26     2     5    6.4832E+04 -3.6051E+03   6.8437E+04  0.000E+00  0.000E+00  0.000E+00  3.92627E+01  1.377E-01  2.000E+01  2.000E+04 -1.803E-01
   1   11   25     2     6    6.8437E+04 -2.5611E+03   7.0998E+04  0.000E+00  0.000E+00  0.000E+00  3.90164E+01  1.414E-01  2.000E+01  2.000E+04 -1.281E-01
   1   12   24     2     7    7.0998E+04 -1.7241E+03   7.2723E+04  0.000E+00  0.000E+00  0.000E+00  3.87690E+01  1.440E-01  2.000E+01  2.000E+04 -8.620E-02
   1   13   23     2     8    7.2723E+04 -8.9845E+02   7.3621E+04  0.000E+00  0.000E+00  0.000E+00  3.85206E+01  1.456E-01  2.000E+01  2.000E+04 -4.492E-02
   1   14   22     2     9    7.3621E+04  2.4824E+03   7.1139E+04  0.000E+00  0.000E+00  0.000E+00  3.82697E+01  1.447E-01  2.000E+01  2.000E+04  1.241E-01
   1   14   22     3     1    2.2654E+05 -7.8378E+03   2.3438E+05  0.000E+00  0.000E+00  0.000E+00  3.77536E+01  1.981E-01  2.000E+01  2.000E+04 -3.919E-01
   1   15   23     3     2    2.3438E+05  2.6401E+03   2.3174E+05  0.000E+00  0.000E+00  0.000E+00  3.68661E+01  1.994E-01  2.000E+01  2.000E+04  1.320E-01
   1   15   24     3     3    2.3174E+05  1.3824E+03   2.3036E+05  0.000E+00  0.000E+00  0.000E+00  3.59762E+01  1.984E-01  2.000E+01  2.000E+04  6.912E-02
   1   15   25     3     4    2.3036E+05  7.3030E+02   2.2963E+05  0.000E+00  0.000E+00  0.000E+00  3.50867E+01  1.978E-01  2.000E+01  2.000E+04  3.651E-02
   1   15   26     3     5    2.2963E+05 -5.3177E+02   2.3016E+05  0.000E+00  0.000E+00  0.000E+00  3.41978E+01  1.978E-01  2.000E+01  2.000E+04 -2.659E-02
   1   16   27     3     6    2.3016E+05  2.4369E+02   2.2992E+05  0.000E+00  0.000E+00  0.000E+00  3.33090E+01  1.979E-01  2.000E+01  2.000E+04  1.218E-02
   1   17   28     3     7    2.2992E+05 -4.7830E+02   2.3040E+05  0.000E+00  0.000E+00  0.000E+00  3.24202E+01  1.979E-01  2.000E+01  2.000E+04 -2.392E-02
   1   18   29     3     8    2.3040E+05 -2.3086E+03   2.3270E+05  0.000E+00  0.000E+00  0.000E+00  3.15320E+01  1.986E-01  2.000E+01  2.000E+04 -1.154E-01
   1   18   30     3     9    2.3270E+05 -3.3299E+03   2.3603E+05  0.000E+00  0.000E+00  0.000E+00  3.06445E+01  2.001E-01  2.000E+01  2.000E+04 -1.665E-01



1
              HEAD IN LAYER   1 AT END OF TIME STEP   1 IN STRESS PERIOD    7
  ---------------------------------------------------------------------------

          1      2      3      4      5      6      7      8      9     10
         11     12     13     14     15     16     17     18     19     20
         21     22     23     24     25     26     27     28     29     30
 .........................................................................
   1  ****** ****** ****** ****** ****** ****** ****** ****** ****** ******
      ****** ****** ****** ****** ****** ****** ****** ****** ****** ******
      ****** ****** ****** ****** ****** ****** ****** ****** ****** ******
   2  ****** ****** ****** ****** ****** ****** ****** ****** ****** ******
      ****** ****** ****** ****** ****** ****** ****** ****** ****** ******
      ****** ****** ****** ****** ****** ****** ****** ****** ****** ******
   3  ****** ****** ****** ****** ****** ****** ****** ****** ****** ******
      ****** ****** ****** ****** ****** ****** ****** ****** ****** ******
      ****** ****** ****** ****** ****** ****** ****** ****** ****** ******
   4  ****** ****** ****** ****** ****** ****** ****** ****** ****** ******
      ****** ****** ****** ****** ****** ****** ****** ****** ****** ******
      ****** ****** ****** ****** ****** ****** ****** ****** ****** ******
   5  ****** ****** ****** ****** ****** ****** ****** ****** ****** ******
      ****** ****** ****** ****** ****** ****** ****** ****** ****** ******
      ****** ****** ****** ****** ****** ****** ****** ****** ****** ******
   6  ****** ****** ****** ****** ****** ****** ****** ****** ****** ******
      ****** ****** ****** ****** ****** ****** ****** ****** ****** ******
      ****** ****** ****** ****** ****** ****** ****** ****** ****** ******
   7  ****** ****** ****** ****** ****** ****** ****** ****** ****** ******
      ****** ****** ****** ****** ****** ****** ****** ****** ****** ******
      ****** ****** ****** ****** ****** ****** ****** ****** ****** ******
   8  ****** ****** ****** ****** ****** ****** ****** ****** ****** ******
      ****** ****** ****** ****** ****** ****** ****** ****** ****** ******
      ****** ****** ****** ****** ****** ****** ****** ****** ****** ******
   9  ****** ****** ****** ****** ****** ****** ****** ****** ****** ******
      ****** ****** ****** ****** ****** ****** ****** ****** ****** ******
      ****** ****** ****** ****** ****** ****** ****** ****** ****** ******
  10  ****** ****** ****** ****** ****** ****** ****** ****** ****** ******
      ****** ****** ****** ****** ****** ****** ****** ****** ****** ******
      ****** ****** ****** ****** ****** ****** ****** ****** ****** ******
  11  ****** ****** ****** ****** ****** ****** ****** ****** ****** ******
      ****** ****** ****** ****** ****** ****** ****** ****** ****** ******
      ****** ****** ****** ****** ****** ****** ****** ****** ****** ******
  12  ****** ****** ****** ****** ****** ****** ****** ****** ****** ******
      ****** ****** ****** ****** ****** ****** ****** ****** ****** ******
      ****** ****** ****** ****** ****** ****** ****** ****** ****** ******
  13  ****** ****** ****** ****** ****** ****** ****** ****** ****** ******
      ****** ****** ****** ****** ****** ****** ****** ****** ****** ******
      ****** ****** ****** ****** ****** ****** ****** ****** ****** ******
  14  ****** ****** ****** ****** ****** ****** ****** ****** ****** ******
      ****** ****** ****** ****** ****** ****** ****** ****** ****** ******
      ****** ****** ****** ****** ****** ****** ****** ****** ****** ******
  15  ****** ****** ****** ****** ****** ****** ****** ****** ****** ******
      ****** ****** ****** ****** ****** ****** ****** ****** ****** ******
      ****** ****** ****** ****** ****** ****** ****** ****** ****** ******
  16  ****** ****** ****** ****** ****** ****** ****** ****** ****** ******
      ****** ****** ****** ****** ****** ****** ****** ****** ****** ******
      ****** ****** ****** ****** ****** ****** ****** ****** ****** ******
  17  ****** ****** ****** ****** ****** ****** ****** ****** ****** ******
      ****** ****** ****** ****** ****** ****** ****** ****** ****** ******
      ****** ****** ****** ****** ****** ****** ****** ****** ****** ******
  18  ****** ****** ****** ****** ****** ****** ****** ****** ****** ******
      ****** ****** ****** ****** ****** ****** ****** ****** ****** ******
      ****** ****** ****** ****** ****** ****** ****** ****** ****** ******
  19  ****** ****** ****** ****** ****** ****** ****** ****** ****** ******
      ****** ****** ****** ****** ****** ****** ****** ****** ****** ******
      ****** ****** ****** ****** ****** ****** ****** ****** ****** ******
  20  ****** ****** ****** ****** ****** ****** ****** ****** ****** ******
      ****** ****** ****** ****** ****** ****** ****** ****** ****** ******
      ****** ****** ****** ****** ****** ****** ****** ****** ****** ******
  21  ****** ****** ****** ****** ****** ****** ****** ****** ****** ******
      ****** ****** ****** ****** ****** ****** ****** ****** ****** ******
      ****** ****** ****** ****** ****** ****** ****** ****** ****** ******
  22  ****** ****** ****** ****** ****** ****** ****** ****** ****** ******
      ****** ****** ****** ****** ****** ****** ****** ****** ****** ******
      ****** ****** ****** ****** ****** ****** ****** ****** ****** ******
  23  ****** ****** ****** ****** ****** ****** ****** ****** ****** ******
      ****** ****** ****** ****** ****** ****** ****** ****** ****** ******
      ****** ****** ****** ****** ****** ****** ****** ****** ****** ******
  24  ****** ****** ****** ****** ****** ****** ****** ****** ****** ******
      ****** ****** ****** ****** ****** ****** ****** ****** ****** ******
      ****** ****** ****** ****** ****** ****** ****** ****** ****** ******
  25  ****** ****** ****** ****** ****** ****** ****** ****** ****** ******
      ****** ****** ****** ****** ****** ****** ****** ****** ****** ******
      ****** ****** ****** ****** ****** ****** ****** ****** ****** ******

 HEAD WILL BE SAVED ON UNIT   51 AT END OF TIME STEP    1, STRESS PERIOD    7
1
  VOLUMETRIC BUDGET FOR ENTIRE MODEL AT END OF TIME STEP    1, STRESS PERIOD   7
  ------------------------------------------------------------------------------

     CUMULATIVE VOLUMES      L**3       RATES FOR THIS TIME STEP      L**3/T
     ------------------                 ------------------------

           IN:                                      IN:
           ---                                      ---
             STORAGE =    25236601.0762               STORAGE =       12112.5676
       CONSTANT HEAD =    86069862.0365         CONSTANT HEAD =      150270.2913
               WELLS =           0.0000                 WELLS =           0.0000
            RECHARGE =    15097200.0000              RECHARGE =           0.0000
      STREAM LEAKAGE =     7534245.0427        STREAM LEAKAGE =       14590.0641

            TOTAL IN =   133937908.1554              TOTAL IN =      176972.9230

          OUT:                                     OUT:
          ----                                     ----
             STORAGE =      939073.2704               STORAGE =           0.0000
       CONSTANT HEAD =           0.0000         CONSTANT HEAD =           0.0000
               WELLS =    48786410.9387                 WELLS =       76348.0609
            RECHARGE =           0.0000              RECHARGE =           0.0000
      STREAM LEAKAGE =    84212424.7096        STREAM LEAKAGE =      100624.8642

           TOTAL OUT =   133937908.9187             TOTAL OUT =      176972.9252

            IN - OUT =          -0.7633              IN - OUT =      -2.1584E-03

 PERCENT DISCREPANCY =          -0.00     PERCENT DISCREPANCY =          -0.00






         TIME SUMMARY AT END OF TIME STEP    1 IN STRESS PERIOD    7
                    SECONDS     MINUTES      HOURS       DAYS        YEARS
                    -----------------------------------------------------------
   TIME STEP LENGTH 7.86240E+06 1.31040E+05  2184.0      91.000     0.24914    
 STRESS PERIOD TIME 7.86240E+06 1.31040E+05  2184.0      91.000     0.24914    
         TOTAL TIME 5.52096E+07 9.20160E+05  15336.      639.00      1.7495    
1
1
                            STRESS PERIOD NO.    8, LENGTH =   91.00000    
                            -----------------------------------------------

                              NUMBER OF TIME STEPS =     1

                               MULTIPLIER FOR DELT =     1.500

                            INITIAL TIME STEP SIZE =   91.00000    

 WELL NO.  LAYER   ROW   COL   STRESS RATE         
 --------------------------------------------------
      1      1     21     23     -0.1821E+05
      2      1     20     24     -0.1241E+05
      3      1     19     20     -0.2882E+05
      4      1     19     24     -0.1691E+05

      4 WELLS

                 RECHARGE =  1.000000E-03

 REUSING STREAM SEGMENT DATA FROM LAST STRESS PERIOD
 
 SOLVING FOR HEAD 


     6 CALLS TO PCG ROUTINE FOR TIME STEP   1 IN STRESS PERIOD    8
    23 TOTAL ITERATIONS

 OUTPUT CONTROL FOR STRESS PERIOD    8   TIME STEP    1
    SAVE BUDGET
    SAVE HEAD FOR ALL LAYERS
    PRINT HEAD FOR ALL LAYERS
 UBDSV2 SAVING "STREAMFLOW OUT  " ON UNIT  50 AT TIME STEP  1, STRESS PERIOD   8



 STREAM LISTING     PERIOD      8   STEP        1

 LAYER ROW COL. STREAM  RCH.  FLOW INTO     FLOW TO   FLOW OUT OF   OVRLND.     DIRECT     STREAM       STREAM     STREAM     STREAM   STREAMBED  STREAMBED
                SEG.NO.  NO.  STRM. RCH.    AQUIFER    STRM. RCH.    RUNOFF     PRECIP       ET          HEAD       DEPTH      WIDTH   CONDCTNC.   GRADIENT

   1   13    1     1     1    1.0000E+05 -2.8638E+03   1.0286E+05  0.000E+00  0.000E+00  0.000E+00  4.84073E+01  1.459E-01  2.000E+01  2.000E+04 -1.432E-01
   1   13    2     1     2    1.0286E+05 -4.7975E+03   1.0766E+05  0.000E+00  0.000E+00  0.000E+00  4.79333E+01  1.492E-01  2.000E+01  2.000E+04 -2.399E-01
   1   14    3     1     3    1.0766E+05 -3.8571E+03   1.1152E+05  0.000E+00  0.000E+00  0.000E+00  4.74596E+01  1.528E-01  2.000E+01  2.000E+04 -1.929E-01
   1   15    4     1     4    1.1152E+05 -3.7537E+03   1.1527E+05  0.000E+00  0.000E+00  0.000E+00  4.69855E+01  1.560E-01  2.000E+01  2.000E+04 -1.877E-01
   1   16    5     1     5    1.1527E+05 -4.0549E+03   1.1933E+05  0.000E+00  0.000E+00  0.000E+00  4.65115E+01  1.592E-01  2.000E+01  2.000E+04 -2.027E-01
   1   16    6     1     6    1.1933E+05 -3.1975E+03   1.2252E+05  0.000E+00  0.000E+00  0.000E+00  4.60371E+01  1.621E-01  2.000E+01  2.000E+04 -1.599E-01
   1   16    7     1     7    1.2252E+05 -3.2468E+03   1.2577E+05  0.000E+00  0.000E+00  0.000E+00  4.55624E+01  1.647E-01  2.000E+01  2.000E+04 -1.623E-01
   1   16    8     1     8    1.2577E+05 -3.2563E+03   1.2903E+05  0.000E+00  0.000E+00  0.000E+00  4.50877E+01  1.673E-01  2.000E+01  2.000E+04 -1.628E-01
   1   16    9     1     9    1.2903E+05 -3.2075E+03   1.3224E+05  0.000E+00  0.000E+00  0.000E+00  4.46130E+01  1.698E-01  2.000E+01  2.000E+04 -1.604E-01
   1   16   10     1    10    1.3224E+05 -3.0926E+03   1.3533E+05  0.000E+00  0.000E+00  0.000E+00  4.41382E+01  1.723E-01  2.000E+01  2.000E+04 -1.546E-01
   1   16   11     1    11    1.3533E+05 -2.9032E+03   1.3823E+05  0.000E+00  0.000E+00  0.000E+00  4.36632E+01  1.746E-01  2.000E+01  2.000E+04 -1.452E-01
   1   16   12     1    12    1.3823E+05 -3.1950E+03   1.4143E+05  0.000E+00  0.000E+00  0.000E+00  4.31882E+01  1.769E-01  2.000E+01  2.000E+04 -1.598E-01
   1   15   13     1    13    1.4143E+05 -2.8452E+03   1.4427E+05  0.000E+00  0.000E+00  0.000E+00  4.27133E+01  1.792E-01  2.000E+01  2.000E+04 -1.423E-01
   1   14   14     1    14    1.4427E+05 -2.8943E+03   1.4717E+05  0.000E+00  0.000E+00  0.000E+00  4.22381E+01  1.813E-01  2.000E+01  2.000E+04 -1.447E-01
   1   13   15     1    15    1.4717E+05 -3.3496E+03   1.5052E+05  0.000E+00  0.000E+00  0.000E+00  4.17632E+01  1.836E-01  2.000E+01  2.000E+04 -1.675E-01
   1   12   16     1    16    1.5052E+05 -5.0504E+03   1.5557E+05  0.000E+00  0.000E+00  0.000E+00  4.12890E+01  1.867E-01  2.000E+01  2.000E+04 -2.525E-01
   1   12   17     1    17    1.5557E+05 -2.9843E+03   1.5855E+05  0.000E+00  0.000E+00  0.000E+00  4.08147E+01  1.897E-01  2.000E+01  2.000E+04 -1.492E-01
   1   12   18     1    18    1.5855E+05 -2.7726E+03   1.6132E+05  0.000E+00  0.000E+00  0.000E+00  4.03395E+01  1.917E-01  2.000E+01  2.000E+04 -1.386E-01
   1   12   19     1    19    1.6132E+05 -3.9435E+03   1.6527E+05  0.000E+00  0.000E+00  0.000E+00  3.98646E+01  1.941E-01  2.000E+01  2.000E+04 -1.972E-01
   1   13   20     1    20    1.6527E+05 -1.3000E+03   1.6657E+05  0.000E+00  0.000E+00  0.000E+00  3.93892E+01  1.960E-01  2.000E+01  2.000E+04 -6.500E-02
   1   14   21     1    21    1.6657E+05  1.2440E+03   1.6532E+05  0.000E+00  0.000E+00  0.000E+00  3.89119E+01  1.960E-01  2.000E+01  2.000E+04  6.220E-02
   1   14   22     1    22    1.6532E+05  5.6286E+03   1.5969E+05  0.000E+00  0.000E+00  0.000E+00  3.84322E+01  1.936E-01  2.000E+01  2.000E+04  2.814E-01
   1    9   30     2     1    5.0000E+04 -2.7739E+03   5.2774E+04  0.000E+00  0.000E+00  0.000E+00  4.02428E+01  1.178E-01  2.000E+01  2.000E+04 -1.387E-01
   1    9   29     2     2    5.2774E+04 -3.1061E+03   5.5880E+04  0.000E+00  0.000E+00  0.000E+00  3.99968E+01  1.218E-01  2.000E+01  2.000E+04 -1.553E-01
   1    9   28     2     3    5.5880E+04 -3.4872E+03   5.9367E+04  0.000E+00  0.000E+00  0.000E+00  3.97512E+01  1.262E-01  2.000E+01  2.000E+04 -1.744E-01
   1    9   27     2     4    5.9367E+04 -6.2151E+03   6.5582E+04  0.000E+00  0.000E+00  0.000E+00  3.95074E+01  1.324E-01  2.000E+01  2.000E+04 -3.108E-01
   1   10   26     2     5    6.5582E+04 -3.8414E+03   6.9424E+04  0.000E+00  0.000E+00  0.000E+00  3.92637E+01  1.387E-01  2.000E+01  2.000E+04 -1.921E-01
   1   11   25     2     6    6.9424E+04 -2.7911E+03   7.2215E+04  0.000E+00  0.000E+00  0.000E+00  3.90178E+01  1.428E-01  2.000E+01  2.000E+04 -1.396E-01
   1   12   24     2     7    7.2215E+04 -1.9329E+03   7.4148E+04  0.000E+00  0.000E+00  0.000E+00  3.87706E+01  1.456E-01  2.000E+01  2.000E+04 -9.664E-02
   1   13   23     2     8    7.4148E+04 -1.0681E+03   7.5216E+04  0.000E+00  0.000E+00  0.000E+00  3.85224E+01  1.474E-01  2.000E+01  2.000E+04 -5.341E-02
   1   14   22     2     9    7.5216E+04  2.4164E+03   7.2799E+04  0.000E+00  0.000E+00  0.000E+00  3.82716E+01  1.466E-01  2.000E+01  2.000E+04  1.208E-01
   1   14   22     3     1    2.3249E+05 -7.8814E+03   2.4037E+05  0.000E+00  0.000E+00  0.000E+00  3.77567E+01  2.012E-01  2.000E+01  2.000E+04 -3.941E-01
   1   15   23     3     2    2.4037E+05  2.4572E+03   2.3792E+05  0.000E+00  0.000E+00  0.000E+00  3.68692E+01  2.025E-01  2.000E+01  2.000E+04  1.229E-01
   1   15   24     3     3    2.3792E+05  1.2388E+03   2.3668E+05  0.000E+00  0.000E+00  0.000E+00  3.59794E+01  2.016E-01  2.000E+01  2.000E+04  6.194E-02
   1   15   25     3     4    2.3668E+05  5.8179E+02   2.3610E+05  0.000E+00  0.000E+00  0.000E+00  3.50900E+01  2.011E-01  2.000E+01  2.000E+04  2.909E-02
   1   15   26     3     5    2.3610E+05 -7.2627E+02   2.3682E+05  0.000E+00  0.000E+00  0.000E+00  3.42012E+01  2.012E-01  2.000E+01  2.000E+04 -3.631E-02
   1   16   27     3     6    2.3682E+05  1.0122E+01   2.3681E+05  0.000E+00  0.000E+00  0.000E+00  3.33125E+01  2.013E-01  2.000E+01  2.000E+04  5.061E-04
   1   17   28     3     7    2.3681E+05 -7.1427E+02   2.3753E+05  0.000E+00  0.000E+00  0.000E+00  3.24238E+01  2.015E-01  2.000E+01  2.000E+04 -3.571E-02
   1   18   29     3     8    2.3753E+05 -2.5241E+03   2.4005E+05  0.000E+00  0.000E+00  0.000E+00  3.15357E+01  2.024E-01  2.000E+01  2.000E+04 -1.262E-01
   1   18   30     3     9    2.4005E+05 -3.5000E+03   2.4355E+05  0.000E+00  0.000E+00  0.000E+00  3.06483E+01  2.039E-01  2.000E+01  2.000E+04 -1.750E-01



1
              HEAD IN LAYER   1 AT END OF TIME STEP   1 IN STRESS PERIOD    8
  ---------------------------------------------------------------------------

          1      2      3      4      5      6      7      8      9     10
         11     12     13     14     15     16     17     18     19     20
         21     22     23     24     25     26     27     28     29     30
 .........................................................................
   1  ****** ****** ****** ****** ****** ****** ****** ****** ****** ******
      ****** ****** ****** ****** ****** ****** ****** ****** ****** ******
      ****** ****** ****** ****** ****** ****** ****** ****** ****** ******
   2  ****** ****** ****** ****** ****** ****** ****** ****** ****** ******
      ****** ****** ****** ****** ****** ****** ****** ****** ****** ******
      ****** ****** ****** ****** ****** ****** ****** ****** ****** ******
   3  ****** ****** ****** ****** ****** ****** ****** ****** ****** ******
      ****** ****** ****** ****** ****** ****** ****** ****** ****** ******
      ****** ****** ****** ****** ****** ****** ****** ****** ****** ******
   4  ****** ****** ****** ****** ****** ****** ****** ****** ****** ******
      ****** ****** ****** ****** ****** ****** ****** ****** ****** ******
      ****** ****** ****** ****** ****** ****** ****** ****** ****** ******
   5  ****** ****** ****** ****** ****** ****** ****** ****** ****** ******
      ****** ****** ****** ****** ****** ****** ****** ****** ****** ******
      ****** ****** ****** ****** ****** ****** ****** ****** ****** ******
   6  ****** ****** ****** ****** ****** ****** ****** ****** ****** ******
      ****** ****** ****** ****** ****** ****** ****** ****** ****** ******
      ****** ****** ****** ****** ****** ****** ****** ****** ****** ******
   7  ****** ****** ****** ****** ****** ****** ****** ****** ****** ******
      ****** ****** ****** ****** ****** ****** ****** ****** ****** ******
      ****** ****** ****** ****** ****** ****** ****** ****** ****** ******
   8  ****** ****** ****** ****** ****** ****** ****** ****** ****** ******
      ****** ****** ****** ****** ****** ****** ****** ****** ****** ******
      ****** ****** ****** ****** ****** ****** ****** ****** ****** ******
   9  ****** ****** ****** ****** ****** ****** ****** ****** ****** ******
      ****** ****** ****** ****** ****** ****** ****** ****** ****** ******
      ****** ****** ****** ****** ****** ****** ****** ****** ****** ******
  10  ****** ****** ****** ****** ****** ****** ****** ****** ****** ******
      ****** ****** ****** ****** ****** ****** ****** ****** ****** ******
      ****** ****** ****** ****** ****** ****** ****** ****** ****** ******
  11  ****** ****** ****** ****** ****** ****** ****** ****** ****** ******
      ****** ****** ****** ****** ****** ****** ****** ****** ****** ******
      ****** ****** ****** ****** ****** ****** ****** ****** ****** ******
  12  ****** ****** ****** ****** ****** ****** ****** ****** ****** ******
      ****** ****** ****** ****** ****** ****** ****** ****** ****** ******
      ****** ****** ****** ****** ****** ****** ****** ****** ****** ******
  13  ****** ****** ****** ****** ****** ****** ****** ****** ****** ******
      ****** ****** ****** ****** ****** ****** ****** ****** ****** ******
      ****** ****** ****** ****** ****** ****** ****** ****** ****** ******
  14  ****** ****** ****** ****** ****** ****** ****** ****** ****** ******
      ****** ****** ****** ****** ****** ****** ****** ****** ****** ******
      ****** ****** ****** ****** ****** ****** ****** ****** ****** ******
  15  ****** ****** ****** ****** ****** ****** ****** ****** ****** ******
      ****** ****** ****** ****** ****** ****** ****** ****** ****** ******
      ****** ****** ****** ****** ****** ****** ****** ****** ****** ******
  16  ****** ****** ****** ****** ****** ****** ****** ****** ****** ******
      ****** ****** ****** ****** ****** ****** ****** ****** ****** ******
      ****** ****** ****** ****** ****** ****** ****** ****** ****** ******
  17  ****** ****** ****** ****** ****** ****** ****** ****** ****** ******
      ****** ****** ****** ****** ****** ****** ****** ****** ****** ******
      ****** ****** ****** ****** ****** ****** ****** ****** ****** ******
  18  ****** ****** ****** ****** ****** ****** ****** ****** ****** ******
      ****** ****** ****** ****** ****** ****** ****** ****** ****** ******
      ****** ****** ****** ****** ****** ****** ****** ****** ****** ******
  19  ****** ****** ****** ****** ****** ****** ****** ****** ****** ******
      ****** ****** ****** ****** ****** ****** ****** ****** ****** ******
      ****** ****** ****** ****** ****** ****** ****** ****** ****** ******
  20  ****** ****** ****** ****** ****** ****** ****** ****** ****** ******
      ****** ****** ****** ****** ****** ****** ****** ****** ****** ******
      ****** ****** ****** ****** ****** ****** ****** ****** ****** ******
  21  ****** ****** ****** ****** ****** ****** ****** ****** ****** ******
      ****** ****** ****** ****** ****** ****** ****** ****** ****** ******
      ****** ****** ****** ****** ****** ****** ****** ****** ****** ******
  22  ****** ****** ****** ****** ****** ****** ****** ****** ****** ******
      ****** ****** ****** ****** ****** ****** ****** ****** ****** ******
      ****** ****** ****** ****** ****** ****** ****** ****** ****** ******
  23  ****** ****** ****** ****** ****** ****** ****** ****** ****** ******
      ****** ****** ****** ****** ****** ****** ****** ****** ****** ******
      ****** ****** ****** ****** ****** ****** ****** ****** ****** ******
  24  ****** ****** ****** ****** ****** ****** ****** ****** ****** ******
      ****** ****** ****** ****** ****** ****** ****** ****** ****** ******
      ****** ****** ****** ****** ****** ****** ****** ****** ****** ******
  25  ****** ****** ****** ****** ****** ****** ****** ****** ****** ******
      ****** ****** ****** ****** ****** ****** ****** ****** ****** ******
      ****** ****** ****** ****** ****** ****** ****** ****** ****** ******

 HEAD WILL BE SAVED ON UNIT   51 AT END OF TIME STEP    1, STRESS PERIOD    8
1
  VOLUMETRIC BUDGET FOR ENTIRE MODEL AT END OF TIME STEP    1, STRESS PERIOD   8
  ------------------------------------------------------------------------------

     CUMULATIVE VOLUMES      L**3       RATES FOR THIS TIME STEP      L**3/T
     ------------------                 ------------------------

           IN:                                      IN:
           ---                                      ---
             STORAGE =    25236601.0762               STORAGE =           0.0000
       CONSTANT HEAD =    99349507.6345         CONSTANT HEAD =      145930.1714
               WELLS =           0.0000                 WELLS =           0.0000
            RECHARGE =    17608800.0000              RECHARGE =       27600.0000
      STREAM LEAKAGE =     8769747.9760        STREAM LEAKAGE =       13576.9553

            TOTAL IN =   150964656.6867              TOTAL IN =      187107.1267

          OUT:                                     OUT:
          ----                                     ----
             STORAGE =     1269502.1175               STORAGE =        3631.0862
       CONSTANT HEAD =           0.0000         CONSTANT HEAD =           0.0000
               WELLS =    55734084.4840                 WELLS =       76348.0609
            RECHARGE =           0.0000              RECHARGE =           0.0000
      STREAM LEAKAGE =    93961070.7734        STREAM LEAKAGE =      107127.9787

           TOTAL OUT =   150964657.3749             TOTAL OUT =      187107.1259

            IN - OUT =          -0.6882              IN - OUT =       8.2502E-04

 PERCENT DISCREPANCY =          -0.00     PERCENT DISCREPANCY =           0.00






         TIME SUMMARY AT END OF TIME STEP    1 IN STRESS PERIOD    8
                    SECONDS     MINUTES      HOURS       DAYS        YEARS
                    -----------------------------------------------------------
   TIME STEP LENGTH 7.86240E+06 1.31040E+05  2184.0      91.000     0.24914    
 STRESS PERIOD TIME 7.86240E+06 1.31040E+05  2184.0      91.000     0.24914    
         TOTAL TIME 6.30720E+07 1.05120E+06  17520.      730.00      1.9986    
1
1
                            STRESS PERIOD NO.    9, LENGTH =   92.00000    
                            -----------------------------------------------

                              NUMBER OF TIME STEPS =     1

                               MULTIPLIER FOR DELT =     1.500

                            INITIAL TIME STEP SIZE =   92.00000    

 WELL NO.  LAYER   ROW   COL   STRESS RATE         
 --------------------------------------------------
      1      1     21     23     -0.1821E+05
      2      1     20     24     -0.1241E+05
      3      1     19     20     -0.2882E+05
      4      1     19     24     -0.1691E+05

      4 WELLS

                 RECHARGE =  5.000000E-04

 REUSING STREAM SEGMENT DATA FROM LAST STRESS PERIOD
 
 SOLVING FOR HEAD 


     6 CALLS TO PCG ROUTINE FOR TIME STEP   1 IN STRESS PERIOD    9
    22 TOTAL ITERATIONS

 OUTPUT CONTROL FOR STRESS PERIOD    9   TIME STEP    1
    SAVE BUDGET
    SAVE HEAD FOR ALL LAYERS
    PRINT HEAD FOR ALL LAYERS
 UBDSV2 SAVING "STREAMFLOW OUT  " ON UNIT  50 AT TIME STEP  1, STRESS PERIOD   9



 STREAM LISTING     PERIOD      9   STEP        1

 LAYER ROW COL. STREAM  RCH.  FLOW INTO     FLOW TO   FLOW OUT OF   OVRLND.     DIRECT     STREAM       STREAM     STREAM     STREAM   STREAMBED  STREAMBED
                SEG.NO.  NO.  STRM. RCH.    AQUIFER    STRM. RCH.    RUNOFF     PRECIP       ET          HEAD       DEPTH      WIDTH   CONDCTNC.   GRADIENT

   1   13    1     1     1    1.0000E+05 -2.7483E+03   1.0275E+05  0.000E+00  0.000E+00  0.000E+00  4.84072E+01  1.458E-01  2.000E+01  2.000E+04 -1.374E-01
   1   13    2     1     2    1.0275E+05 -4.6454E+03   1.0739E+05  0.000E+00  0.000E+00  0.000E+00  4.79331E+01  1.490E-01  2.000E+01  2.000E+04 -2.323E-01
   1   14    3     1     3    1.0739E+05 -3.7028E+03   1.1110E+05  0.000E+00  0.000E+00  0.000E+00  4.74594E+01  1.525E-01  2.000E+01  2.000E+04 -1.851E-01
   1   15    4     1     4    1.1110E+05 -3.6020E+03   1.1470E+05  0.000E+00  0.000E+00  0.000E+00  4.69851E+01  1.556E-01  2.000E+01  2.000E+04 -1.801E-01
   1   16    5     1     5    1.1470E+05 -3.9175E+03   1.1862E+05  0.000E+00  0.000E+00  0.000E+00  4.65109E+01  1.587E-01  2.000E+01  2.000E+04 -1.959E-01
   1   16    6     1     6    1.1862E+05 -3.0871E+03   1.2170E+05  0.000E+00  0.000E+00  0.000E+00  4.60365E+01  1.615E-01  2.000E+01  2.000E+04 -1.544E-01
   1   16    7     1     7    1.2170E+05 -3.1345E+03   1.2484E+05  0.000E+00  0.000E+00  0.000E+00  4.55617E+01  1.640E-01  2.000E+01  2.000E+04 -1.567E-01
   1   16    8     1     8    1.2484E+05 -3.1430E+03   1.2798E+05  0.000E+00  0.000E+00  0.000E+00  4.50869E+01  1.665E-01  2.000E+01  2.000E+04 -1.572E-01
   1   16    9     1     9    1.2798E+05 -3.0943E+03   1.3107E+05  0.000E+00  0.000E+00  0.000E+00  4.46121E+01  1.689E-01  2.000E+01  2.000E+04 -1.547E-01
   1   16   10     1    10    1.3107E+05 -2.9805E+03   1.3406E+05  0.000E+00  0.000E+00  0.000E+00  4.41372E+01  1.713E-01  2.000E+01  2.000E+04 -1.490E-01
   1   16   11     1    11    1.3406E+05 -2.7927E+03   1.3685E+05  0.000E+00  0.000E+00  0.000E+00  4.36622E+01  1.735E-01  2.000E+01  2.000E+04 -1.396E-01
   1   16   12     1    12    1.3685E+05 -3.0554E+03   1.3990E+05  0.000E+00  0.000E+00  0.000E+00  4.31871E+01  1.758E-01  2.000E+01  2.000E+04 -1.528E-01
   1   15   13     1    13    1.3990E+05 -2.6910E+03   1.4259E+05  0.000E+00  0.000E+00  0.000E+00  4.27120E+01  1.780E-01  2.000E+01  2.000E+04 -1.346E-01
   1   14   14     1    14    1.4259E+05 -2.7369E+03   1.4533E+05  0.000E+00  0.000E+00  0.000E+00  4.22368E+01  1.800E-01  2.000E+01  2.000E+04 -1.368E-01
   1   13   15     1    15    1.4533E+05 -3.1943E+03   1.4853E+05  0.000E+00  0.000E+00  0.000E+00  4.17618E+01  1.822E-01  2.000E+01  2.000E+04 -1.597E-01
   1   12   16     1    16    1.4853E+05 -4.9027E+03   1.5343E+05  0.000E+00  0.000E+00  0.000E+00  4.12875E+01  1.852E-01  2.000E+01  2.000E+04 -2.451E-01
   1   12   17     1    17    1.5343E+05 -2.8739E+03   1.5630E+05  0.000E+00  0.000E+00  0.000E+00  4.08131E+01  1.881E-01  2.000E+01  2.000E+04 -1.437E-01
   1   12   18     1    18    1.5630E+05 -2.6642E+03   1.5897E+05  0.000E+00  0.000E+00  0.000E+00  4.03378E+01  1.901E-01  2.000E+01  2.000E+04 -1.332E-01
   1   12   19     1    19    1.5897E+05 -3.8120E+03   1.6278E+05  0.000E+00  0.000E+00  0.000E+00  3.98629E+01  1.924E-01  2.000E+01  2.000E+04 -1.906E-01
   1   13   20     1    20    1.6278E+05 -1.1703E+03   1.6395E+05  0.000E+00  0.000E+00  0.000E+00  3.93874E+01  1.942E-01  2.000E+01  2.000E+04 -5.851E-02
   1   14   21     1    21    1.6395E+05  1.3619E+03   1.6259E+05  0.000E+00  0.000E+00  0.000E+00  3.89100E+01  1.941E-01  2.000E+01  2.000E+04  6.809E-02
   1   14   22     1    22    1.6259E+05  5.6517E+03   1.5694E+05  0.000E+00  0.000E+00  0.000E+00  3.84302E+01  1.916E-01  2.000E+01  2.000E+04  2.826E-01
   1    9   30     2     1    5.0000E+04 -2.6744E+03   5.2674E+04  0.000E+00  0.000E+00  0.000E+00  4.02427E+01  1.177E-01  2.000E+01  2.000E+04 -1.337E-01
   1    9   29     2     2    5.2674E+04 -3.0072E+03   5.5682E+04  0.000E+00  0.000E+00  0.000E+00  3.99966E+01  1.216E-01  2.000E+01  2.000E+04 -1.504E-01
   1    9   28     2     3    5.5682E+04 -3.3889E+03   5.9070E+04  0.000E+00  0.000E+00  0.000E+00  3.97508E+01  1.258E-01  2.000E+01  2.000E+04 -1.694E-01
   1    9   27     2     4    5.9070E+04 -6.0858E+03   6.5156E+04  0.000E+00  0.000E+00  0.000E+00  3.95070E+01  1.320E-01  2.000E+01  2.000E+04 -3.043E-01
   1   10   26     2     5    6.5156E+04 -3.7055E+03   6.8862E+04  0.000E+00  0.000E+00  0.000E+00  3.92631E+01  1.381E-01  2.000E+01  2.000E+04 -1.853E-01
   1   11   25     2     6    6.8862E+04 -2.6597E+03   7.1522E+04  0.000E+00  0.000E+00  0.000E+00  3.90170E+01  1.420E-01  2.000E+01  2.000E+04 -1.330E-01
   1   12   24     2     7    7.1522E+04 -1.8148E+03   7.3336E+04  0.000E+00  0.000E+00  0.000E+00  3.87697E+01  1.447E-01  2.000E+01  2.000E+04 -9.074E-02
   1   13   23     2     8    7.3336E+04 -9.7380E+02   7.4310E+04  0.000E+00  0.000E+00  0.000E+00  3.85214E+01  1.464E-01  2.000E+01  2.000E+04 -4.869E-02
   1   14   22     2     9    7.4310E+04  2.4568E+03   7.1853E+04  0.000E+00  0.000E+00  0.000E+00  3.82705E+01  1.455E-01  2.000E+01  2.000E+04  1.228E-01
   1   14   22     3     1    2.2879E+05 -7.8570E+03   2.3665E+05  0.000E+00  0.000E+00  0.000E+00  3.77548E+01  1.992E-01  2.000E+01  2.000E+04 -3.929E-01
   1   15   23     3     2    2.3665E+05  2.5671E+03   2.3408E+05  0.000E+00  0.000E+00  0.000E+00  3.68673E+01  2.006E-01  2.000E+01  2.000E+04  1.284E-01
   1   15   24     3     3    2.3408E+05  1.3206E+03   2.3276E+05  0.000E+00  0.000E+00  0.000E+00  3.59774E+01  1.996E-01  2.000E+01  2.000E+04  6.603E-02
   1   15   25     3     4    2.3276E+05  6.6434E+02   2.3209E+05  0.000E+00  0.000E+00  0.000E+00  3.50880E+01  1.991E-01  2.000E+01  2.000E+04  3.322E-02
   1   15   26     3     5    2.3209E+05 -6.2075E+02   2.3271E+05  0.000E+00  0.000E+00  0.000E+00  3.41991E+01  1.991E-01  2.000E+01  2.000E+04 -3.104E-02
   1   16   27     3     6    2.3271E+05  1.4033E+02   2.3257E+05  0.000E+00  0.000E+00  0.000E+00  3.33103E+01  1.992E-01  2.000E+01  2.000E+04  7.016E-03
   1   17   28     3     7    2.3257E+05 -5.8190E+02   2.3316E+05  0.000E+00  0.000E+00  0.000E+00  3.24215E+01  1.993E-01  2.000E+01  2.000E+04 -2.909E-02
   1   18   29     3     8    2.3316E+05 -2.4011E+03   2.3556E+05  0.000E+00  0.000E+00  0.000E+00  3.15334E+01  2.001E-01  2.000E+01  2.000E+04 -1.201E-01
   1   18   30     3     9    2.3556E+05 -3.4057E+03   2.3896E+05  0.000E+00  0.000E+00  0.000E+00  3.06460E+01  2.016E-01  2.000E+01  2.000E+04 -1.703E-01



1
              HEAD IN LAYER   1 AT END OF TIME STEP   1 IN STRESS PERIOD    9
  ---------------------------------------------------------------------------

          1      2      3      4      5      6      7      8      9     10
         11     12     13     14     15     16     17     18     19     20
         21     22     23     24     25     26     27     28     29     30
 .........................................................................
   1  ****** ****** ****** ****** ****** ****** ****** ****** ****** ******
      ****** ****** ****** ****** ****** ****** ****** ****** ****** ******
      ****** ****** ****** ****** ****** ****** ****** ****** ****** ******
   2  ****** ****** ****** ****** ****** ****** ****** ****** ****** ******
      ****** ****** ****** ****** ****** ****** ****** ****** ****** ******
      ****** ****** ****** ****** ****** ****** ****** ****** ****** ******
   3  ****** ****** ****** ****** ****** ****** ****** ****** ****** ******
      ****** ****** ****** ****** ****** ****** ****** ****** ****** ******
      ****** ****** ****** ****** ****** ****** ****** ****** ****** ******
   4  ****** ****** ****** ****** ****** ****** ****** ****** ****** ******
      ****** ****** ****** ****** ****** ****** ****** ****** ****** ******
      ****** ****** ****** ****** ****** ****** ****** ****** ****** ******
   5  ****** ****** ****** ****** ****** ****** ****** ****** ****** ******
      ****** ****** ****** ****** ****** ****** ****** ****** ****** ******
      ****** ****** ****** ****** ****** ****** ****** ****** ****** ******
   6  ****** ****** ****** ****** ****** ****** ****** ****** ****** ******
      ****** ****** ****** ****** ****** ****** ****** ****** ****** ******
      ****** ****** ****** ****** ****** ****** ****** ****** ****** ******
   7  ****** ****** ****** ****** ****** ****** ****** ****** ****** ******
      ****** ****** ****** ****** ****** ****** ****** ****** ****** ******
      ****** ****** ****** ****** ****** ****** ****** ****** ****** ******
   8  ****** ****** ****** ****** ****** ****** ****** ****** ****** ******
      ****** ****** ****** ****** ****** ****** ****** ****** ****** ******
      ****** ****** ****** ****** ****** ****** ****** ****** ****** ******
   9  ****** ****** ****** ****** ****** ****** ****** ****** ****** ******
      ****** ****** ****** ****** ****** ****** ****** ****** ****** ******
      ****** ****** ****** ****** ****** ****** ****** ****** ****** ******
  10  ****** ****** ****** ****** ****** ****** ****** ****** ****** ******
      ****** ****** ****** ****** ****** ****** ****** ****** ****** ******
      ****** ****** ****** ****** ****** ****** ****** ****** ****** ******
  11  ****** ****** ****** ****** ****** ****** ****** ****** ****** ******
      ****** ****** ****** ****** ****** ****** ****** ****** ****** ******
      ****** ****** ****** ****** ****** ****** ****** ****** ****** ******
  12  ****** ****** ****** ****** ****** ****** ****** ****** ****** ******
      ****** ****** ****** ****** ****** ****** ****** ****** ****** ******
      ****** ****** ****** ****** ****** ****** ****** ****** ****** ******
  13  ****** ****** ****** ****** ****** ****** ****** ****** ****** ******
      ****** ****** ****** ****** ****** ****** ****** ****** ****** ******
      ****** ****** ****** ****** ****** ****** ****** ****** ****** ******
  14  ****** ****** ****** ****** ****** ****** ****** ****** ****** ******
      ****** ****** ****** ****** ****** ****** ****** ****** ****** ******
      ****** ****** ****** ****** ****** ****** ****** ****** ****** ******
  15  ****** ****** ****** ****** ****** ****** ****** ****** ****** ******
      ****** ****** ****** ****** ****** ****** ****** ****** ****** ******
      ****** ****** ****** ****** ****** ****** ****** ****** ****** ******
  16  ****** ****** ****** ****** ****** ****** ****** ****** ****** ******
      ****** ****** ****** ****** ****** ****** ****** ****** ****** ******
      ****** ****** ****** ****** ****** ****** ****** ****** ****** ******
  17  ****** ****** ****** ****** ****** ****** ****** ****** ****** ******
      ****** ****** ****** ****** ****** ****** ****** ****** ****** ******
      ****** ****** ****** ****** ****** ****** ****** ****** ****** ******
  18  ****** ****** ****** ****** ****** ****** ****** ****** ****** ******
      ****** ****** ****** ****** ****** ****** ****** ****** ****** ******
      ****** ****** ****** ****** ****** ****** ****** ****** ****** ******
  19  ****** ****** ****** ****** ****** ****** ****** ****** ****** ******
      ****** ****** ****** ****** ****** ****** ****** ****** ****** ******
      ****** ****** ****** ****** ****** ****** ****** ****** ****** ******
  20  ****** ****** ****** ****** ****** ****** ****** ****** ****** ******
      ****** ****** ****** ****** ****** ****** ****** ****** ****** ******
      ****** ****** ****** ****** ****** ****** ****** ****** ****** ******
  21  ****** ****** ****** ****** ****** ****** ****** ****** ****** ******
      ****** ****** ****** ****** ****** ****** ****** ****** ****** ******
      ****** ****** ****** ****** ****** ****** ****** ****** ****** ******
  22  ****** ****** ****** ****** ****** ****** ****** ****** ****** ******
      ****** ****** ****** ****** ****** ****** ****** ****** ****** ******
      ****** ****** ****** ****** ****** ****** ****** ****** ****** ******
  23  ****** ****** ****** ****** ****** ****** ****** ****** ****** ******
      ****** ****** ****** ****** ****** ****** ****** ****** ****** ******
      ****** ****** ****** ****** ****** ****** ****** ****** ****** ******
  24  ****** ****** ****** ****** ****** ****** ****** ****** ****** ******
      ****** ****** ****** ****** ****** ****** ****** ****** ****** ******
      ****** ****** ****** ****** ****** ****** ****** ****** ****** ******
  25  ****** ****** ****** ****** ****** ****** ****** ****** ****** ******
      ****** ****** ****** ****** ****** ****** ****** ****** ****** ******
      ****** ****** ****** ****** ****** ****** ****** ****** ****** ******

 HEAD WILL BE SAVED ON UNIT   51 AT END OF TIME STEP    1, STRESS PERIOD    9
1
  VOLUMETRIC BUDGET FOR ENTIRE MODEL AT END OF TIME STEP    1, STRESS PERIOD   9
  ------------------------------------------------------------------------------

     CUMULATIVE VOLUMES      L**3       RATES FOR THIS TIME STEP      L**3/T
     ------------------                 ------------------------

           IN:                                      IN:
           ---                                      ---
             STORAGE =    25483287.3907               STORAGE =        2681.3730
       CONSTANT HEAD =   113041803.1361         CONSTANT HEAD =      148829.2989
               WELLS =           0.0000                 WELLS =           0.0000
            RECHARGE =    18878400.0000              RECHARGE =       13800.0000
      STREAM LEAKAGE =    10072725.7962        STREAM LEAKAGE =       14162.8024

            TOTAL IN =   167476216.3231              TOTAL IN =      179473.4743

          OUT:                                     OUT:
          ----                                     ----
             STORAGE =     1269502.1175               STORAGE =           0.0000
       CONSTANT HEAD =           0.0000         CONSTANT HEAD =           0.0000
               WELLS =    62758106.0902                 WELLS =       76348.0609
            RECHARGE =           0.0000              RECHARGE =           0.0000
      STREAM LEAKAGE =   103448609.0868        STREAM LEAKAGE =      103125.4164

           TOTAL OUT =   167476217.2945             TOTAL OUT =      179473.4774

            IN - OUT =          -0.9714              IN - OUT =      -3.0780E-03

 PERCENT DISCREPANCY =          -0.00     PERCENT DISCREPANCY =          -0.00






         TIME SUMMARY AT END OF TIME STEP    1 IN STRESS PERIOD    9
                    SECONDS     MINUTES      HOURS       DAYS        YEARS
                    -----------------------------------------------------------
   TIME STEP LENGTH 7.94880E+06 1.32480E+05  2208.0      92.000     0.25188    
 STRESS PERIOD TIME 7.94880E+06 1.32480E+05  2208.0      92.000     0.25188    
         TOTAL TIME 7.10208E+07 1.18368E+06  19728.      822.00      2.2505    
1
1
                            STRESS PERIOD NO.   10, LENGTH =   91.00000    
                            -----------------------------------------------

                              NUMBER OF TIME STEPS =     1

                               MULTIPLIER FOR DELT =     1.500

                            INITIAL TIME STEP SIZE =   91.00000    

 WELL NO.  LAYER   ROW   COL   STRESS RATE         
 --------------------------------------------------
      1      1     21     23     -0.1821E+05
      2      1     20     24     -0.1241E+05
      3      1     19     20     -0.2882E+05
      4      1     19     24     -0.1691E+05

      4 WELLS

                 RECHARGE =  2.000000E-03

 REUSING STREAM SEGMENT DATA FROM LAST STRESS PERIOD
 
 SOLVING FOR HEAD 


     7 CALLS TO PCG ROUTINE FOR TIME STEP   1 IN STRESS PERIOD   10
    26 TOTAL ITERATIONS

 OUTPUT CONTROL FOR STRESS PERIOD   10   TIME STEP    1
    SAVE BUDGET
    SAVE HEAD FOR ALL LAYERS
    PRINT HEAD FOR ALL LAYERS
 UBDSV2 SAVING "STREAMFLOW OUT  " ON UNIT  50 AT TIME STEP  1, STRESS PERIOD  10



 STREAM LISTING     PERIOD     10   STEP        1

 LAYER ROW COL. STREAM  RCH.  FLOW INTO     FLOW TO   FLOW OUT OF   OVRLND.     DIRECT     STREAM       STREAM     STREAM     STREAM   STREAMBED  STREAMBED
                SEG.NO.  NO.  STRM. RCH.    AQUIFER    STRM. RCH.    RUNOFF     PRECIP       ET          HEAD       DEPTH      WIDTH   CONDCTNC.   GRADIENT

   1   13    1     1     1    1.0000E+05 -3.1715E+03   1.0317E+05  0.000E+00  0.000E+00  0.000E+00  4.84074E+01  1.460E-01  2.000E+01  2.000E+04 -1.586E-01
   1   13    2     1     2    1.0317E+05 -5.2076E+03   1.0838E+05  0.000E+00  0.000E+00  0.000E+00  4.79337E+01  1.496E-01  2.000E+01  2.000E+04 -2.604E-01
   1   14    3     1     3    1.0838E+05 -4.2696E+03   1.1265E+05  0.000E+00  0.000E+00  0.000E+00  4.74604E+01  1.536E-01  2.000E+01  2.000E+04 -2.135E-01
   1   15    4     1     4    1.1265E+05 -4.1617E+03   1.1681E+05  0.000E+00  0.000E+00  0.000E+00  4.69866E+01  1.571E-01  2.000E+01  2.000E+04 -2.081E-01
   1   16    5     1     5    1.1681E+05 -4.4326E+03   1.2124E+05  0.000E+00  0.000E+00  0.000E+00  4.65129E+01  1.606E-01  2.000E+01  2.000E+04 -2.216E-01
   1   16    6     1     6    1.2124E+05 -3.4946E+03   1.2474E+05  0.000E+00  0.000E+00  0.000E+00  4.60388E+01  1.638E-01  2.000E+01  2.000E+04 -1.747E-01
   1   16    7     1     7    1.2474E+05 -3.5487E+03   1.2829E+05  0.000E+00  0.000E+00  0.000E+00  4.55643E+01  1.666E-01  2.000E+01  2.000E+04 -1.774E-01
   1   16    8     1     8    1.2829E+05 -3.5611E+03   1.3185E+05  0.000E+00  0.000E+00  0.000E+00  4.50898E+01  1.694E-01  2.000E+01  2.000E+04 -1.781E-01
   1   16    9     1     9    1.3185E+05 -3.5122E+03   1.3536E+05  0.000E+00  0.000E+00  0.000E+00  4.46153E+01  1.721E-01  2.000E+01  2.000E+04 -1.756E-01
   1   16   10     1    10    1.3536E+05 -3.3945E+03   1.3875E+05  0.000E+00  0.000E+00  0.000E+00  4.41407E+01  1.748E-01  2.000E+01  2.000E+04 -1.697E-01
   1   16   11     1    11    1.3875E+05 -3.2009E+03   1.4195E+05  0.000E+00  0.000E+00  0.000E+00  4.36659E+01  1.773E-01  2.000E+01  2.000E+04 -1.600E-01
   1   16   12     1    12    1.4195E+05 -3.5801E+03   1.4554E+05  0.000E+00  0.000E+00  0.000E+00  4.31912E+01  1.798E-01  2.000E+01  2.000E+04 -1.790E-01
   1   15   13     1    13    1.4554E+05 -3.2631E+03   1.4880E+05  0.000E+00  0.000E+00  0.000E+00  4.27165E+01  1.824E-01  2.000E+01  2.000E+04 -1.632E-01
   1   14   14     1    14    1.4880E+05 -3.3204E+03   1.5212E+05  0.000E+00  0.000E+00  0.000E+00  4.22416E+01  1.848E-01  2.000E+01  2.000E+04 -1.660E-01
   1   13   15     1    15    1.5212E+05 -3.7689E+03   1.5589E+05  0.000E+00  0.000E+00  0.000E+00  4.17670E+01  1.874E-01  2.000E+01  2.000E+04 -1.884E-01
   1   12   16     1    16    1.5589E+05 -5.4550E+03   1.6134E+05  0.000E+00  0.000E+00  0.000E+00  4.12931E+01  1.908E-01  2.000E+01  2.000E+04 -2.728E-01
   1   12   17     1    17    1.6134E+05 -3.2822E+03   1.6462E+05  0.000E+00  0.000E+00  0.000E+00  4.08189E+01  1.939E-01  2.000E+01  2.000E+04 -1.641E-01
   1   12   18     1    18    1.6462E+05 -3.0646E+03   1.6769E+05  0.000E+00  0.000E+00  0.000E+00  4.03439E+01  1.962E-01  2.000E+01  2.000E+04 -1.532E-01
   1   12   19     1    19    1.6769E+05 -4.2996E+03   1.7199E+05  0.000E+00  0.000E+00  0.000E+00  3.98692E+01  1.988E-01  2.000E+01  2.000E+04 -2.150E-01
   1   13   20     1    20    1.7199E+05 -1.6431E+03   1.7363E+05  0.000E+00  0.000E+00  0.000E+00  3.93940E+01  2.008E-01  2.000E+01  2.000E+04 -8.215E-02
   1   14   21     1    21    1.7363E+05  9.2650E+02   1.7271E+05  0.000E+00  0.000E+00  0.000E+00  3.89170E+01  2.011E-01  2.000E+01  2.000E+04  4.632E-02
   1   14   22     1    22    1.7271E+05  5.5718E+03   1.6713E+05  0.000E+00  0.000E+00  0.000E+00  3.84375E+01  1.988E-01  2.000E+01  2.000E+04  2.786E-01
   1    9   30     2     1    5.0000E+04 -3.0357E+03   5.3036E+04  0.000E+00  0.000E+00  0.000E+00  4.02430E+01  1.180E-01  2.000E+01  2.000E+04 -1.518E-01
   1    9   29     2     2    5.3036E+04 -3.3658E+03   5.6402E+04  0.000E+00  0.000E+00  0.000E+00  3.99973E+01  1.223E-01  2.000E+01  2.000E+04 -1.683E-01
   1    9   28     2     3    5.6402E+04 -3.7460E+03   6.0148E+04  0.000E+00  0.000E+00  0.000E+00  3.97520E+01  1.270E-01  2.000E+01  2.000E+04 -1.873E-01
   1    9   27     2     4    6.0148E+04 -6.5655E+03   6.6713E+04  0.000E+00  0.000E+00  0.000E+00  3.95086E+01  1.336E-01  2.000E+01  2.000E+04 -3.283E-01
   1   10   26     2     5    6.6713E+04 -4.2009E+03   7.0914E+04  0.000E+00  0.000E+00  0.000E+00  3.92653E+01  1.403E-01  2.000E+01  2.000E+04 -2.100E-01
   1   11   25     2     6    7.0914E+04 -3.1337E+03   7.4047E+04  0.000E+00  0.000E+00  0.000E+00  3.90198E+01  1.448E-01  2.000E+01  2.000E+04 -1.567E-01
   1   12   24     2     7    7.4047E+04 -2.2337E+03   7.6281E+04  0.000E+00  0.000E+00  0.000E+00  3.87730E+01  1.480E-01  2.000E+01  2.000E+04 -1.117E-01
   1   13   23     2     8    7.6281E+04 -1.3001E+03   7.7581E+04  0.000E+00  0.000E+00  0.000E+00  3.85250E+01  1.500E-01  2.000E+01  2.000E+04 -6.501E-02
   1   14   22     2     9    7.7581E+04  2.3117E+03   7.5270E+04  0.000E+00  0.000E+00  0.000E+00  3.82745E+01  1.495E-01  2.000E+01  2.000E+04  1.156E-01
   1   14   22     3     1    2.4240E+05 -7.9426E+03   2.5035E+05  0.000E+00  0.000E+00  0.000E+00  3.77617E+01  2.062E-01  2.000E+01  2.000E+04 -3.971E-01
   1   15   23     3     2    2.5035E+05  2.1609E+03   2.4819E+05  0.000E+00  0.000E+00  0.000E+00  3.68743E+01  2.076E-01  2.000E+01  2.000E+04  1.080E-01
   1   15   24     3     3    2.4819E+05  1.0285E+03   2.4716E+05  0.000E+00  0.000E+00  0.000E+00  3.59846E+01  2.068E-01  2.000E+01  2.000E+04  5.143E-02
   1   15   25     3     4    2.4716E+05  3.7250E+02   2.4678E+05  0.000E+00  0.000E+00  0.000E+00  3.50954E+01  2.065E-01  2.000E+01  2.000E+04  1.862E-02
   1   15   26     3     5    2.4678E+05 -9.9534E+02   2.4778E+05  0.000E+00  0.000E+00  0.000E+00  3.42066E+01  2.066E-01  2.000E+01  2.000E+04 -4.977E-02
   1   16   27     3     6    2.4778E+05 -3.3122E+02   2.4811E+05  0.000E+00  0.000E+00  0.000E+00  3.33181E+01  2.070E-01  2.000E+01  2.000E+04 -1.656E-02
   1   17   28     3     7    2.4811E+05 -1.0636E+03   2.4917E+05  0.000E+00  0.000E+00  0.000E+00  3.24295E+01  2.073E-01  2.000E+01  2.000E+04 -5.318E-02
   1   18   29     3     8    2.4917E+05 -2.8539E+03   2.5203E+05  0.000E+00  0.000E+00  0.000E+00  3.15416E+01  2.083E-01  2.000E+01  2.000E+04 -1.427E-01
   1   18   30     3     9    2.5203E+05 -3.7460E+03   2.5577E+05  0.000E+00  0.000E+00  0.000E+00  3.06544E+01  2.099E-01  2.000E+01  2.000E+04 -1.873E-01



1
              HEAD IN LAYER   1 AT END OF TIME STEP   1 IN STRESS PERIOD   10
  ---------------------------------------------------------------------------

          1      2      3      4      5      6      7      8      9     10
         11     12     13     14     15     16     17     18     19     20
         21     22     23     24     25     26     27     28     29     30
 .........................................................................
   1  ****** ****** ****** ****** ****** ****** ****** ****** ****** ******
      ****** ****** ****** ****** ****** ****** ****** ****** ****** ******
      ****** ****** ****** ****** ****** ****** ****** ****** ****** ******
   2  ****** ****** ****** ****** ****** ****** ****** ****** ****** ******
      ****** ****** ****** ****** ****** ****** ****** ****** ****** ******
      ****** ****** ****** ****** ****** ****** ****** ****** ****** ******
   3  ****** ****** ****** ****** ****** ****** ****** ****** ****** ******
      ****** ****** ****** ****** ****** ****** ****** ****** ****** ******
      ****** ****** ****** ****** ****** ****** ****** ****** ****** ******
   4  ****** ****** ****** ****** ****** ****** ****** ****** ****** ******
      ****** ****** ****** ****** ****** ****** ****** ****** ****** ******
      ****** ****** ****** ****** ****** ****** ****** ****** ****** ******
   5  ****** ****** ****** ****** ****** ****** ****** ****** ****** ******
      ****** ****** ****** ****** ****** ****** ****** ****** ****** ******
      ****** ****** ****** ****** ****** ****** ****** ****** ****** ******
   6  ****** ****** ****** ****** ****** ****** ****** ****** ****** ******
      ****** ****** ****** ****** ****** ****** ****** ****** ****** ******
      ****** ****** ****** ****** ****** ****** ****** ****** ****** ******
   7  ****** ****** ****** ****** ****** ****** ****** ****** ****** ******
      ****** ****** ****** ****** ****** ****** ****** ****** ****** ******
      ****** ****** ****** ****** ****** ****** ****** ****** ****** ******
   8  ****** ****** ****** ****** ****** ****** ****** ****** ****** ******
      ****** ****** ****** ****** ****** ****** ****** ****** ****** ******
      ****** ****** ****** ****** ****** ****** ****** ****** ****** ******
   9  ****** ****** ****** ****** ****** ****** ****** ****** ****** ******
      ****** ****** ****** ****** ****** ****** ****** ****** ****** ******
      ****** ****** ****** ****** ****** ****** ****** ****** ****** ******
  10  ****** ****** ****** ****** ****** ****** ****** ****** ****** ******
      ****** ****** ****** ****** ****** ****** ****** ****** ****** ******
      ****** ****** ****** ****** ****** ****** ****** ****** ****** ******
  11  ****** ****** ****** ****** ****** ****** ****** ****** ****** ******
      ****** ****** ****** ****** ****** ****** ****** ****** ****** ******
      ****** ****** ****** ****** ****** ****** ****** ****** ****** ******
  12  ****** ****** ****** ****** ****** ****** ****** ****** ****** ******
      ****** ****** ****** ****** ****** ****** ****** ****** ****** ******
      ****** ****** ****** ****** ****** ****** ****** ****** ****** ******
  13  ****** ****** ****** ****** ****** ****** ****** ****** ****** ******
      ****** ****** ****** ****** ****** ****** ****** ****** ****** ******
      ****** ****** ****** ****** ****** ****** ****** ****** ****** ******
  14  ****** ****** ****** ****** ****** ****** ****** ****** ****** ******
      ****** ****** ****** ****** ****** ****** ****** ****** ****** ******
      ****** ****** ****** ****** ****** ****** ****** ****** ****** ******
  15  ****** ****** ****** ****** ****** ****** ****** ****** ****** ******
      ****** ****** ****** ****** ****** ****** ****** ****** ****** ******
      ****** ****** ****** ****** ****** ****** ****** ****** ****** ******
  16  ****** ****** ****** ****** ****** ****** ****** ****** ****** ******
      ****** ****** ****** ****** ****** ****** ****** ****** ****** ******
      ****** ****** ****** ****** ****** ****** ****** ****** ****** ******
  17  ****** ****** ****** ****** ****** ****** ****** ****** ****** ******
      ****** ****** ****** ****** ****** ****** ****** ****** ****** ******
      ****** ****** ****** ****** ****** ****** ****** ****** ****** ******
  18  ****** ****** ****** ****** ****** ****** ****** ****** ****** ******
      ****** ****** ****** ****** ****** ****** ****** ****** ****** ******
      ****** ****** ****** ****** ****** ****** ****** ****** ****** ******
  19  ****** ****** ****** ****** ****** ****** ****** ****** ****** ******
      ****** ****** ****** ****** ****** ****** ****** ****** ****** ******
      ****** ****** ****** ****** ****** ****** ****** ****** ****** ******
  20  ****** ****** ****** ****** ****** ****** ****** ****** ****** ******
      ****** ****** ****** ****** ****** ****** ****** ****** ****** ******
      ****** ****** ****** ****** ****** ****** ****** ****** ****** ******
  21  ****** ****** ****** ****** ****** ****** ****** ****** ****** ******
      ****** ****** ****** ****** ****** ****** ****** ****** ****** ******
      ****** ****** ****** ****** ****** ****** ****** ****** ****** ******
  22  ****** ****** ****** ****** ****** ****** ****** ****** ****** ******
      ****** ****** ****** ****** ****** ****** ****** ****** ****** ******
      ****** ****** ****** ****** ****** ****** ****** ****** ****** ******
  23  ****** ****** ****** ****** ****** ****** ****** ****** ****** ******
      ****** ****** ****** ****** ****** ****** ****** ****** ****** ******
      ****** ****** ****** ****** ****** ****** ****** ****** ****** ******
  24  ****** ****** ****** ****** ****** ****** ****** ****** ****** ******
      ****** ****** ****** ****** ****** ****** ****** ****** ****** ******
      ****** ****** ****** ****** ****** ****** ****** ****** ****** ******
  25  ****** ****** ****** ****** ****** ****** ****** ****** ****** ******
      ****** ****** ****** ****** ****** ****** ****** ****** ****** ******
      ****** ****** ****** ****** ****** ****** ****** ****** ****** ******

 HEAD WILL BE SAVED ON UNIT   51 AT END OF TIME STEP    1, STRESS PERIOD   10
1
  VOLUMETRIC BUDGET FOR ENTIRE MODEL AT END OF TIME STEP    1, STRESS PERIOD  10
  ------------------------------------------------------------------------------

     CUMULATIVE VOLUMES      L**3       RATES FOR THIS TIME STEP      L**3/T
     ------------------                 ------------------------

           IN:                                      IN:
           ---                                      ---
             STORAGE =    25483287.3907               STORAGE =           0.0000
       CONSTANT HEAD =   125570739.7168         CONSTANT HEAD =      137680.6218
               WELLS =           0.0000                 WELLS =           0.0000
            RECHARGE =    23901600.0000              RECHARGE =       55200.0000
      STREAM LEAKAGE =    11198571.0891        STREAM LEAKAGE =       12371.9263

            TOTAL IN =   186154198.1966              TOTAL IN =      205252.5481

          OUT:                                     OUT:
          ----                                     ----
             STORAGE =     2248517.7007               STORAGE =       10758.4130
       CONSTANT HEAD =           0.0000         CONSTANT HEAD =           0.0000
               WELLS =    69705779.6354                 WELLS =       76348.0609
            RECHARGE =           0.0000              RECHARGE =           0.0000
      STREAM LEAKAGE =   114199901.6746        STREAM LEAKAGE =      118146.0724

           TOTAL OUT =   186154199.0107             TOTAL OUT =      205252.5463

            IN - OUT =          -0.8142              IN - OUT =       1.7280E-03

 PERCENT DISCREPANCY =          -0.00     PERCENT DISCREPANCY =           0.00






         TIME SUMMARY AT END OF TIME STEP    1 IN STRESS PERIOD   10
                    SECONDS     MINUTES      HOURS       DAYS        YEARS
                    -----------------------------------------------------------
   TIME STEP LENGTH 7.86240E+06 1.31040E+05  2184.0      91.000     0.24914    
 STRESS PERIOD TIME 7.86240E+06 1.31040E+05  2184.0      91.000     0.24914    
         TOTAL TIME 7.88832E+07 1.31472E+06  21912.      913.00      2.4997    
1
1
                            STRESS PERIOD NO.   11, LENGTH =   91.00000    
                            -----------------------------------------------

                              NUMBER OF TIME STEPS =     1

                               MULTIPLIER FOR DELT =     1.500

                            INITIAL TIME STEP SIZE =   91.00000    

 WELL NO.  LAYER   ROW   COL   STRESS RATE         
 --------------------------------------------------
      1      1     21     23     -0.1821E+05
      2      1     20     24     -0.1241E+05
      3      1     19     20     -0.2882E+05
      4      1     19     24     -0.1691E+05

      4 WELLS

                 RECHARGE =   0.00000    

 REUSING STREAM SEGMENT DATA FROM LAST STRESS PERIOD
 
 SOLVING FOR HEAD 


     7 CALLS TO PCG ROUTINE FOR TIME STEP   1 IN STRESS PERIOD   11
    26 TOTAL ITERATIONS

 OUTPUT CONTROL FOR STRESS PERIOD   11   TIME STEP    1
    SAVE BUDGET
    SAVE HEAD FOR ALL LAYERS
    PRINT HEAD FOR ALL LAYERS
 UBDSV2 SAVING "STREAMFLOW OUT  " ON UNIT  50 AT TIME STEP  1, STRESS PERIOD  11



 STREAM LISTING     PERIOD     11   STEP        1

 LAYER ROW COL. STREAM  RCH.  FLOW INTO     FLOW TO   FLOW OUT OF   OVRLND.     DIRECT     STREAM       STREAM     STREAM     STREAM   STREAMBED  STREAMBED
                SEG.NO.  NO.  STRM. RCH.    AQUIFER    STRM. RCH.    RUNOFF     PRECIP       ET          HEAD       DEPTH      WIDTH   CONDCTNC.   GRADIENT

   1   13    1     1     1    1.0000E+05 -2.6873E+03   1.0269E+05  0.000E+00  0.000E+00  0.000E+00  4.84072E+01  1.458E-01  2.000E+01  2.000E+04 -1.344E-01
   1   13    2     1     2    1.0269E+05 -4.5746E+03   1.0726E+05  0.000E+00  0.000E+00  0.000E+00  4.79330E+01  1.489E-01  2.000E+01  2.000E+04 -2.287E-01
   1   14    3     1     3    1.0726E+05 -3.6148E+03   1.1088E+05  0.000E+00  0.000E+00  0.000E+00  4.74592E+01  1.524E-01  2.000E+01  2.000E+04 -1.807E-01
   1   15    4     1     4    1.1088E+05 -3.5101E+03   1.1439E+05  0.000E+00  0.000E+00  0.000E+00  4.69849E+01  1.554E-01  2.000E+01  2.000E+04 -1.755E-01
   1   16    5     1     5    1.1439E+05 -3.8310E+03   1.1822E+05  0.000E+00  0.000E+00  0.000E+00  4.65106E+01  1.584E-01  2.000E+01  2.000E+04 -1.915E-01
   1   16    6     1     6    1.1822E+05 -3.0187E+03   1.2124E+05  0.000E+00  0.000E+00  0.000E+00  4.60362E+01  1.612E-01  2.000E+01  2.000E+04 -1.509E-01
   1   16    7     1     7    1.2124E+05 -3.0660E+03   1.2430E+05  0.000E+00  0.000E+00  0.000E+00  4.55613E+01  1.636E-01  2.000E+01  2.000E+04 -1.533E-01
   1   16    8     1     8    1.2430E+05 -3.0743E+03   1.2738E+05  0.000E+00  0.000E+00  0.000E+00  4.50865E+01  1.660E-01  2.000E+01  2.000E+04 -1.537E-01
   1   16    9     1     9    1.2738E+05 -3.0256E+03   1.3040E+05  0.000E+00  0.000E+00  0.000E+00  4.46116E+01  1.684E-01  2.000E+01  2.000E+04 -1.513E-01
   1   16   10     1    10    1.3040E+05 -2.9120E+03   1.3331E+05  0.000E+00  0.000E+00  0.000E+00  4.41367E+01  1.708E-01  2.000E+01  2.000E+04 -1.456E-01
   1   16   11     1    11    1.3331E+05 -2.7247E+03   1.3604E+05  0.000E+00  0.000E+00  0.000E+00  4.36616E+01  1.729E-01  2.000E+01  2.000E+04 -1.362E-01
   1   16   12     1    12    1.3604E+05 -2.9705E+03   1.3901E+05  0.000E+00  0.000E+00  0.000E+00  4.31865E+01  1.751E-01  2.000E+01  2.000E+04 -1.485E-01
   1   15   13     1    13    1.3901E+05 -2.5993E+03   1.4161E+05  0.000E+00  0.000E+00  0.000E+00  4.27113E+01  1.772E-01  2.000E+01  2.000E+04 -1.300E-01
   1   14   14     1    14    1.4161E+05 -2.6455E+03   1.4425E+05  0.000E+00  0.000E+00  0.000E+00  4.22360E+01  1.792E-01  2.000E+01  2.000E+04 -1.323E-01
   1   13   15     1    15    1.4425E+05 -3.1060E+03   1.4736E+05  0.000E+00  0.000E+00  0.000E+00  4.17609E+01  1.814E-01  2.000E+01  2.000E+04 -1.553E-01
   1   12   16     1    16    1.4736E+05 -4.8275E+03   1.5219E+05  0.000E+00  0.000E+00  0.000E+00  4.12866E+01  1.843E-01  2.000E+01  2.000E+04 -2.414E-01
   1   12   17     1    17    1.5219E+05 -2.8088E+03   1.5500E+05  0.000E+00  0.000E+00  0.000E+00  4.08121E+01  1.871E-01  2.000E+01  2.000E+04 -1.404E-01
   1   12   18     1    18    1.5500E+05 -2.5978E+03   1.5759E+05  0.000E+00  0.000E+00  0.000E+00  4.03368E+01  1.891E-01  2.000E+01  2.000E+04 -1.299E-01
   1   12   19     1    19    1.5759E+05 -3.7304E+03   1.6132E+05  0.000E+00  0.000E+00  0.000E+00  3.98618E+01  1.914E-01  2.000E+01  2.000E+04 -1.865E-01
   1   13   20     1    20    1.6132E+05 -1.0801E+03   1.6241E+05  0.000E+00  0.000E+00  0.000E+00  3.93863E+01  1.931E-01  2.000E+01  2.000E+04 -5.400E-02
   1   14   21     1    21    1.6241E+05  1.4418E+03   1.6096E+05  0.000E+00  0.000E+00  0.000E+00  3.89089E+01  1.930E-01  2.000E+01  2.000E+04  7.209E-02
   1   14   22     1    22    1.6096E+05  5.6721E+03   1.5529E+05  0.000E+00  0.000E+00  0.000E+00  3.84291E+01  1.904E-01  2.000E+01  2.000E+04  2.836E-01
   1    9   30     2     1    5.0000E+04 -2.5943E+03   5.2594E+04  0.000E+00  0.000E+00  0.000E+00  4.02427E+01  1.177E-01  2.000E+01  2.000E+04 -1.297E-01
   1    9   29     2     2    5.2594E+04 -2.9281E+03   5.5522E+04  0.000E+00  0.000E+00  0.000E+00  3.99964E+01  1.214E-01  2.000E+01  2.000E+04 -1.464E-01
   1    9   28     2     3    5.5522E+04 -3.3118E+03   5.8834E+04  0.000E+00  0.000E+00  0.000E+00  3.97506E+01  1.256E-01  2.000E+01  2.000E+04 -1.656E-01
   1    9   27     2     4    5.8834E+04 -5.9937E+03   6.4828E+04  0.000E+00  0.000E+00  0.000E+00  3.95066E+01  1.316E-01  2.000E+01  2.000E+04 -2.997E-01
   1   10   26     2     5    6.4828E+04 -3.6032E+03   6.8431E+04  0.000E+00  0.000E+00  0.000E+00  3.92626E+01  1.376E-01  2.000E+01  2.000E+04 -1.802E-01
   1   11   25     2     6    6.8431E+04 -2.5593E+03   7.0990E+04  0.000E+00  0.000E+00  0.000E+00  3.90164E+01  1.414E-01  2.000E+01  2.000E+04 -1.280E-01
   1   12   24     2     7    7.0990E+04 -1.7224E+03   7.2713E+04  0.000E+00  0.000E+00  0.000E+00  3.87690E+01  1.440E-01  2.000E+01  2.000E+04 -8.612E-02
   1   13   23     2     8    7.2713E+04 -8.9717E+02   7.3610E+04  0.000E+00  0.000E+00  0.000E+00  3.85206E+01  1.456E-01  2.000E+01  2.000E+04 -4.486E-02
   1   14   22     2     9    7.3610E+04  2.4838E+03   7.1126E+04  0.000E+00  0.000E+00  0.000E+00  3.82696E+01  1.446E-01  2.000E+01  2.000E+04  1.242E-01
   1   14   22     3     1    2.2642E+05 -7.8375E+03   2.3425E+05  0.000E+00  0.000E+00  0.000E+00  3.77536E+01  1.980E-01  2.000E+01  2.000E+04 -3.919E-01
   1   15   23     3     2    2.3425E+05  2.6426E+03   2.3161E+05  0.000E+00  0.000E+00  0.000E+00  3.68660E+01  1.994E-01  2.000E+01  2.000E+04  1.321E-01
   1   15   24     3     3    2.3161E+05  1.3836E+03   2.3023E+05  0.000E+00  0.000E+00  0.000E+00  3.59761E+01  1.983E-01  2.000E+01  2.000E+04  6.918E-02
   1   15   25     3     4    2.3023E+05  7.3124E+02   2.2950E+05  0.000E+00  0.000E+00  0.000E+00  3.50867E+01  1.978E-01  2.000E+01  2.000E+04  3.656E-02
   1   15   26     3     5    2.2950E+05 -5.3112E+02   2.3003E+05  0.000E+00  0.000E+00  0.000E+00  3.41977E+01  1.977E-01  2.000E+01  2.000E+04 -2.656E-02
   1   16   27     3     6    2.3003E+05  2.4496E+02   2.2978E+05  0.000E+00  0.000E+00  0.000E+00  3.33089E+01  1.978E-01  2.000E+01  2.000E+04  1.225E-02
   1   17   28     3     7    2.2978E+05 -4.7692E+02   2.3026E+05  0.000E+00  0.000E+00  0.000E+00  3.24201E+01  1.979E-01  2.000E+01  2.000E+04 -2.385E-02
   1   18   29     3     8    2.3026E+05 -2.3070E+03   2.3257E+05  0.000E+00  0.000E+00  0.000E+00  3.15319E+01  1.986E-01  2.000E+01  2.000E+04 -1.154E-01
   1   18   30     3     9    2.3257E+05 -3.3291E+03   2.3590E+05  0.000E+00  0.000E+00  0.000E+00  3.06445E+01  2.000E-01  2.000E+01  2.000E+04 -1.665E-01



1
              HEAD IN LAYER   1 AT END OF TIME STEP   1 IN STRESS PERIOD   11
  ---------------------------------------------------------------------------

          1      2      3      4      5      6      7      8      9     10
         11     12     13     14     15     16     17     18     19     20
         21     22     23     24     25     26     27     28     29     30
 .........................................................................
   1  ****** ****** ****** ****** ****** ****** ****** ****** ****** ******
      ****** ****** ****** ****** ****** ****** ****** ****** ****** ******
      ****** ****** ****** ****** ****** ****** ****** ****** ****** ******
   2  ****** ****** ****** ****** ****** ****** ****** ****** ****** ******
      ****** ****** ****** ****** ****** ****** ****** ****** ****** ******
      ****** ****** ****** ****** ****** ****** ****** ****** ****** ******
   3  ****** ****** ****** ****** ****** ****** ****** ****** ****** ******
      ****** ****** ****** ****** ****** ****** ****** ****** ****** ******
      ****** ****** ****** ****** ****** ****** ****** ****** ****** ******
   4  ****** ****** ****** ****** ****** ****** ****** ****** ****** ******
      ****** ****** ****** ****** ****** ****** ****** ****** ****** ******
      ****** ****** ****** ****** ****** ****** ****** ****** ****** ******
   5  ****** ****** ****** ****** ****** ****** ****** ****** ****** ******
      ****** ****** ****** ****** ****** ****** ****** ****** ****** ******
      ****** ****** ****** ****** ****** ****** ****** ****** ****** ******
   6  ****** ****** ****** ****** ****** ****** ****** ****** ****** ******
      ****** ****** ****** ****** ****** ****** ****** ****** ****** ******
      ****** ****** ****** ****** ****** ****** ****** ****** ****** ******
   7  ****** ****** ****** ****** ****** ****** ****** ****** ****** ******
      ****** ****** ****** ****** ****** ****** ****** ****** ****** ******
      ****** ****** ****** ****** ****** ****** ****** ****** ****** ******
   8  ****** ****** ****** ****** ****** ****** ****** ****** ****** ******
      ****** ****** ****** ****** ****** ****** ****** ****** ****** ******
      ****** ****** ****** ****** ****** ****** ****** ****** ****** ******
   9  ****** ****** ****** ****** ****** ****** ****** ****** ****** ******
      ****** ****** ****** ****** ****** ****** ****** ****** ****** ******
      ****** ****** ****** ****** ****** ****** ****** ****** ****** ******
  10  ****** ****** ****** ****** ****** ****** ****** ****** ****** ******
      ****** ****** ****** ****** ****** ****** ****** ****** ****** ******
      ****** ****** ****** ****** ****** ****** ****** ****** ****** ******
  11  ****** ****** ****** ****** ****** ****** ****** ****** ****** ******
      ****** ****** ****** ****** ****** ****** ****** ****** ****** ******
      ****** ****** ****** ****** ****** ****** ****** ****** ****** ******
  12  ****** ****** ****** ****** ****** ****** ****** ****** ****** ******
      ****** ****** ****** ****** ****** ****** ****** ****** ****** ******
      ****** ****** ****** ****** ****** ****** ****** ****** ****** ******
  13  ****** ****** ****** ****** ****** ****** ****** ****** ****** ******
      ****** ****** ****** ****** ****** ****** ****** ****** ****** ******
      ****** ****** ****** ****** ****** ****** ****** ****** ****** ******
  14  ****** ****** ****** ****** ****** ****** ****** ****** ****** ******
      ****** ****** ****** ****** ****** ****** ****** ****** ****** ******
      ****** ****** ****** ****** ****** ****** ****** ****** ****** ******
  15  ****** ****** ****** ****** ****** ****** ****** ****** ****** ******
      ****** ****** ****** ****** ****** ****** ****** ****** ****** ******
      ****** ****** ****** ****** ****** ****** ****** ****** ****** ******
  16  ****** ****** ****** ****** ****** ****** ****** ****** ****** ******
      ****** ****** ****** ****** ****** ****** ****** ****** ****** ******
      ****** ****** ****** ****** ****** ****** ****** ****** ****** ******
  17  ****** ****** ****** ****** ****** ****** ****** ****** ****** ******
      ****** ****** ****** ****** ****** ****** ****** ****** ****** ******
      ****** ****** ****** ****** ****** ****** ****** ****** ****** ******
  18  ****** ****** ****** ****** ****** ****** ****** ****** ****** ******
      ****** ****** ****** ****** ****** ****** ****** ****** ****** ******
      ****** ****** ****** ****** ****** ****** ****** ****** ****** ******
  19  ****** ****** ****** ****** ****** ****** ****** ****** ****** ******
      ****** ****** ****** ****** ****** ****** ****** ****** ****** ******
      ****** ****** ****** ****** ****** ****** ****** ****** ****** ******
  20  ****** ****** ****** ****** ****** ****** ****** ****** ****** ******
      ****** ****** ****** ****** ****** ****** ****** ****** ****** ******
      ****** ****** ****** ****** ****** ****** ****** ****** ****** ******
  21  ****** ****** ****** ****** ****** ****** ****** ****** ****** ******
      ****** ****** ****** ****** ****** ****** ****** ****** ****** ******
      ****** ****** ****** ****** ****** ****** ****** ****** ****** ******
  22  ****** ****** ****** ****** ****** ****** ****** ****** ****** ******
      ****** ****** ****** ****** ****** ****** ****** ****** ****** ******
      ****** ****** ****** ****** ****** ****** ****** ****** ****** ******
  23  ****** ****** ****** ****** ****** ****** ****** ****** ****** ******
      ****** ****** ****** ****** ****** ****** ****** ****** ****** ******
      ****** ****** ****** ****** ****** ****** ****** ****** ****** ******
  24  ****** ****** ****** ****** ****** ****** ****** ****** ****** ******
      ****** ****** ****** ****** ****** ****** ****** ****** ****** ******
      ****** ****** ****** ****** ****** ****** ****** ****** ****** ******
  25  ****** ****** ****** ****** ****** ****** ****** ****** ****** ******
      ****** ****** ****** ****** ****** ****** ****** ****** ****** ******
      ****** ****** ****** ****** ****** ****** ****** ****** ****** ******

 HEAD WILL BE SAVED ON UNIT   51 AT END OF TIME STEP    1, STRESS PERIOD   11
1
  VOLUMETRIC BUDGET FOR ENTIRE MODEL AT END OF TIME STEP    1, STRESS PERIOD  11
  ------------------------------------------------------------------------------

     CUMULATIVE VOLUMES      L**3       RATES FOR THIS TIME STEP      L**3/T
     ------------------                 ------------------------

           IN:                                      IN:
           ---                                      ---
             STORAGE =    26561606.3053               STORAGE =       11849.6584
       CONSTANT HEAD =   139256683.3585         CONSTANT HEAD =      150394.9851
               WELLS =           0.0000                 WELLS =           0.0000
            RECHARGE =    23901600.0000              RECHARGE =           0.0000
      STREAM LEAKAGE =    12527177.0928        STREAM LEAKAGE =       14600.0660

            TOTAL IN =   202247066.7565              TOTAL IN =      176844.7095

          OUT:                                     OUT:
          ----                                     ----
             STORAGE =     2248517.7007               STORAGE =           0.0000
       CONSTANT HEAD =           0.0000         CONSTANT HEAD =           0.0000
               WELLS =    76653453.1807                 WELLS =       76348.0609
            RECHARGE =           0.0000              RECHARGE =           0.0000
      STREAM LEAKAGE =   123345096.8831        STREAM LEAKAGE =      100496.6506

           TOTAL OUT =   202247067.7645             TOTAL OUT =      176844.7116

            IN - OUT =          -1.0080              IN - OUT =      -2.1298E-03

 PERCENT DISCREPANCY =          -0.00     PERCENT DISCREPANCY =          -0.00






         TIME SUMMARY AT END OF TIME STEP    1 IN STRESS PERIOD   11
                    SECONDS     MINUTES      HOURS       DAYS        YEARS
                    -----------------------------------------------------------
   TIME STEP LENGTH 7.86240E+06 1.31040E+05  2184.0      91.000     0.24914    
 STRESS PERIOD TIME 7.86240E+06 1.31040E+05  2184.0      91.000     0.24914    
         TOTAL TIME 8.67456E+07 1.44576E+06  24096.      1004.0      2.7488    
1
1
                            STRESS PERIOD NO.   12, LENGTH =   91.00000    
                            -----------------------------------------------

                              NUMBER OF TIME STEPS =     1

                               MULTIPLIER FOR DELT =     1.500

                            INITIAL TIME STEP SIZE =   91.00000    

 WELL NO.  LAYER   ROW   COL   STRESS RATE         
 --------------------------------------------------
      1      1     21     23     -0.1821E+05
      2      1     20     24     -0.1241E+05
      3      1     19     20     -0.2882E+05
      4      1     19     24     -0.1691E+05

      4 WELLS

                 RECHARGE =  1.000000E-03

 REUSING STREAM SEGMENT DATA FROM LAST STRESS PERIOD
 
 SOLVING FOR HEAD 


     6 CALLS TO PCG ROUTINE FOR TIME STEP   1 IN STRESS PERIOD   12
    23 TOTAL ITERATIONS

 OUTPUT CONTROL FOR STRESS PERIOD   12   TIME STEP    1
    SAVE BUDGET
    SAVE HEAD FOR ALL LAYERS
    PRINT HEAD FOR ALL LAYERS
 UBDSV2 SAVING "STREAMFLOW OUT  " ON UNIT  50 AT TIME STEP  1, STRESS PERIOD  12



 STREAM LISTING     PERIOD     12   STEP        1

 LAYER ROW COL. STREAM  RCH.  FLOW INTO     FLOW TO   FLOW OUT OF   OVRLND.     DIRECT     STREAM       STREAM     STREAM     STREAM   STREAMBED  STREAMBED
                SEG.NO.  NO.  STRM. RCH.    AQUIFER    STRM. RCH.    RUNOFF     PRECIP       ET          HEAD       DEPTH      WIDTH   CONDCTNC.   GRADIENT

   1   13    1     1     1    1.0000E+05 -2.8608E+03   1.0286E+05  0.000E+00  0.000E+00  0.000E+00  4.84073E+01  1.459E-01  2.000E+01  2.000E+04 -1.430E-01
   1   13    2     1     2    1.0286E+05 -4.7927E+03   1.0765E+05  0.000E+00  0.000E+00  0.000E+00  4.79333E+01  1.492E-01  2.000E+01  2.000E+04 -2.396E-01
   1   14    3     1     3    1.0765E+05 -3.8538E+03   1.1151E+05  0.000E+00  0.000E+00  0.000E+00  4.74596E+01  1.528E-01  2.000E+01  2.000E+04 -1.927E-01
   1   15    4     1     4    1.1151E+05 -3.7512E+03   1.1526E+05  0.000E+00  0.000E+00  0.000E+00  4.69855E+01  1.560E-01  2.000E+01  2.000E+04 -1.876E-01
   1   16    5     1     5    1.1526E+05 -4.0535E+03   1.1931E+05  0.000E+00  0.000E+00  0.000E+00  4.65114E+01  1.592E-01  2.000E+01  2.000E+04 -2.027E-01
   1   16    6     1     6    1.1931E+05 -3.1959E+03   1.2251E+05  0.000E+00  0.000E+00  0.000E+00  4.60371E+01  1.621E-01  2.000E+01  2.000E+04 -1.598E-01
   1   16    7     1     7    1.2251E+05 -3.2450E+03   1.2575E+05  0.000E+00  0.000E+00  0.000E+00  4.55624E+01  1.647E-01  2.000E+01  2.000E+04 -1.623E-01
   1   16    8     1     8    1.2575E+05 -3.2544E+03   1.2901E+05  0.000E+00  0.000E+00  0.000E+00  4.50877E+01  1.673E-01  2.000E+01  2.000E+04 -1.627E-01
   1   16    9     1     9    1.2901E+05 -3.2057E+03   1.3221E+05  0.000E+00  0.000E+00  0.000E+00  4.46130E+01  1.698E-01  2.000E+01  2.000E+04 -1.603E-01
   1   16   10     1    10    1.3221E+05 -3.0909E+03   1.3530E+05  0.000E+00  0.000E+00  0.000E+00  4.41381E+01  1.722E-01  2.000E+01  2.000E+04 -1.545E-01
   1   16   11     1    11    1.3530E+05 -2.9016E+03   1.3821E+05  0.000E+00  0.000E+00  0.000E+00  4.36632E+01  1.745E-01  2.000E+01  2.000E+04 -1.451E-01
   1   16   12     1    12    1.3821E+05 -3.1934E+03   1.4140E+05  0.000E+00  0.000E+00  0.000E+00  4.31882E+01  1.769E-01  2.000E+01  2.000E+04 -1.597E-01
   1   15   13     1    13    1.4140E+05 -2.8427E+03   1.4424E+05  0.000E+00  0.000E+00  0.000E+00  4.27132E+01  1.791E-01  2.000E+01  2.000E+04 -1.421E-01
   1   14   14     1    14    1.4424E+05 -2.8915E+03   1.4713E+05  0.000E+00  0.000E+00  0.000E+00  4.22381E+01  1.813E-01  2.000E+01  2.000E+04 -1.446E-01
   1   13   15     1    15    1.4713E+05 -3.3466E+03   1.5048E+05  0.000E+00  0.000E+00  0.000E+00  4.17632E+01  1.836E-01  2.000E+01  2.000E+04 -1.673E-01
   1   12   16     1    16    1.5048E+05 -5.0471E+03   1.5553E+05  0.000E+00  0.000E+00  0.000E+00  4.12890E+01  1.867E-01  2.000E+01  2.000E+04 -2.524E-01
   1   12   17     1    17    1.5553E+05 -2.9825E+03   1.5851E+05  0.000E+00  0.000E+00  0.000E+00  4.08146E+01  1.896E-01  2.000E+01  2.000E+04 -1.491E-01
   1   12   18     1    18    1.5851E+05 -2.7711E+03   1.6128E+05  0.000E+00  0.000E+00  0.000E+00  4.03394E+01  1.917E-01  2.000E+01  2.000E+04 -1.386E-01
   1   12   19     1    19    1.6128E+05 -3.9418E+03   1.6522E+05  0.000E+00  0.000E+00  0.000E+00  3.98646E+01  1.941E-01  2.000E+01  2.000E+04 -1.971E-01
   1   13   20     1    20    1.6522E+05 -1.2989E+03   1.6652E+05  0.000E+00  0.000E+00  0.000E+00  3.93892E+01  1.960E-01  2.000E+01  2.000E+04 -6.495E-02
   1   14   21     1    21    1.6652E+05  1.2449E+03   1.6528E+05  0.000E+00  0.000E+00  0.000E+00  3.89119E+01  1.960E-01  2.000E+01  2.000E+04  6.225E-02
   1   14   22     1    22    1.6528E+05  5.6286E+03   1.5965E+05  0.000E+00  0.000E+00  0.000E+00  3.84322E+01  1.935E-01  2.000E+01  2.000E+04  2.814E-01
   1    9   30     2     1    5.0000E+04 -2.7737E+03   5.2774E+04  0.000E+00  0.000E+00  0.000E+00  4.02428E+01  1.178E-01  2.000E+01  2.000E+04 -1.387E-01
   1    9   29     2     2    5.2774E+04 -3.1058E+03   5.5879E+04  0.000E+00  0.000E+00  0.000E+00  3.99968E+01  1.218E-01  2.000E+01  2.000E+04 -1.553E-01
   1    9   28     2     3    5.5879E+04 -3.4869E+03   5.9366E+04  0.000E+00  0.000E+00  0.000E+00  3.97512E+01  1.262E-01  2.000E+01  2.000E+04 -1.743E-01
   1    9   27     2     4    5.9366E+04 -6.2144E+03   6.5581E+04  0.000E+00  0.000E+00  0.000E+00  3.95074E+01  1.324E-01  2.000E+01  2.000E+04 -3.107E-01
   1   10   26     2     5    6.5581E+04 -3.8407E+03   6.9421E+04  0.000E+00  0.000E+00  0.000E+00  3.92637E+01  1.387E-01  2.000E+01  2.000E+04 -1.920E-01
   1   11   25     2     6    6.9421E+04 -2.7903E+03   7.2212E+04  0.000E+00  0.000E+00  0.000E+00  3.90178E+01  1.428E-01  2.000E+01  2.000E+04 -1.395E-01
   1   12   24     2     7    7.2212E+04 -1.9322E+03   7.4144E+04  0.000E+00  0.000E+00  0.000E+00  3.87706E+01  1.456E-01  2.000E+01  2.000E+04 -9.661E-02
   1   13   23     2     8    7.4144E+04 -1.0676E+03   7.5212E+04  0.000E+00  0.000E+00  0.000E+00  3.85224E+01  1.474E-01  2.000E+01  2.000E+04 -5.338E-02
   1   14   22     2     9    7.5212E+04  2.4169E+03   7.2795E+04  0.000E+00  0.000E+00  0.000E+00  3.82716E+01  1.466E-01  2.000E+01  2.000E+04  1.208E-01
   1   14   22     3     1    2.3244E+05 -7.8813E+03   2.4032E+05  0.000E+00  0.000E+00  0.000E+00  3.77567E+01  2.011E-01  2.000E+01  2.000E+04 -3.941E-01
   1   15   23     3     2    2.4032E+05  2.4579E+03   2.3787E+05  0.000E+00  0.000E+00  0.000E+00  3.68692E+01  2.025E-01  2.000E+01  2.000E+04  1.229E-01
   1   15   24     3     3    2.3787E+05  1.2392E+03   2.3663E+05  0.000E+00  0.000E+00  0.000E+00  3.59793E+01  2.016E-01  2.000E+01  2.000E+04  6.196E-02
   1   15   25     3     4    2.3663E+05  5.8208E+02   2.3604E+05  0.000E+00  0.000E+00  0.000E+00  3.50900E+01  2.011E-01  2.000E+01  2.000E+04  2.910E-02
   1   15   26     3     5    2.3604E+05 -7.2607E+02   2.3677E+05  0.000E+00  0.000E+00  0.000E+00  3.42011E+01  2.011E-01  2.000E+01  2.000E+04 -3.630E-02
   1   16   27     3     6    2.3677E+05  1.0508E+01   2.3676E+05  0.000E+00  0.000E+00  0.000E+00  3.33124E+01  2.013E-01  2.000E+01  2.000E+04  5.254E-04
   1   17   28     3     7    2.3676E+05 -7.1385E+02   2.3747E+05  0.000E+00  0.000E+00  0.000E+00  3.24237E+01  2.015E-01  2.000E+01  2.000E+04 -3.569E-02
   1   18   29     3     8    2.3747E+05 -2.5236E+03   2.4000E+05  0.000E+00  0.000E+00  0.000E+00  3.15357E+01  2.023E-01  2.000E+01  2.000E+04 -1.262E-01
   1   18   30     3     9    2.4000E+05 -3.4998E+03   2.4350E+05  0.000E+00  0.000E+00  0.000E+00  3.06483E+01  2.039E-01  2.000E+01  2.000E+04 -1.750E-01



1
              HEAD IN LAYER   1 AT END OF TIME STEP   1 IN STRESS PERIOD   12
  ---------------------------------------------------------------------------

          1      2      3      4      5      6      7      8      9     10
         11     12     13     14     15     16     17     18     19     20
         21     22     23     24     25     26     27     28     29     30
 .........................................................................
   1  ****** ****** ****** ****** ****** ****** ****** ****** ****** ******
      ****** ****** ****** ****** ****** ****** ****** ****** ****** ******
      ****** ****** ****** ****** ****** ****** ****** ****** ****** ******
   2  ****** ****** ****** ****** ****** ****** ****** ****** ****** ******
      ****** ****** ****** ****** ****** ****** ****** ****** ****** ******
      ****** ****** ****** ****** ****** ****** ****** ****** ****** ******
   3  ****** ****** ****** ****** ****** ****** ****** ****** ****** ******
      ****** ****** ****** ****** ****** ****** ****** ****** ****** ******
      ****** ****** ****** ****** ****** ****** ****** ****** ****** ******
   4  ****** ****** ****** ****** ****** ****** ****** ****** ****** ******
      ****** ****** ****** ****** ****** ****** ****** ****** ****** ******
      ****** ****** ****** ****** ****** ****** ****** ****** ****** ******
   5  ****** ****** ****** ****** ****** ****** ****** ****** ****** ******
      ****** ****** ****** ****** ****** ****** ****** ****** ****** ******
      ****** ****** ****** ****** ****** ****** ****** ****** ****** ******
   6  ****** ****** ****** ****** ****** ****** ****** ****** ****** ******
      ****** ****** ****** ****** ****** ****** ****** ****** ****** ******
      ****** ****** ****** ****** ****** ****** ****** ****** ****** ******
   7  ****** ****** ****** ****** ****** ****** ****** ****** ****** ******
      ****** ****** ****** ****** ****** ****** ****** ****** ****** ******
      ****** ****** ****** ****** ****** ****** ****** ****** ****** ******
   8  ****** ****** ****** ****** ****** ****** ****** ****** ****** ******
      ****** ****** ****** ****** ****** ****** ****** ****** ****** ******
      ****** ****** ****** ****** ****** ****** ****** ****** ****** ******
   9  ****** ****** ****** ****** ****** ****** ****** ****** ****** ******
      ****** ****** ****** ****** ****** ****** ****** ****** ****** ******
      ****** ****** ****** ****** ****** ****** ****** ****** ****** ******
  10  ****** ****** ****** ****** ****** ****** ****** ****** ****** ******
      ****** ****** ****** ****** ****** ****** ****** ****** ****** ******
      ****** ****** ****** ****** ****** ****** ****** ****** ****** ******
  11  ****** ****** ****** ****** ****** ****** ****** ****** ****** ******
      ****** ****** ****** ****** ****** ****** ****** ****** ****** ******
      ****** ****** ****** ****** ****** ****** ****** ****** ****** ******
  12  ****** ****** ****** ****** ****** ****** ****** ****** ****** ******
      ****** ****** ****** ****** ****** ****** ****** ****** ****** ******
      ****** ****** ****** ****** ****** ****** ****** ****** ****** ******
  13  ****** ****** ****** ****** ****** ****** ****** ****** ****** ******
      ****** ****** ****** ****** ****** ****** ****** ****** ****** ******
      ****** ****** ****** ****** ****** ****** ****** ****** ****** ******
  14  ****** ****** ****** ****** ****** ****** ****** ****** ****** ******
      ****** ****** ****** ****** ****** ****** ****** ****** ****** ******
      ****** ****** ****** ****** ****** ****** ****** ****** ****** ******
  15  ****** ****** ****** ****** ****** ****** ****** ****** ****** ******
      ****** ****** ****** ****** ****** ****** ****** ****** ****** ******
      ****** ****** ****** ****** ****** ****** ****** ****** ****** ******
  16  ****** ****** ****** ****** ****** ****** ****** ****** ****** ******
      ****** ****** ****** ****** ****** ****** ****** ****** ****** ******
      ****** ****** ****** ****** ****** ****** ****** ****** ****** ******
  17  ****** ****** ****** ****** ****** ****** ****** ****** ****** ******
      ****** ****** ****** ****** ****** ****** ****** ****** ****** ******
      ****** ****** ****** ****** ****** ****** ****** ****** ****** ******
  18  ****** ****** ****** ****** ****** ****** ****** ****** ****** ******
      ****** ****** ****** ****** ****** ****** ****** ****** ****** ******
      ****** ****** ****** ****** ****** ****** ****** ****** ****** ******
  19  ****** ****** ****** ****** ****** ****** ****** ****** ****** ******
      ****** ****** ****** ****** ****** ****** ****** ****** ****** ******
      ****** ****** ****** ****** ****** ****** ****** ****** ****** ******
  20  ****** ****** ****** ****** ****** ****** ****** ****** ****** ******
      ****** ****** ****** ****** ****** ****** ****** ****** ****** ******
      ****** ****** ****** ****** ****** ****** ****** ****** ****** ******
  21  ****** ****** ****** ****** ****** ****** ****** ****** ****** ******
      ****** ****** ****** ****** ****** ****** ****** ****** ****** ******
      ****** ****** ****** ****** ****** ****** ****** ****** ****** ******
  22  ****** ****** ****** ****** ****** ****** ****** ****** ****** ******
      ****** ****** ****** ****** ****** ****** ****** ****** ****** ******
      ****** ****** ****** ****** ****** ****** ****** ****** ****** ******
  23  ****** ****** ****** ****** ****** ****** ****** ****** ****** ******
      ****** ****** ****** ****** ****** ****** ****** ****** ****** ******
      ****** ****** ****** ****** ****** ****** ****** ****** ****** ******
  24  ****** ****** ****** ****** ****** ****** ****** ****** ****** ******
      ****** ****** ****** ****** ****** ****** ****** ****** ****** ******
      ****** ****** ****** ****** ****** ****** ****** ****** ****** ******
  25  ****** ****** ****** ****** ****** ****** ****** ****** ****** ******
      ****** ****** ****** ****** ****** ****** ****** ****** ****** ******
      ****** ****** ****** ****** ****** ****** ****** ****** ****** ******

 HEAD WILL BE SAVED ON UNIT   51 AT END OF TIME STEP    1, STRESS PERIOD   12
1
  VOLUMETRIC BUDGET FOR ENTIRE MODEL AT END OF TIME STEP    1, STRESS PERIOD  12
  ------------------------------------------------------------------------------

     CUMULATIVE VOLUMES      L**3       RATES FOR THIS TIME STEP      L**3/T
     ------------------                 ------------------------

           IN:                                      IN:
           ---                                      ---
             STORAGE =    26561606.3053               STORAGE =           0.0000
       CONSTANT HEAD =   152540763.9900         CONSTANT HEAD =      145978.9080
               WELLS =           0.0000                 WELLS =           0.0000
            RECHARGE =    26413200.0000              RECHARGE =       27600.0000
      STREAM LEAKAGE =    13762969.8619        STREAM LEAKAGE =       13580.1403

            TOTAL IN =   219278540.1572              TOTAL IN =      187159.0484

          OUT:                                     OUT:
          ----                                     ----
             STORAGE =     2588279.3724               STORAGE =        3733.6447
       CONSTANT HEAD =           0.0000         CONSTANT HEAD =           0.0000
               WELLS =    83601126.7259                 WELLS =       76348.0609
            RECHARGE =           0.0000              RECHARGE =           0.0000
      STREAM LEAKAGE =   133089134.9905        STREAM LEAKAGE =      107077.3418

           TOTAL OUT =   219278541.0889             TOTAL OUT =      187159.0475

            IN - OUT =          -0.9317              IN - OUT =       8.3819E-04

 PERCENT DISCREPANCY =          -0.00     PERCENT DISCREPANCY =           0.00






         TIME SUMMARY AT END OF TIME STEP    1 IN STRESS PERIOD   12
                    SECONDS     MINUTES      HOURS       DAYS        YEARS
                    -----------------------------------------------------------
   TIME STEP LENGTH 7.86240E+06 1.31040E+05  2184.0      91.000     0.24914    
 STRESS PERIOD TIME 7.86240E+06 1.31040E+05  2184.0      91.000     0.24914    
         TOTAL TIME 9.46080E+07 1.57680E+06  26280.      1095.0      2.9979    
1

 Run end date and time (yyyy/mm/dd hh:mm:ss): 2018/10/10 15:27:25
 Elapsed run time:  0.075 Seconds

