                                  MODFLOW-2005     
      U.S. GEOLOGICAL SURVEY MODULAR FINITE-DIFFERENCE GROUND-WATER FLOW MODEL
                            VERSION 1.11.00 8/8/2013

 LIST FILE: supply2.lst
                         UNIT   10

 OPENING ..\data\supply.dis
 FILE TYPE:DIS   UNIT   11   STATUS:OLD    
 FORMAT:FORMATTED              ACCESS:SEQUENTIAL          

 OPENING ..\data\supply.ba6
 FILE TYPE:BAS6   UNIT   12   STATUS:OLD    
 FORMAT:FORMATTED              ACCESS:SEQUENTIAL          

 OPENING ..\data\supply_het.bc6
 FILE TYPE:BCF6   UNIT   13   STATUS:OLD    
 FORMAT:FORMATTED              ACCESS:SEQUENTIAL          

 OPENING ..\data\supply.rch
 FILE TYPE:RCH   UNIT   15   STATUS:OLD    
 FORMAT:FORMATTED              ACCESS:SEQUENTIAL          

 OPENING ..\data\supply2.sfr
 FILE TYPE:SFR   UNIT   16   STATUS:OLD    
 FORMAT:FORMATTED              ACCESS:SEQUENTIAL          

 OPENING ..\data\supply.oc
 FILE TYPE:OC   UNIT   17   STATUS:OLD    
 FORMAT:FORMATTED              ACCESS:SEQUENTIAL          

 OPENING ..\data\supply.pcg
 FILE TYPE:PCG   UNIT   18   STATUS:OLD    
 FORMAT:FORMATTED              ACCESS:SEQUENTIAL          

 OPENING supply2.wel
 FILE TYPE:WEL   UNIT   19   STATUS:OLD    
 FORMAT:FORMATTED              ACCESS:SEQUENTIAL          

 OPENING supply2sf.cbc
 FILE TYPE:DATA(BINARY)   UNIT   50   STATUS:UNKNOWN
 FORMAT:BINARY                 ACCESS:SEQUENTIAL          

 OPENING supply2hd.bhd
 FILE TYPE:DATA(BINARY)   UNIT   51   STATUS:UNKNOWN
 FORMAT:BINARY                 ACCESS:SEQUENTIAL          

 BAS -- BASIC PACKAGE, VERSION 7, 5/2/2005 INPUT READ FROM UNIT   12
 
 MODFLOW was compiled using uniform precision
 Precision of REAL and DOUBLE PRECISION variables:          15

 DISCRETIZATION INPUT DATA READ FROM UNIT   11
    1 LAYERS        25 ROWS        30 COLUMNS
   12 STRESS PERIOD(S) IN SIMULATION
 MODEL TIME UNIT IS DAYS
 MODEL LENGTH UNIT IS UNDEFINED
  Confining bed flag for each layer:
   0

                     DELR =   200.000    

                     DELC =   200.000    

 TOP ELEVATION OF LAYER 1 =  100.0000    

   MODEL LAYER BOTTOM EL. =   0.00000     FOR LAYER   1


 STRESS PERIOD     LENGTH       TIME STEPS     MULTIPLIER FOR DELT    SS FLAG
 ----------------------------------------------------------------------------
        1         92.00000          1                    1.500         TR
        2         91.00000          1                    1.500         TR
        3         91.00000          1                    1.500         TR
        4         91.00000          1                    1.500         TR
        5         92.00000          1                    1.500         TR
        6         91.00000          1                    1.500         TR
        7         91.00000          1                    1.500         TR
        8         91.00000          1                    1.500         TR
        9         92.00000          1                    1.500         TR
       10         91.00000          1                    1.500         TR
       11         91.00000          1                    1.500         TR
       12         91.00000          1                    1.500         TR

 TRANSIENT SIMULATION



 
 #MODOFC transient water supply sample problem                                   
 #                                                                               
 THE FREE FORMAT OPTION HAS BEEN SELECTED



                     BOUNDARY ARRAY FOR LAYER   1
 READING ON UNIT   12 WITH FORMAT: (20I4)              

 AQUIFER HEAD WILL BE SET TO   0.0000     AT ALL NO-FLOW NODES (IBOUND=0).



                       INITIAL HEAD FOR LAYER   1
 READING ON UNIT   12 WITH FORMAT: (10F13.0)           

 OUTPUT CONTROL IS SPECIFIED ONLY AT TIME STEPS FOR WHICH OUTPUT IS DESIRED
 COMPACT CELL-BY-CELL BUDGET FILES WILL BE WRITTEN
 HEAD PRINT FORMAT CODE IS  18    DRAWDOWN PRINT FORMAT CODE IS   0
 HEADS WILL BE SAVED ON UNIT   51    DRAWDOWNS WILL BE SAVED ON UNIT    0

 BCF -- BLOCK-CENTERED FLOW PACKAGE, VERSION 7, 5/2/2005
         INPUT READ FROM UNIT 13
 TRANSIENT SIMULATION
 HEAD AT CELLS THAT CONVERT TO DRY=   0.0000    
 WETTING CAPABILITY IS NOT ACTIVE
      LAYER  LAYER-TYPE CODE     INTERBLOCK T
      --------------------------------------------
         1            0          0 -- HARMONIC    

 COLUMN TO ROW ANISOTROPY =  1.000000    

     PRIMARY STORAGE COEF =  5.000000E-02 FOR LAYER   1



               TRANSMIS. ALONG ROWS FOR LAYER   1
 READING ON UNIT   13 WITH FORMAT: (FREE)              

 WEL -- WELL PACKAGE, VERSION 7, 5/2/2005 INPUT READ FROM UNIT   19
 # Well package input file written by MMProc
 No named parameters
 MAXIMUM OF      4 ACTIVE WELLS AT ONE TIME


     0 Well parameters

 RCH -- RECHARGE PACKAGE, VERSION 7, 5/2/2005 INPUT READ FROM UNIT   15
 No named parameters
 OPTION 1 -- RECHARGE TO TOP LAYER


     0 Recharge parameters

 SFR7 -- STREAMFLOW ROUTING PACKAGE, VERSION 1.0.7, 2013-01-15
         INPUT READ FROM UNIT  16
 #  Supply2 test problem for GWM-VI
 #  The eighth entry in the first data line is ISTCB2 -
 #    Setting this to a negative number indicates that
 #    streamflows out of the reach will be saved to a
 #    binary file.  The absolute value of ISTCB2 is the
 #    unit to which unformatted flows will be written.
 #
 No named parameters
 Segment information will not be 
 read by reach
 No named parameters
 No specifed inflow files


 NUMBER OF STREAM REACHES IS   40

 NUMBER OF STREAM SEGMENTS IS    3

 NUMBER OF STREAM PARAMETERS IS    0

 NUMBER OF STREAM SEGMENTS DEFINED USING PARAMETERS IS              0

 MAXIMUM ERROR FOR STREAM LEAKAGE RATES IS  1.00E-04

 CONSTANT FOR MANNINGS EQUATION IS  1.2839E+05





   STREAM NETWORK DESCRIPTION: 

   LAYER    ROW    COL   SEGMENT   REACH     LENGTH
                          NUMBER   NUMBER    IN CELL        
   --------------------------------------------------
      1     13      1       1        1    2.0000E+02
      1     13      2       1        2    2.0000E+02
      1     14      3       1        3    2.0000E+02
      1     15      4       1        4    2.0000E+02
      1     16      5       1        5    2.0000E+02
      1     16      6       1        6    2.0000E+02
      1     16      7       1        7    2.0000E+02
      1     16      8       1        8    2.0000E+02
      1     16      9       1        9    2.0000E+02
      1     16     10       1       10    2.0000E+02
      1     16     11       1       11    2.0000E+02
      1     16     12       1       12    2.0000E+02
      1     15     13       1       13    2.0000E+02
      1     14     14       1       14    2.0000E+02
      1     13     15       1       15    2.0000E+02
      1     12     16       1       16    2.0000E+02
      1     12     17       1       17    2.0000E+02
      1     12     18       1       18    2.0000E+02
      1     12     19       1       19    2.0000E+02
      1     13     20       1       20    2.0000E+02
      1     14     21       1       21    2.0000E+02
      1     14     22       1       22    2.0000E+02
      1      9     30       2        1    2.0000E+02
      1      9     29       2        2    2.0000E+02
      1      9     28       2        3    2.0000E+02
      1      9     27       2        4    2.0000E+02
      1     10     26       2        5    2.0000E+02
      1     11     25       2        6    2.0000E+02
      1     12     24       2        7    2.0000E+02
      1     13     23       2        8    2.0000E+02
      1     14     22       2        9    2.0000E+02
      1     14     22       3        1    2.0000E+02
      1     15     23       3        2    2.0000E+02
      1     15     24       3        3    2.0000E+02
      1     15     25       3        4    2.0000E+02
      1     15     26       3        5    2.0000E+02
      1     16     27       3        6    2.0000E+02
      1     17     28       3        7    2.0000E+02
      1     18     29       3        8    2.0000E+02
      1     18     30       3        9    2.0000E+02




 PCG -- CONJUGATE-GRADIENT SOLUTION PACKAGE, VERSION 7, 5/2/2005
 MAXIMUM OF    500 CALLS OF SOLUTION ROUTINE
 MAXIMUM OF      5 INTERNAL ITERATIONS PER CALL TO SOLUTION ROUTINE
 MATRIX PRECONDITIONING TYPE :    1



                                    SOLUTION BY THE CONJUGATE-GRADIENT METHOD
                                   -------------------------------------------
                    MAXIMUM NUMBER OF CALLS TO PCG ROUTINE =      500
                        MAXIMUM ITERATIONS PER CALL TO PCG =        5
                               MATRIX PRECONDITIONING TYPE =        1
        RELAXATION FACTOR (ONLY USED WITH PRECOND. TYPE 1) =    0.10000E+01
 PARAMETER OF POLYNOMIAL PRECOND. = 2 (2) OR IS CALCULATED :        0
                         HEAD CHANGE CRITERION FOR CLOSURE =    0.10000E-05
                     RESIDUAL CHANGE CRITERION FOR CLOSURE =    0.10000E+01
            PCG HEAD AND RESIDUAL CHANGE PRINTOUT INTERVAL =        1
     PRINTING FROM SOLVER IS LIMITED(1) OR SUPPRESSED (>1) =        1
                            STEADY-STATE DAMPING PARAMETER =    0.10000E+01
                               TRANSIENT DAMPING PARAMETER =    0.10000E+01
1
                            STRESS PERIOD NO.    1, LENGTH =   92.00000    
                            -----------------------------------------------

                              NUMBER OF TIME STEPS =     1

                               MULTIPLIER FOR DELT =     1.500

                            INITIAL TIME STEP SIZE =   92.00000    

 WELL NO.  LAYER   ROW   COL   STRESS RATE         
 --------------------------------------------------
      1      1     12     11      -2057.    
      2      1     16     17     -0.1037E+05
      3      1     11     22     -0.1125E+05
      4      1     14     25      -6834.    

      4 WELLS

                 RECHARGE =  5.000000E-04



 CLASSIFICATION & COUNT OF STREAM SEGMENTS BASED ON SOURCE OF INFLOW:

                HEADWATER     DIVERSION     RECEIVES TRIBUTARY FLOW
                ---------     ---------     -----------------------
                     2              0               1



                    INPUT DATA FOR EACH STREAM SEGMENT
 ---------------------------------------------------------------------------------------------

 SEGMENT    SEG.     INFLOW   OVERLAND   STREAM    STREAM   ICALC  OUTFLOW  DIVERSION PRIORITY
    NO.    LENGTH     RATE     RUNOFF      ET       PPT.    METH.  TO SEG.  FROM SEG.    NO.

      1  4.400E+03 1.000E+05 0.000E+00 0.000E+00 0.000E+00    1        3        0        0
      2  1.800E+03 5.000E+04 0.000E+00 0.000E+00 0.000E+00    1        3        0        0
      3  1.800E+03 0.000E+00 0.000E+00 0.000E+00 0.000E+00    1        0        0        0


         STREAMBED PROPERTIES AND STREAM DIMENSIONS

 SEGMENT     BED HYD. COND.      BED THICKNESS     ELEV.-TOP OF BED     WIDTH OF STREAM     DEPTH OF STREAM    STREAM ROUGHNESS
    No.     UPPER     LOWER     UPPER     LOWER     UPPER     LOWER     UPPER     LOWER     UPPER     LOWER   CHANNEL      BANK

     1  5.000E+00 5.000E+00 1.000E+00 1.000E+00 4.850E+01 3.800E+01 2.000E+01 2.000E+01                     5.000E-02
     2  5.000E+00 5.000E+00 1.000E+00 1.000E+00 4.025E+01 3.800E+01 2.000E+01 2.000E+01                     5.000E-02
     3  5.000E+00 5.000E+00 1.000E+00 1.000E+00 3.800E+01 3.000E+01 2.000E+01 2.000E+01                     5.000E-02



 
 SOLVING FOR HEAD 


     9 CALLS TO PCG ROUTINE FOR TIME STEP   1 IN STRESS PERIOD    1
    36 TOTAL ITERATIONS

 OUTPUT CONTROL FOR STRESS PERIOD    1   TIME STEP    1
    SAVE BUDGET
    SAVE HEAD FOR ALL LAYERS
    PRINT HEAD FOR ALL LAYERS
 UBDSV2 SAVING "STREAMFLOW OUT  " ON UNIT  50 AT TIME STEP  1, STRESS PERIOD   1



 STREAM LISTING     PERIOD      1   STEP        1

 LAYER ROW COL. STREAM  RCH.  FLOW INTO     FLOW TO   FLOW OUT OF   OVRLND.     DIRECT     STREAM       STREAM     STREAM     STREAM   STREAMBED  STREAMBED
                SEG.NO.  NO.  STRM. RCH.    AQUIFER    STRM. RCH.    RUNOFF     PRECIP       ET          HEAD       DEPTH      WIDTH   CONDCTNC.   GRADIENT

   1   13    1     1     1    1.0000E+05 -6.1204E+03   1.0612E+05  0.000E+00  0.000E+00  0.000E+00  4.84087E+01  1.473E-01  2.000E+01  2.000E+04 -3.060E-01
   1   13    2     1     2    1.0612E+05 -7.5896E+03   1.1371E+05  0.000E+00  0.000E+00  0.000E+00  4.79372E+01  1.531E-01  2.000E+01  2.000E+04 -3.795E-01
   1   14    3     1     3    1.1371E+05 -2.1978E+03   1.1591E+05  0.000E+00  0.000E+00  0.000E+00  4.74640E+01  1.571E-01  2.000E+01  2.000E+04 -1.099E-01
   1   15    4     1     4    1.1591E+05 -2.2684E+03   1.1818E+05  0.000E+00  0.000E+00  0.000E+00  4.69885E+01  1.590E-01  2.000E+01  2.000E+04 -1.134E-01
   1   16    5     1     5    1.1818E+05 -7.1715E+03   1.2535E+05  0.000E+00  0.000E+00  0.000E+00  4.65151E+01  1.628E-01  2.000E+01  2.000E+04 -3.586E-01
   1   16    6     1     6    1.2535E+05 -4.2903E+03   1.2964E+05  0.000E+00  0.000E+00  0.000E+00  4.60423E+01  1.673E-01  2.000E+01  2.000E+04 -2.145E-01
   1   16    7     1     7    1.2964E+05 -4.1188E+03   1.3376E+05  0.000E+00  0.000E+00  0.000E+00  4.55684E+01  1.706E-01  2.000E+01  2.000E+04 -2.059E-01
   1   16    8     1     8    1.3376E+05 -4.0669E+03   1.3782E+05  0.000E+00  0.000E+00  0.000E+00  4.50943E+01  1.738E-01  2.000E+01  2.000E+04 -2.033E-01
   1   16    9     1     9    1.3782E+05 -4.0386E+03   1.4186E+05  0.000E+00  0.000E+00  0.000E+00  4.46201E+01  1.769E-01  2.000E+01  2.000E+04 -2.019E-01
   1   16   10     1    10    1.4186E+05 -4.0082E+03   1.4587E+05  0.000E+00  0.000E+00  0.000E+00  4.41458E+01  1.799E-01  2.000E+01  2.000E+04 -2.004E-01
   1   16   11     1    11    1.4587E+05 -3.9947E+03   1.4987E+05  0.000E+00  0.000E+00  0.000E+00  4.36716E+01  1.829E-01  2.000E+01  2.000E+04 -1.997E-01
   1   16   12     1    12    1.4987E+05 -6.5096E+03   1.5637E+05  0.000E+00  0.000E+00  0.000E+00  4.31981E+01  1.868E-01  2.000E+01  2.000E+04 -3.255E-01
   1   15   13     1    13    1.5637E+05 -6.5243E+03   1.6290E+05  0.000E+00  0.000E+00  0.000E+00  4.27256E+01  1.915E-01  2.000E+01  2.000E+04 -3.262E-01
   1   14   14     1    14    1.6290E+05 -6.8198E+03   1.6972E+05  0.000E+00  0.000E+00  0.000E+00  4.22531E+01  1.963E-01  2.000E+01  2.000E+04 -3.410E-01
   1   13   15     1    15    1.6972E+05 -7.2596E+03   1.7698E+05  0.000E+00  0.000E+00  0.000E+00  4.17808E+01  2.012E-01  2.000E+01  2.000E+04 -3.630E-01
   1   12   16     1    16    1.7698E+05 -8.3395E+03   1.8532E+05  0.000E+00  0.000E+00  0.000E+00  4.13089E+01  2.066E-01  2.000E+01  2.000E+04 -4.170E-01
   1   12   17     1    17    1.8532E+05 -5.7029E+03   1.9102E+05  0.000E+00  0.000E+00  0.000E+00  4.08364E+01  2.114E-01  2.000E+01  2.000E+04 -2.851E-01
   1   12   18     1    18    1.9102E+05 -5.4856E+03   1.9651E+05  0.000E+00  0.000E+00  0.000E+00  4.03629E+01  2.151E-01  2.000E+01  2.000E+04 -2.743E-01
   1   12   19     1    19    1.9651E+05 -6.4559E+03   2.0296E+05  0.000E+00  0.000E+00  0.000E+00  3.98895E+01  2.191E-01  2.000E+01  2.000E+04 -3.228E-01
   1   13   20     1    20    2.0296E+05 -5.1946E+03   2.0816E+05  0.000E+00  0.000E+00  0.000E+00  3.94161E+01  2.229E-01  2.000E+01  2.000E+04 -2.597E-01
   1   14   21     1    21    2.0816E+05 -5.2569E+03   2.1341E+05  0.000E+00  0.000E+00  0.000E+00  3.89422E+01  2.263E-01  2.000E+01  2.000E+04 -2.628E-01
   1   14   22     1    22    2.1341E+05  4.0651E+03   2.0935E+05  0.000E+00  0.000E+00  0.000E+00  3.84653E+01  2.267E-01  2.000E+01  2.000E+04  2.033E-01
   1    9   30     2     1    5.0000E+04 -4.7886E+03   5.4789E+04  0.000E+00  0.000E+00  0.000E+00  4.02442E+01  1.192E-01  2.000E+01  2.000E+04 -2.394E-01
   1    9   29     2     2    5.4789E+04 -5.0737E+03   5.9862E+04  0.000E+00  0.000E+00  0.000E+00  4.00008E+01  1.258E-01  2.000E+01  2.000E+04 -2.537E-01
   1    9   28     2     3    5.9862E+04 -5.3338E+03   6.5196E+04  0.000E+00  0.000E+00  0.000E+00  3.97575E+01  1.325E-01  2.000E+01  2.000E+04 -2.667E-01
   1    9   27     2     4    6.5196E+04 -8.0281E+03   7.3224E+04  0.000E+00  0.000E+00  0.000E+00  3.95158E+01  1.408E-01  2.000E+01  2.000E+04 -4.014E-01
   1   10   26     2     5    7.3224E+04 -6.7570E+03   7.9981E+04  0.000E+00  0.000E+00  0.000E+00  3.92747E+01  1.497E-01  2.000E+01  2.000E+04 -3.379E-01
   1   11   25     2     6    7.9981E+04 -5.3506E+03   8.5332E+04  0.000E+00  0.000E+00  0.000E+00  3.90317E+01  1.567E-01  2.000E+01  2.000E+04 -2.675E-01
   1   12   24     2     7    8.5332E+04 -3.7104E+03   8.9042E+04  0.000E+00  0.000E+00  0.000E+00  3.87867E+01  1.617E-01  2.000E+01  2.000E+04 -1.855E-01
   1   13   23     2     8    8.9042E+04 -1.0004E+03   9.0043E+04  0.000E+00  0.000E+00  0.000E+00  3.85394E+01  1.644E-01  2.000E+01  2.000E+04 -5.002E-02
   1   14   22     2     9    9.0043E+04  5.5142E+02   8.9491E+04  0.000E+00  0.000E+00  0.000E+00  3.82896E+01  1.646E-01  2.000E+01  2.000E+04  2.757E-02
   1   14   22     3     1    2.9884E+05 -9.4556E+03   3.0830E+05  0.000E+00  0.000E+00  0.000E+00  3.77893E+01  2.337E-01  2.000E+01  2.000E+04 -4.728E-01
   1   15   23     3     2    3.0830E+05 -1.8276E+03   3.1012E+05  0.000E+00  0.000E+00  0.000E+00  3.69030E+01  2.363E-01  2.000E+01  2.000E+04 -9.138E-02
   1   15   24     3     3    3.1012E+05 -1.0397E+03   3.1116E+05  0.000E+00  0.000E+00  0.000E+00  3.60147E+01  2.370E-01  2.000E+01  2.000E+04 -5.199E-02
   1   15   25     3     4    3.1116E+05  2.6850E+02   3.1089E+05  0.000E+00  0.000E+00  0.000E+00  3.51260E+01  2.371E-01  2.000E+01  2.000E+04  1.342E-02
   1   15   26     3     5    3.1089E+05 -1.3622E+03   3.1226E+05  0.000E+00  0.000E+00  0.000E+00  3.42374E+01  2.374E-01  2.000E+01  2.000E+04 -6.811E-02
   1   16   27     3     6    3.1226E+05 -2.1227E+03   3.1438E+05  0.000E+00  0.000E+00  0.000E+00  3.33493E+01  2.382E-01  2.000E+01  2.000E+04 -1.061E-01
   1   17   28     3     7    3.1438E+05 -6.4887E+03   3.2087E+05  0.000E+00  0.000E+00  0.000E+00  3.24624E+01  2.401E-01  2.000E+01  2.000E+04 -3.244E-01
   1   18   29     3     8    3.2087E+05 -7.9448E+03   3.2881E+05  0.000E+00  0.000E+00  0.000E+00  3.15767E+01  2.434E-01  2.000E+01  2.000E+04 -3.972E-01
   1   18   30     3     9    3.2881E+05 -7.1328E+03   3.3595E+05  0.000E+00  0.000E+00  0.000E+00  3.06912E+01  2.468E-01  2.000E+01  2.000E+04 -3.566E-01



1
              HEAD IN LAYER   1 AT END OF TIME STEP   1 IN STRESS PERIOD    1
  ---------------------------------------------------------------------------

          1      2      3      4      5      6      7      8      9     10
         11     12     13     14     15     16     17     18     19     20
         21     22     23     24     25     26     27     28     29     30
 .........................................................................
   1  ****** ****** ****** ****** ****** ****** ****** ****** ****** ******
      ****** ****** ****** ****** ****** ****** ****** ****** ****** ******
      ****** ****** ****** ****** ****** ****** ****** ****** ****** ******
   2  ****** ****** ****** ****** ****** ****** ****** ****** ****** ******
      ****** ****** ****** ****** ****** ****** ****** ****** ****** ******
      ****** ****** ****** ****** ****** ****** ****** ****** ****** ******
   3  ****** ****** ****** ****** ****** ****** ****** ****** ****** ******
      ****** ****** ****** ****** ****** ****** ****** ****** ****** ******
      ****** ****** ****** ****** ****** ****** ****** ****** ****** ******
   4  ****** ****** ****** ****** ****** ****** ****** ****** ****** ******
      ****** ****** ****** ****** ****** ****** ****** ****** ****** ******
      ****** ****** ****** ****** ****** ****** ****** ****** ****** ******
   5  ****** ****** ****** ****** ****** ****** ****** ****** ****** ******
      ****** ****** ****** ****** ****** ****** ****** ****** ****** ******
      ****** ****** ****** ****** ****** ****** ****** ****** ****** ******
   6  ****** ****** ****** ****** ****** ****** ****** ****** ****** ******
      ****** ****** ****** ****** ****** ****** ****** ****** ****** ******
      ****** ****** ****** ****** ****** ****** ****** ****** ****** ******
   7  ****** ****** ****** ****** ****** ****** ****** ****** ****** ******
      ****** ****** ****** ****** ****** ****** ****** ****** ****** ******
      ****** ****** ****** ****** ****** ****** ****** ****** ****** ******
   8  ****** ****** ****** ****** ****** ****** ****** ****** ****** ******
      ****** ****** ****** ****** ****** ****** ****** ****** ****** ******
      ****** ****** ****** ****** ****** ****** ****** ****** ****** ******
   9  ****** ****** ****** ****** ****** ****** ****** ****** ****** ******
      ****** ****** ****** ****** ****** ****** ****** ****** ****** ******
      ****** ****** ****** ****** ****** ****** ****** ****** ****** ******
  10  ****** ****** ****** ****** ****** ****** ****** ****** ****** ******
      ****** ****** ****** ****** ****** ****** ****** ****** ****** ******
      ****** ****** ****** ****** ****** ****** ****** ****** ****** ******
  11  ****** ****** ****** ****** ****** ****** ****** ****** ****** ******
      ****** ****** ****** ****** ****** ****** ****** ****** ****** ******
      ****** ****** ****** ****** ****** ****** ****** ****** ****** ******
  12  ****** ****** ****** ****** ****** ****** ****** ****** ****** ******
      ****** ****** ****** ****** ****** ****** ****** ****** ****** ******
      ****** ****** ****** ****** ****** ****** ****** ****** ****** ******
  13  ****** ****** ****** ****** ****** ****** ****** ****** ****** ******
      ****** ****** ****** ****** ****** ****** ****** ****** ****** ******
      ****** ****** ****** ****** ****** ****** ****** ****** ****** ******
  14  ****** ****** ****** ****** ****** ****** ****** ****** ****** ******
      ****** ****** ****** ****** ****** ****** ****** ****** ****** ******
      ****** ****** ****** ****** ****** ****** ****** ****** ****** ******
  15  ****** ****** ****** ****** ****** ****** ****** ****** ****** ******
      ****** ****** ****** ****** ****** ****** ****** ****** ****** ******
      ****** ****** ****** ****** ****** ****** ****** ****** ****** ******
  16  ****** ****** ****** ****** ****** ****** ****** ****** ****** ******
      ****** ****** ****** ****** ****** ****** ****** ****** ****** ******
      ****** ****** ****** ****** ****** ****** ****** ****** ****** ******
  17  ****** ****** ****** ****** ****** ****** ****** ****** ****** ******
      ****** ****** ****** ****** ****** ****** ****** ****** ****** ******
      ****** ****** ****** ****** ****** ****** ****** ****** ****** ******
  18  ****** ****** ****** ****** ****** ****** ****** ****** ****** ******
      ****** ****** ****** ****** ****** ****** ****** ****** ****** ******
      ****** ****** ****** ****** ****** ****** ****** ****** ****** ******
  19  ****** ****** ****** ****** ****** ****** ****** ****** ****** ******
      ****** ****** ****** ****** ****** ****** ****** ****** ****** ******
      ****** ****** ****** ****** ****** ****** ****** ****** ****** ******
  20  ****** ****** ****** ****** ****** ****** ****** ****** ****** ******
      ****** ****** ****** ****** ****** ****** ****** ****** ****** ******
      ****** ****** ****** ****** ****** ****** ****** ****** ****** ******
  21  ****** ****** ****** ****** ****** ****** ****** ****** ****** ******
      ****** ****** ****** ****** ****** ****** ****** ****** ****** ******
      ****** ****** ****** ****** ****** ****** ****** ****** ****** ******
  22  ****** ****** ****** ****** ****** ****** ****** ****** ****** ******
      ****** ****** ****** ****** ****** ****** ****** ****** ****** ******
      ****** ****** ****** ****** ****** ****** ****** ****** ****** ******
  23  ****** ****** ****** ****** ****** ****** ****** ****** ****** ******
      ****** ****** ****** ****** ****** ****** ****** ****** ****** ******
      ****** ****** ****** ****** ****** ****** ****** ****** ****** ******
  24  ****** ****** ****** ****** ****** ****** ****** ****** ****** ******
      ****** ****** ****** ****** ****** ****** ****** ****** ****** ******
      ****** ****** ****** ****** ****** ****** ****** ****** ****** ******
  25  ****** ****** ****** ****** ****** ****** ****** ****** ****** ******
      ****** ****** ****** ****** ****** ****** ****** ****** ****** ******
      ****** ****** ****** ****** ****** ****** ****** ****** ****** ******

 HEAD WILL BE SAVED ON UNIT   51 AT END OF TIME STEP    1, STRESS PERIOD    1
1
  VOLUMETRIC BUDGET FOR ENTIRE MODEL AT END OF TIME STEP    1, STRESS PERIOD   1
  ------------------------------------------------------------------------------

     CUMULATIVE VOLUMES      L**3       RATES FOR THIS TIME STEP      L**3/T
     ------------------                 ------------------------

           IN:                                      IN:
           ---                                      ---
             STORAGE =    17532071.5969               STORAGE =      190565.9956
       CONSTANT HEAD =     1112311.6325         CONSTANT HEAD =       12090.3438
               WELLS =           0.0000                 WELLS =           0.0000
            RECHARGE =     1269600.0000              RECHARGE =       13800.0000
      STREAM LEAKAGE =      449425.5715        STREAM LEAKAGE =        4885.0606

            TOTAL IN =    20363408.8008              TOTAL IN =      221341.4000

          OUT:                                     OUT:
          ----                                     ----
             STORAGE =           0.0000               STORAGE =           0.0000
       CONSTANT HEAD =           0.0000         CONSTANT HEAD =           0.0000
               WELLS =     2806954.3412                 WELLS =       30510.3733
            RECHARGE =           0.0000              RECHARGE =           0.0000
      STREAM LEAKAGE =    17556454.7466        STREAM LEAKAGE =      190831.0299

           TOTAL OUT =    20363409.0878             TOTAL OUT =      221341.4031

            IN - OUT =          -0.2870              IN - OUT =      -3.1196E-03

 PERCENT DISCREPANCY =          -0.00     PERCENT DISCREPANCY =          -0.00






         TIME SUMMARY AT END OF TIME STEP    1 IN STRESS PERIOD    1
                    SECONDS     MINUTES      HOURS       DAYS        YEARS
                    -----------------------------------------------------------
   TIME STEP LENGTH 7.94880E+06 1.32480E+05  2208.0      92.000     0.25188    
 STRESS PERIOD TIME 7.94880E+06 1.32480E+05  2208.0      92.000     0.25188    
         TOTAL TIME 7.94880E+06 1.32480E+05  2208.0      92.000     0.25188    
1
1
                            STRESS PERIOD NO.    2, LENGTH =   91.00000    
                            -----------------------------------------------

                              NUMBER OF TIME STEPS =     1

                               MULTIPLIER FOR DELT =     1.500

                            INITIAL TIME STEP SIZE =   91.00000    

 WELL NO.  LAYER   ROW   COL   STRESS RATE         
 --------------------------------------------------
      1      1     12     11      -2057.    
      2      1     16     17     -0.1037E+05
      3      1     11     22     -0.1125E+05
      4      1     14     25      -6834.    

      4 WELLS

                 RECHARGE =  2.000000E-03

 REUSING STREAM SEGMENT DATA FROM LAST STRESS PERIOD
 
 SOLVING FOR HEAD 


     7 CALLS TO PCG ROUTINE FOR TIME STEP   1 IN STRESS PERIOD    2
    27 TOTAL ITERATIONS

 OUTPUT CONTROL FOR STRESS PERIOD    2   TIME STEP    1
    SAVE BUDGET
    SAVE HEAD FOR ALL LAYERS
    PRINT HEAD FOR ALL LAYERS
 UBDSV2 SAVING "STREAMFLOW OUT  " ON UNIT  50 AT TIME STEP  1, STRESS PERIOD   2



 STREAM LISTING     PERIOD      2   STEP        1

 LAYER ROW COL. STREAM  RCH.  FLOW INTO     FLOW TO   FLOW OUT OF   OVRLND.     DIRECT     STREAM       STREAM     STREAM     STREAM   STREAMBED  STREAMBED
                SEG.NO.  NO.  STRM. RCH.    AQUIFER    STRM. RCH.    RUNOFF     PRECIP       ET          HEAD       DEPTH      WIDTH   CONDCTNC.   GRADIENT

   1   13    1     1     1    1.0000E+05 -4.0038E+03   1.0400E+05  0.000E+00  0.000E+00  0.000E+00  4.84077E+01  1.464E-01  2.000E+01  2.000E+04 -2.002E-01
   1   13    2     1     2    1.0400E+05 -5.2648E+03   1.0927E+05  0.000E+00  0.000E+00  0.000E+00  4.79344E+01  1.503E-01  2.000E+01  2.000E+04 -2.632E-01
   1   14    3     1     3    1.0927E+05 -1.1132E+03   1.1038E+05  0.000E+00  0.000E+00  0.000E+00  4.74598E+01  1.530E-01  2.000E+01  2.000E+04 -5.566E-02
   1   15    4     1     4    1.1038E+05 -1.1393E+03   1.1152E+05  0.000E+00  0.000E+00  0.000E+00  4.69835E+01  1.540E-01  2.000E+01  2.000E+04 -5.696E-02
   1   16    5     1     5    1.1152E+05 -4.2250E+03   1.1575E+05  0.000E+00  0.000E+00  0.000E+00  4.65085E+01  1.562E-01  2.000E+01  2.000E+04 -2.112E-01
   1   16    6     1     6    1.1575E+05 -2.4808E+03   1.1823E+05  0.000E+00  0.000E+00  0.000E+00  4.60339E+01  1.589E-01  2.000E+01  2.000E+04 -1.240E-01
   1   16    7     1     7    1.1823E+05 -2.3750E+03   1.2060E+05  0.000E+00  0.000E+00  0.000E+00  4.55586E+01  1.609E-01  2.000E+01  2.000E+04 -1.188E-01
   1   16    8     1     8    1.2060E+05 -2.3272E+03   1.2293E+05  0.000E+00  0.000E+00  0.000E+00  4.50832E+01  1.628E-01  2.000E+01  2.000E+04 -1.164E-01
   1   16    9     1     9    1.2293E+05 -2.2784E+03   1.2521E+05  0.000E+00  0.000E+00  0.000E+00  4.46078E+01  1.646E-01  2.000E+01  2.000E+04 -1.139E-01
   1   16   10     1    10    1.2521E+05 -2.2139E+03   1.2742E+05  0.000E+00  0.000E+00  0.000E+00  4.41323E+01  1.664E-01  2.000E+01  2.000E+04 -1.107E-01
   1   16   11     1    11    1.2742E+05 -2.1550E+03   1.2958E+05  0.000E+00  0.000E+00  0.000E+00  4.36568E+01  1.681E-01  2.000E+01  2.000E+04 -1.078E-01
   1   16   12     1    12    1.2958E+05 -3.4525E+03   1.3303E+05  0.000E+00  0.000E+00  0.000E+00  4.31817E+01  1.703E-01  2.000E+01  2.000E+04 -1.726E-01
   1   15   13     1    13    1.3303E+05 -3.0784E+03   1.3611E+05  0.000E+00  0.000E+00  0.000E+00  4.27069E+01  1.729E-01  2.000E+01  2.000E+04 -1.539E-01
   1   14   14     1    14    1.3611E+05 -3.2435E+03   1.3935E+05  0.000E+00  0.000E+00  0.000E+00  4.22321E+01  1.753E-01  2.000E+01  2.000E+04 -1.622E-01
   1   13   15     1    15    1.3935E+05 -3.7296E+03   1.4308E+05  0.000E+00  0.000E+00  0.000E+00  4.17575E+01  1.779E-01  2.000E+01  2.000E+04 -1.865E-01
   1   12   16     1    16    1.4308E+05 -5.0983E+03   1.4818E+05  0.000E+00  0.000E+00  0.000E+00  4.12835E+01  1.812E-01  2.000E+01  2.000E+04 -2.549E-01
   1   12   17     1    17    1.4818E+05 -3.1006E+03   1.5128E+05  0.000E+00  0.000E+00  0.000E+00  4.08093E+01  1.843E-01  2.000E+01  2.000E+04 -1.550E-01
   1   12   18     1    18    1.5128E+05 -2.8655E+03   1.5414E+05  0.000E+00  0.000E+00  0.000E+00  4.03342E+01  1.865E-01  2.000E+01  2.000E+04 -1.433E-01
   1   12   19     1    19    1.5414E+05 -3.1508E+03   1.5730E+05  0.000E+00  0.000E+00  0.000E+00  3.98591E+01  1.887E-01  2.000E+01  2.000E+04 -1.575E-01
   1   13   20     1    20    1.5730E+05 -1.8318E+03   1.5913E+05  0.000E+00  0.000E+00  0.000E+00  3.93837E+01  1.905E-01  2.000E+01  2.000E+04 -9.159E-02
   1   14   21     1    21    1.5913E+05 -2.2916E+03   1.6142E+05  0.000E+00  0.000E+00  0.000E+00  3.89079E+01  1.920E-01  2.000E+01  2.000E+04 -1.146E-01
   1   14   22     1    22    1.6142E+05  4.9000E+03   1.5652E+05  0.000E+00  0.000E+00  0.000E+00  3.84297E+01  1.910E-01  2.000E+01  2.000E+04  2.450E-01
   1    9   30     2     1    5.0000E+04 -2.0360E+03   5.2036E+04  0.000E+00  0.000E+00  0.000E+00  4.02423E+01  1.173E-01  2.000E+01  2.000E+04 -1.018E-01
   1    9   29     2     2    5.2036E+04 -2.3319E+03   5.4368E+04  0.000E+00  0.000E+00  0.000E+00  3.99953E+01  1.203E-01  2.000E+01  2.000E+04 -1.166E-01
   1    9   28     2     3    5.4368E+04 -2.6036E+03   5.6971E+04  0.000E+00  0.000E+00  0.000E+00  3.97486E+01  1.236E-01  2.000E+01  2.000E+04 -1.302E-01
   1    9   27     2     4    5.6971E+04 -4.4918E+03   6.1463E+04  0.000E+00  0.000E+00  0.000E+00  3.95032E+01  1.282E-01  2.000E+01  2.000E+04 -2.246E-01
   1   10   26     2     5    6.1463E+04 -3.0141E+03   6.4477E+04  0.000E+00  0.000E+00  0.000E+00  3.92581E+01  1.331E-01  2.000E+01  2.000E+04 -1.507E-01
   1   11   25     2     6    6.4477E+04 -1.6307E+03   6.6108E+04  0.000E+00  0.000E+00  0.000E+00  3.90110E+01  1.360E-01  2.000E+01  2.000E+04 -8.153E-02
   1   12   24     2     7    6.6108E+04 -2.1430E+02   6.6322E+04  0.000E+00  0.000E+00  0.000E+00  3.87621E+01  1.371E-01  2.000E+01  2.000E+04 -1.072E-02
   1   13   23     2     8    6.6322E+04  1.7216E+02   6.6150E+04  0.000E+00  0.000E+00  0.000E+00  3.85122E+01  1.372E-01  2.000E+01  2.000E+04  8.608E-03
   1   14   22     2     9    6.6150E+04  1.5286E+03   6.4622E+04  0.000E+00  0.000E+00  0.000E+00  3.82611E+01  1.361E-01  2.000E+01  2.000E+04  7.643E-02
   1   14   22     3     1    2.2114E+05 -8.6722E+03   2.2981E+05  0.000E+00  0.000E+00  0.000E+00  3.77511E+01  1.955E-01  2.000E+01  2.000E+04 -4.336E-01
   1   15   23     3     2    2.2981E+05 -8.2553E+02   2.3064E+05  0.000E+00  0.000E+00  0.000E+00  3.68646E+01  1.980E-01  2.000E+01  2.000E+04 -4.128E-02
   1   15   24     3     3    2.3064E+05 -3.7274E+01   2.3068E+05  0.000E+00  0.000E+00  0.000E+00  3.59760E+01  1.982E-01  2.000E+01  2.000E+04 -1.864E-03
   1   15   25     3     4    2.3068E+05  1.4505E+03   2.2923E+05  0.000E+00  0.000E+00  0.000E+00  3.50867E+01  1.978E-01  2.000E+01  2.000E+04  7.252E-02
   1   15   26     3     5    2.2923E+05 -9.8736E+01   2.2932E+05  0.000E+00  0.000E+00  0.000E+00  3.41975E+01  1.975E-01  2.000E+01  2.000E+04 -4.937E-03
   1   16   27     3     6    2.2932E+05 -8.3093E+02   2.3015E+05  0.000E+00  0.000E+00  0.000E+00  3.33088E+01  1.977E-01  2.000E+01  2.000E+04 -4.155E-02
   1   17   28     3     7    2.3015E+05 -3.0996E+03   2.3325E+05  0.000E+00  0.000E+00  0.000E+00  3.24210E+01  1.987E-01  2.000E+01  2.000E+04 -1.550E-01
   1   18   29     3     8    2.3325E+05 -4.9547E+03   2.3821E+05  0.000E+00  0.000E+00  0.000E+00  3.15341E+01  2.008E-01  2.000E+01  2.000E+04 -2.477E-01
   1   18   30     3     9    2.3821E+05 -4.6032E+03   2.4281E+05  0.000E+00  0.000E+00  0.000E+00  3.06477E+01  2.032E-01  2.000E+01  2.000E+04 -2.302E-01



1
              HEAD IN LAYER   1 AT END OF TIME STEP   1 IN STRESS PERIOD    2
  ---------------------------------------------------------------------------

          1      2      3      4      5      6      7      8      9     10
         11     12     13     14     15     16     17     18     19     20
         21     22     23     24     25     26     27     28     29     30
 .........................................................................
   1  ****** ****** ****** ****** ****** ****** ****** ****** ****** ******
      ****** ****** ****** ****** ****** ****** ****** ****** ****** ******
      ****** ****** ****** ****** ****** ****** ****** ****** ****** ******
   2  ****** ****** ****** ****** ****** ****** ****** ****** ****** ******
      ****** ****** ****** ****** ****** ****** ****** ****** ****** ******
      ****** ****** ****** ****** ****** ****** ****** ****** ****** ******
   3  ****** ****** ****** ****** ****** ****** ****** ****** ****** ******
      ****** ****** ****** ****** ****** ****** ****** ****** ****** ******
      ****** ****** ****** ****** ****** ****** ****** ****** ****** ******
   4  ****** ****** ****** ****** ****** ****** ****** ****** ****** ******
      ****** ****** ****** ****** ****** ****** ****** ****** ****** ******
      ****** ****** ****** ****** ****** ****** ****** ****** ****** ******
   5  ****** ****** ****** ****** ****** ****** ****** ****** ****** ******
      ****** ****** ****** ****** ****** ****** ****** ****** ****** ******
      ****** ****** ****** ****** ****** ****** ****** ****** ****** ******
   6  ****** ****** ****** ****** ****** ****** ****** ****** ****** ******
      ****** ****** ****** ****** ****** ****** ****** ****** ****** ******
      ****** ****** ****** ****** ****** ****** ****** ****** ****** ******
   7  ****** ****** ****** ****** ****** ****** ****** ****** ****** ******
      ****** ****** ****** ****** ****** ****** ****** ****** ****** ******
      ****** ****** ****** ****** ****** ****** ****** ****** ****** ******
   8  ****** ****** ****** ****** ****** ****** ****** ****** ****** ******
      ****** ****** ****** ****** ****** ****** ****** ****** ****** ******
      ****** ****** ****** ****** ****** ****** ****** ****** ****** ******
   9  ****** ****** ****** ****** ****** ****** ****** ****** ****** ******
      ****** ****** ****** ****** ****** ****** ****** ****** ****** ******
      ****** ****** ****** ****** ****** ****** ****** ****** ****** ******
  10  ****** ****** ****** ****** ****** ****** ****** ****** ****** ******
      ****** ****** ****** ****** ****** ****** ****** ****** ****** ******
      ****** ****** ****** ****** ****** ****** ****** ****** ****** ******
  11  ****** ****** ****** ****** ****** ****** ****** ****** ****** ******
      ****** ****** ****** ****** ****** ****** ****** ****** ****** ******
      ****** ****** ****** ****** ****** ****** ****** ****** ****** ******
  12  ****** ****** ****** ****** ****** ****** ****** ****** ****** ******
      ****** ****** ****** ****** ****** ****** ****** ****** ****** ******
      ****** ****** ****** ****** ****** ****** ****** ****** ****** ******
  13  ****** ****** ****** ****** ****** ****** ****** ****** ****** ******
      ****** ****** ****** ****** ****** ****** ****** ****** ****** ******
      ****** ****** ****** ****** ****** ****** ****** ****** ****** ******
  14  ****** ****** ****** ****** ****** ****** ****** ****** ****** ******
      ****** ****** ****** ****** ****** ****** ****** ****** ****** ******
      ****** ****** ****** ****** ****** ****** ****** ****** ****** ******
  15  ****** ****** ****** ****** ****** ****** ****** ****** ****** ******
      ****** ****** ****** ****** ****** ****** ****** ****** ****** ******
      ****** ****** ****** ****** ****** ****** ****** ****** ****** ******
  16  ****** ****** ****** ****** ****** ****** ****** ****** ****** ******
      ****** ****** ****** ****** ****** ****** ****** ****** ****** ******
      ****** ****** ****** ****** ****** ****** ****** ****** ****** ******
  17  ****** ****** ****** ****** ****** ****** ****** ****** ****** ******
      ****** ****** ****** ****** ****** ****** ****** ****** ****** ******
      ****** ****** ****** ****** ****** ****** ****** ****** ****** ******
  18  ****** ****** ****** ****** ****** ****** ****** ****** ****** ******
      ****** ****** ****** ****** ****** ****** ****** ****** ****** ******
      ****** ****** ****** ****** ****** ****** ****** ****** ****** ******
  19  ****** ****** ****** ****** ****** ****** ****** ****** ****** ******
      ****** ****** ****** ****** ****** ****** ****** ****** ****** ******
      ****** ****** ****** ****** ****** ****** ****** ****** ****** ******
  20  ****** ****** ****** ****** ****** ****** ****** ****** ****** ******
      ****** ****** ****** ****** ****** ****** ****** ****** ****** ******
      ****** ****** ****** ****** ****** ****** ****** ****** ****** ******
  21  ****** ****** ****** ****** ****** ****** ****** ****** ****** ******
      ****** ****** ****** ****** ****** ****** ****** ****** ****** ******
      ****** ****** ****** ****** ****** ****** ****** ****** ****** ******
  22  ****** ****** ****** ****** ****** ****** ****** ****** ****** ******
      ****** ****** ****** ****** ****** ****** ****** ****** ****** ******
      ****** ****** ****** ****** ****** ****** ****** ****** ****** ******
  23  ****** ****** ****** ****** ****** ****** ****** ****** ****** ******
      ****** ****** ****** ****** ****** ****** ****** ****** ****** ******
      ****** ****** ****** ****** ****** ****** ****** ****** ****** ******
  24  ****** ****** ****** ****** ****** ****** ****** ****** ****** ******
      ****** ****** ****** ****** ****** ****** ****** ****** ****** ******
      ****** ****** ****** ****** ****** ****** ****** ****** ****** ******
  25  ****** ****** ****** ****** ****** ****** ****** ****** ****** ******
      ****** ****** ****** ****** ****** ****** ****** ****** ****** ******
      ****** ****** ****** ****** ****** ****** ****** ****** ****** ******

 HEAD WILL BE SAVED ON UNIT   51 AT END OF TIME STEP    1, STRESS PERIOD    2
1
  VOLUMETRIC BUDGET FOR ENTIRE MODEL AT END OF TIME STEP    1, STRESS PERIOD   2
  ------------------------------------------------------------------------------

     CUMULATIVE VOLUMES      L**3       RATES FOR THIS TIME STEP      L**3/T
     ------------------                 ------------------------

           IN:                                      IN:
           ---                                      ---
             STORAGE =    22254874.3678               STORAGE =       51898.9315
       CONSTANT HEAD =     2588678.8652         CONSTANT HEAD =       16223.8157
               WELLS =           0.0000                 WELLS =           0.0000
            RECHARGE =     6292800.0000              RECHARGE =       55200.0000
      STREAM LEAKAGE =     1182080.9184        STREAM LEAKAGE =        8051.1577

            TOTAL IN =    32318434.1514              TOTAL IN =      131373.9050

          OUT:                                     OUT:
          ----                                     ----
             STORAGE =           0.0000               STORAGE =           0.0000
       CONSTANT HEAD =           0.0000         CONSTANT HEAD =           0.0000
               WELLS =     5583398.3092                 WELLS =       30510.3733
            RECHARGE =           0.0000              RECHARGE =           0.0000
      STREAM LEAKAGE =    26735037.0549        STREAM LEAKAGE =      100863.5418

           TOTAL OUT =    32318435.3641             TOTAL OUT =      131373.9151

            IN - OUT =          -1.2127              IN - OUT =      -1.0173E-02

 PERCENT DISCREPANCY =          -0.00     PERCENT DISCREPANCY =          -0.00






         TIME SUMMARY AT END OF TIME STEP    1 IN STRESS PERIOD    2
                    SECONDS     MINUTES      HOURS       DAYS        YEARS
                    -----------------------------------------------------------
   TIME STEP LENGTH 7.86240E+06 1.31040E+05  2184.0      91.000     0.24914    
 STRESS PERIOD TIME 7.86240E+06 1.31040E+05  2184.0      91.000     0.24914    
         TOTAL TIME 1.58112E+07 2.63520E+05  4392.0      183.00     0.50103    
1
1
                            STRESS PERIOD NO.    3, LENGTH =   91.00000    
                            -----------------------------------------------

                              NUMBER OF TIME STEPS =     1

                               MULTIPLIER FOR DELT =     1.500

                            INITIAL TIME STEP SIZE =   91.00000    

 WELL NO.  LAYER   ROW   COL   STRESS RATE         
 --------------------------------------------------
      1      1     12     11      -2057.    
      2      1     16     17     -0.1037E+05
      3      1     11     22     -0.1125E+05
      4      1     14     25      -6834.    

      4 WELLS

                 RECHARGE =   0.00000    

 REUSING STREAM SEGMENT DATA FROM LAST STRESS PERIOD
 
 SOLVING FOR HEAD 


     7 CALLS TO PCG ROUTINE FOR TIME STEP   1 IN STRESS PERIOD    3
    27 TOTAL ITERATIONS

 OUTPUT CONTROL FOR STRESS PERIOD    3   TIME STEP    1
    SAVE BUDGET
    SAVE HEAD FOR ALL LAYERS
    PRINT HEAD FOR ALL LAYERS
 UBDSV2 SAVING "STREAMFLOW OUT  " ON UNIT  50 AT TIME STEP  1, STRESS PERIOD   3



 STREAM LISTING     PERIOD      3   STEP        1

 LAYER ROW COL. STREAM  RCH.  FLOW INTO     FLOW TO   FLOW OUT OF   OVRLND.     DIRECT     STREAM       STREAM     STREAM     STREAM   STREAMBED  STREAMBED
                SEG.NO.  NO.  STRM. RCH.    AQUIFER    STRM. RCH.    RUNOFF     PRECIP       ET          HEAD       DEPTH      WIDTH   CONDCTNC.   GRADIENT

   1   13    1     1     1    1.0000E+05 -2.7565E+03   1.0276E+05  0.000E+00  0.000E+00  0.000E+00  4.84072E+01  1.458E-01  2.000E+01  2.000E+04 -1.378E-01
   1   13    2     1     2    1.0276E+05 -3.8634E+03   1.0662E+05  0.000E+00  0.000E+00  0.000E+00  4.79328E+01  1.487E-01  2.000E+01  2.000E+04 -1.932E-01
   1   14    3     1     3    1.0662E+05 -6.5099E+02   1.0727E+05  0.000E+00  0.000E+00  0.000E+00  4.74574E+01  1.506E-01  2.000E+01  2.000E+04 -3.255E-02
   1   15    4     1     4    1.0727E+05 -6.3203E+02   1.0790E+05  0.000E+00  0.000E+00  0.000E+00  4.69807E+01  1.511E-01  2.000E+01  2.000E+04 -3.160E-02
   1   16    5     1     5    1.0790E+05 -2.4201E+03   1.1032E+05  0.000E+00  0.000E+00  0.000E+00  4.65047E+01  1.524E-01  2.000E+01  2.000E+04 -1.210E-01
   1   16    6     1     6    1.1032E+05 -1.4691E+03   1.1179E+05  0.000E+00  0.000E+00  0.000E+00  4.60290E+01  1.540E-01  2.000E+01  2.000E+04 -7.345E-02
   1   16    7     1     7    1.1179E+05 -1.4187E+03   1.1321E+05  0.000E+00  0.000E+00  0.000E+00  4.55530E+01  1.552E-01  2.000E+01  2.000E+04 -7.093E-02
   1   16    8     1     8    1.1321E+05 -1.3852E+03   1.1460E+05  0.000E+00  0.000E+00  0.000E+00  4.50769E+01  1.564E-01  2.000E+01  2.000E+04 -6.926E-02
   1   16    9     1     9    1.1460E+05 -1.3366E+03   1.1593E+05  0.000E+00  0.000E+00  0.000E+00  4.46007E+01  1.575E-01  2.000E+01  2.000E+04 -6.683E-02
   1   16   10     1    10    1.1593E+05 -1.2685E+03   1.1720E+05  0.000E+00  0.000E+00  0.000E+00  4.41245E+01  1.586E-01  2.000E+01  2.000E+04 -6.343E-02
   1   16   11     1    11    1.1720E+05 -1.2003E+03   1.1840E+05  0.000E+00  0.000E+00  0.000E+00  4.36482E+01  1.596E-01  2.000E+01  2.000E+04 -6.001E-02
   1   16   12     1    12    1.1840E+05 -1.7806E+03   1.2018E+05  0.000E+00  0.000E+00  0.000E+00  4.31722E+01  1.608E-01  2.000E+01  2.000E+04 -8.903E-02
   1   15   13     1    13    1.2018E+05 -1.3653E+03   1.2155E+05  0.000E+00  0.000E+00  0.000E+00  4.26962E+01  1.621E-01  2.000E+01  2.000E+04 -6.826E-02
   1   14   14     1    14    1.2155E+05 -1.4883E+03   1.2304E+05  0.000E+00  0.000E+00  0.000E+00  4.22200E+01  1.632E-01  2.000E+01  2.000E+04 -7.441E-02
   1   13   15     1    15    1.2304E+05 -1.9842E+03   1.2502E+05  0.000E+00  0.000E+00  0.000E+00  4.17441E+01  1.646E-01  2.000E+01  2.000E+04 -9.921E-02
   1   12   16     1    16    1.2502E+05 -3.3160E+03   1.2834E+05  0.000E+00  0.000E+00  0.000E+00  4.12690E+01  1.667E-01  2.000E+01  2.000E+04 -1.658E-01
   1   12   17     1    17    1.2834E+05 -1.8051E+03   1.3014E+05  0.000E+00  0.000E+00  0.000E+00  4.07937E+01  1.687E-01  2.000E+01  2.000E+04 -9.025E-02
   1   12   18     1    18    1.3014E+05 -1.5868E+03   1.3173E+05  0.000E+00  0.000E+00  0.000E+00  4.03178E+01  1.700E-01  2.000E+01  2.000E+04 -7.934E-02
   1   12   19     1    19    1.3173E+05 -1.5450E+03   1.3327E+05  0.000E+00  0.000E+00  0.000E+00  3.98417E+01  1.713E-01  2.000E+01  2.000E+04 -7.725E-02
   1   13   20     1    20    1.3327E+05 -3.3869E+02   1.3361E+05  0.000E+00  0.000E+00  0.000E+00  3.93652E+01  1.720E-01  2.000E+01  2.000E+04 -1.693E-02
   1   14   21     1    21    1.3361E+05 -7.6128E+02   1.3437E+05  0.000E+00  0.000E+00  0.000E+00  3.88883E+01  1.724E-01  2.000E+01  2.000E+04 -3.806E-02
   1   14   22     1    22    1.3437E+05  5.2721E+03   1.2910E+05  0.000E+00  0.000E+00  0.000E+00  3.84093E+01  1.707E-01  2.000E+01  2.000E+04  2.636E-01
   1    9   30     2     1    5.0000E+04 -8.2451E+02   5.0825E+04  0.000E+00  0.000E+00  0.000E+00  4.02414E+01  1.164E-01  2.000E+01  2.000E+04 -4.123E-02
   1    9   29     2     2    5.0825E+04 -1.1217E+03   5.1946E+04  0.000E+00  0.000E+00  0.000E+00  3.99928E+01  1.178E-01  2.000E+01  2.000E+04 -5.608E-02
   1    9   28     2     3    5.1946E+04 -1.3795E+03   5.3326E+04  0.000E+00  0.000E+00  0.000E+00  3.97445E+01  1.195E-01  2.000E+01  2.000E+04 -6.898E-02
   1    9   27     2     4    5.3326E+04 -2.7318E+03   5.6057E+04  0.000E+00  0.000E+00  0.000E+00  3.94973E+01  1.223E-01  2.000E+01  2.000E+04 -1.366E-01
   1   10   26     2     5    5.6057E+04 -1.3550E+03   5.7412E+04  0.000E+00  0.000E+00  0.000E+00  3.92500E+01  1.250E-01  2.000E+01  2.000E+04 -6.775E-02
   1   11   25     2     6    5.7412E+04 -6.0216E+01   5.7473E+04  0.000E+00  0.000E+00  0.000E+00  3.90009E+01  1.259E-01  2.000E+01  2.000E+04 -3.011E-03
   1   12   24     2     7    5.7473E+04  1.2131E+03   5.6260E+04  0.000E+00  0.000E+00  0.000E+00  3.87502E+01  1.252E-01  2.000E+01  2.000E+04  6.066E-02
   1   13   23     2     8    5.6260E+04  5.3493E+02   5.5725E+04  0.000E+00  0.000E+00  0.000E+00  3.84990E+01  1.240E-01  2.000E+01  2.000E+04  2.675E-02
   1   14   22     2     9    5.5725E+04  2.0319E+03   5.3693E+04  0.000E+00  0.000E+00  0.000E+00  3.82473E+01  1.223E-01  2.000E+01  2.000E+04  1.016E-01
   1   14   22     3     1    1.8279E+05 -8.3086E+03   1.9110E+05  0.000E+00  0.000E+00  0.000E+00  3.77303E+01  1.747E-01  2.000E+01  2.000E+04 -4.154E-01
   1   15   23     3     2    1.9110E+05 -4.1505E+02   1.9152E+05  0.000E+00  0.000E+00  0.000E+00  3.68438E+01  1.772E-01  2.000E+01  2.000E+04 -2.075E-02
   1   15   24     3     3    1.9152E+05  3.1720E+02   1.9120E+05  0.000E+00  0.000E+00  0.000E+00  3.59550E+01  1.772E-01  2.000E+01  2.000E+04  1.586E-02
   1   15   25     3     4    1.9120E+05  1.8379E+03   1.8936E+05  0.000E+00  0.000E+00  0.000E+00  3.50655E+01  1.766E-01  2.000E+01  2.000E+04  9.189E-02
   1   15   26     3     5    1.8936E+05  3.4303E+02   1.8902E+05  0.000E+00  0.000E+00  0.000E+00  3.41760E+01  1.760E-01  2.000E+01  2.000E+04  1.715E-02
   1   16   27     3     6    1.8902E+05 -3.5553E+02   1.8937E+05  0.000E+00  0.000E+00  0.000E+00  3.32871E+01  1.760E-01  2.000E+01  2.000E+04 -1.778E-02
   1   17   28     3     7    1.8937E+05 -1.6592E+03   1.9103E+05  0.000E+00  0.000E+00  0.000E+00  3.23988E+01  1.765E-01  2.000E+01  2.000E+04 -8.296E-02
   1   18   29     3     8    1.9103E+05 -3.4132E+03   1.9445E+05  0.000E+00  0.000E+00  0.000E+00  3.15113E+01  1.779E-01  2.000E+01  2.000E+04 -1.707E-01
   1   18   30     3     9    1.9445E+05 -3.4482E+03   1.9789E+05  0.000E+00  0.000E+00  0.000E+00  3.06243E+01  1.798E-01  2.000E+01  2.000E+04 -1.724E-01



1
              HEAD IN LAYER   1 AT END OF TIME STEP   1 IN STRESS PERIOD    3
  ---------------------------------------------------------------------------

          1      2      3      4      5      6      7      8      9     10
         11     12     13     14     15     16     17     18     19     20
         21     22     23     24     25     26     27     28     29     30
 .........................................................................
   1  ****** ****** ****** ****** ****** ****** ****** ****** ****** ******
      ****** ****** ****** ****** ****** ****** ****** ****** ****** ******
      ****** ****** ****** ****** ****** ****** ****** ****** ****** ******
   2  ****** ****** ****** ****** ****** ****** ****** ****** ****** ******
      ****** ****** ****** ****** ****** ****** ****** ****** ****** ******
      ****** ****** ****** ****** ****** ****** ****** ****** ****** ******
   3  ****** ****** ****** ****** ****** ****** ****** ****** ****** ******
      ****** ****** ****** ****** ****** ****** ****** ****** ****** ******
      ****** ****** ****** ****** ****** ****** ****** ****** ****** ******
   4  ****** ****** ****** ****** ****** ****** ****** ****** ****** ******
      ****** ****** ****** ****** ****** ****** ****** ****** ****** ******
      ****** ****** ****** ****** ****** ****** ****** ****** ****** ******
   5  ****** ****** ****** ****** ****** ****** ****** ****** ****** ******
      ****** ****** ****** ****** ****** ****** ****** ****** ****** ******
      ****** ****** ****** ****** ****** ****** ****** ****** ****** ******
   6  ****** ****** ****** ****** ****** ****** ****** ****** ****** ******
      ****** ****** ****** ****** ****** ****** ****** ****** ****** ******
      ****** ****** ****** ****** ****** ****** ****** ****** ****** ******
   7  ****** ****** ****** ****** ****** ****** ****** ****** ****** ******
      ****** ****** ****** ****** ****** ****** ****** ****** ****** ******
      ****** ****** ****** ****** ****** ****** ****** ****** ****** ******
   8  ****** ****** ****** ****** ****** ****** ****** ****** ****** ******
      ****** ****** ****** ****** ****** ****** ****** ****** ****** ******
      ****** ****** ****** ****** ****** ****** ****** ****** ****** ******
   9  ****** ****** ****** ****** ****** ****** ****** ****** ****** ******
      ****** ****** ****** ****** ****** ****** ****** ****** ****** ******
      ****** ****** ****** ****** ****** ****** ****** ****** ****** ******
  10  ****** ****** ****** ****** ****** ****** ****** ****** ****** ******
      ****** ****** ****** ****** ****** ****** ****** ****** ****** ******
      ****** ****** ****** ****** ****** ****** ****** ****** ****** ******
  11  ****** ****** ****** ****** ****** ****** ****** ****** ****** ******
      ****** ****** ****** ****** ****** ****** ****** ****** ****** ******
      ****** ****** ****** ****** ****** ****** ****** ****** ****** ******
  12  ****** ****** ****** ****** ****** ****** ****** ****** ****** ******
      ****** ****** ****** ****** ****** ****** ****** ****** ****** ******
      ****** ****** ****** ****** ****** ****** ****** ****** ****** ******
  13  ****** ****** ****** ****** ****** ****** ****** ****** ****** ******
      ****** ****** ****** ****** ****** ****** ****** ****** ****** ******
      ****** ****** ****** ****** ****** ****** ****** ****** ****** ******
  14  ****** ****** ****** ****** ****** ****** ****** ****** ****** ******
      ****** ****** ****** ****** ****** ****** ****** ****** ****** ******
      ****** ****** ****** ****** ****** ****** ****** ****** ****** ******
  15  ****** ****** ****** ****** ****** ****** ****** ****** ****** ******
      ****** ****** ****** ****** ****** ****** ****** ****** ****** ******
      ****** ****** ****** ****** ****** ****** ****** ****** ****** ******
  16  ****** ****** ****** ****** ****** ****** ****** ****** ****** ******
      ****** ****** ****** ****** ****** ****** ****** ****** ****** ******
      ****** ****** ****** ****** ****** ****** ****** ****** ****** ******
  17  ****** ****** ****** ****** ****** ****** ****** ****** ****** ******
      ****** ****** ****** ****** ****** ****** ****** ****** ****** ******
      ****** ****** ****** ****** ****** ****** ****** ****** ****** ******
  18  ****** ****** ****** ****** ****** ****** ****** ****** ****** ******
      ****** ****** ****** ****** ****** ****** ****** ****** ****** ******
      ****** ****** ****** ****** ****** ****** ****** ****** ****** ******
  19  ****** ****** ****** ****** ****** ****** ****** ****** ****** ******
      ****** ****** ****** ****** ****** ****** ****** ****** ****** ******
      ****** ****** ****** ****** ****** ****** ****** ****** ****** ******
  20  ****** ****** ****** ****** ****** ****** ****** ****** ****** ******
      ****** ****** ****** ****** ****** ****** ****** ****** ****** ******
      ****** ****** ****** ****** ****** ****** ****** ****** ****** ******
  21  ****** ****** ****** ****** ****** ****** ****** ****** ****** ******
      ****** ****** ****** ****** ****** ****** ****** ****** ****** ******
      ****** ****** ****** ****** ****** ****** ****** ****** ****** ******
  22  ****** ****** ****** ****** ****** ****** ****** ****** ****** ******
      ****** ****** ****** ****** ****** ****** ****** ****** ****** ******
      ****** ****** ****** ****** ****** ****** ****** ****** ****** ******
  23  ****** ****** ****** ****** ****** ****** ****** ****** ****** ******
      ****** ****** ****** ****** ****** ****** ****** ****** ****** ******
      ****** ****** ****** ****** ****** ****** ****** ****** ****** ******
  24  ****** ****** ****** ****** ****** ****** ****** ****** ****** ******
      ****** ****** ****** ****** ****** ****** ****** ****** ****** ******
      ****** ****** ****** ****** ****** ****** ****** ****** ****** ******
  25  ****** ****** ****** ****** ****** ****** ****** ****** ****** ******
      ****** ****** ****** ****** ****** ****** ****** ****** ****** ******
      ****** ****** ****** ****** ****** ****** ****** ****** ****** ******

 HEAD WILL BE SAVED ON UNIT   51 AT END OF TIME STEP    1, STRESS PERIOD    3
1
  VOLUMETRIC BUDGET FOR ENTIRE MODEL AT END OF TIME STEP    1, STRESS PERIOD   3
  ------------------------------------------------------------------------------

     CUMULATIVE VOLUMES      L**3       RATES FOR THIS TIME STEP      L**3/T
     ------------------                 ------------------------

           IN:                                      IN:
           ---                                      ---
             STORAGE =    27156385.3843               STORAGE =       53862.7584
       CONSTANT HEAD =     4822050.7621         CONSTANT HEAD =       24542.5483
               WELLS =           0.0000                 WELLS =           0.0000
            RECHARGE =     6292800.0000              RECHARGE =           0.0000
      STREAM LEAKAGE =     2233141.4237        STREAM LEAKAGE =       11550.1154

            TOTAL IN =    40504377.5701              TOTAL IN =       89955.4222

          OUT:                                     OUT:
          ----                                     ----
             STORAGE =           0.0000               STORAGE =           0.0000
       CONSTANT HEAD =           0.0000         CONSTANT HEAD =           0.0000
               WELLS =     8359842.2772                 WELLS =       30510.3733
            RECHARGE =           0.0000              RECHARGE =           0.0000
      STREAM LEAKAGE =    32144537.1789        STREAM LEAKAGE =       59445.0563

           TOTAL OUT =    40504379.4561             TOTAL OUT =       89955.4296

            IN - OUT =          -1.8860              IN - OUT =      -7.3988E-03

 PERCENT DISCREPANCY =          -0.00     PERCENT DISCREPANCY =          -0.00






         TIME SUMMARY AT END OF TIME STEP    1 IN STRESS PERIOD    3
                    SECONDS     MINUTES      HOURS       DAYS        YEARS
                    -----------------------------------------------------------
   TIME STEP LENGTH 7.86240E+06 1.31040E+05  2184.0      91.000     0.24914    
 STRESS PERIOD TIME 7.86240E+06 1.31040E+05  2184.0      91.000     0.24914    
         TOTAL TIME 2.36736E+07 3.94560E+05  6576.0      274.00     0.75017    
1
1
                            STRESS PERIOD NO.    4, LENGTH =   91.00000    
                            -----------------------------------------------

                              NUMBER OF TIME STEPS =     1

                               MULTIPLIER FOR DELT =     1.500

                            INITIAL TIME STEP SIZE =   91.00000    

 WELL NO.  LAYER   ROW   COL   STRESS RATE         
 --------------------------------------------------
      1      1     12     11      -2057.    
      2      1     16     17     -0.1037E+05
      3      1     11     22     -0.1125E+05
      4      1     14     25      -6834.    

      4 WELLS

                 RECHARGE =  1.000000E-03

 REUSING STREAM SEGMENT DATA FROM LAST STRESS PERIOD
 
 SOLVING FOR HEAD 


     6 CALLS TO PCG ROUTINE FOR TIME STEP   1 IN STRESS PERIOD    4
    23 TOTAL ITERATIONS

 OUTPUT CONTROL FOR STRESS PERIOD    4   TIME STEP    1
    SAVE BUDGET
    SAVE HEAD FOR ALL LAYERS
    PRINT HEAD FOR ALL LAYERS
 UBDSV2 SAVING "STREAMFLOW OUT  " ON UNIT  50 AT TIME STEP  1, STRESS PERIOD   4



 STREAM LISTING     PERIOD      4   STEP        1

 LAYER ROW COL. STREAM  RCH.  FLOW INTO     FLOW TO   FLOW OUT OF   OVRLND.     DIRECT     STREAM       STREAM     STREAM     STREAM   STREAMBED  STREAMBED
                SEG.NO.  NO.  STRM. RCH.    AQUIFER    STRM. RCH.    RUNOFF     PRECIP       ET          HEAD       DEPTH      WIDTH   CONDCTNC.   GRADIENT

   1   13    1     1     1    1.0000E+05 -2.5255E+03   1.0253E+05  0.000E+00  0.000E+00  0.000E+00  4.84071E+01  1.457E-01  2.000E+01  2.000E+04 -1.263E-01
   1   13    2     1     2    1.0253E+05 -3.5940E+03   1.0612E+05  0.000E+00  0.000E+00  0.000E+00  4.79325E+01  1.484E-01  2.000E+01  2.000E+04 -1.797E-01
   1   14    3     1     3    1.0612E+05 -6.2175E+02   1.0674E+05  0.000E+00  0.000E+00  0.000E+00  4.74570E+01  1.502E-01  2.000E+01  2.000E+04 -3.109E-02
   1   15    4     1     4    1.0674E+05 -5.9241E+02   1.0733E+05  0.000E+00  0.000E+00  0.000E+00  4.69802E+01  1.507E-01  2.000E+01  2.000E+04 -2.962E-02
   1   16    5     1     5    1.0733E+05 -2.1138E+03   1.0945E+05  0.000E+00  0.000E+00  0.000E+00  4.65041E+01  1.518E-01  2.000E+01  2.000E+04 -1.057E-01
   1   16    6     1     6    1.0945E+05 -1.3167E+03   1.1076E+05  0.000E+00  0.000E+00  0.000E+00  4.60283E+01  1.533E-01  2.000E+01  2.000E+04 -6.584E-02
   1   16    7     1     7    1.1076E+05 -1.2764E+03   1.1204E+05  0.000E+00  0.000E+00  0.000E+00  4.55521E+01  1.543E-01  2.000E+01  2.000E+04 -6.382E-02
   1   16    8     1     8    1.1204E+05 -1.2459E+03   1.1329E+05  0.000E+00  0.000E+00  0.000E+00  4.50758E+01  1.554E-01  2.000E+01  2.000E+04 -6.229E-02
   1   16    9     1     9    1.1329E+05 -1.1990E+03   1.1449E+05  0.000E+00  0.000E+00  0.000E+00  4.45996E+01  1.564E-01  2.000E+01  2.000E+04 -5.995E-02
   1   16   10     1    10    1.1449E+05 -1.1337E+03   1.1562E+05  0.000E+00  0.000E+00  0.000E+00  4.41233E+01  1.573E-01  2.000E+01  2.000E+04 -5.669E-02
   1   16   11     1    11    1.1562E+05 -1.0655E+03   1.1668E+05  0.000E+00  0.000E+00  0.000E+00  4.36469E+01  1.582E-01  2.000E+01  2.000E+04 -5.328E-02
   1   16   12     1    12    1.1668E+05 -1.4991E+03   1.1818E+05  0.000E+00  0.000E+00  0.000E+00  4.31707E+01  1.593E-01  2.000E+01  2.000E+04 -7.495E-02
   1   15   13     1    13    1.1818E+05 -1.1050E+03   1.1929E+05  0.000E+00  0.000E+00  0.000E+00  4.26944E+01  1.604E-01  2.000E+01  2.000E+04 -5.525E-02
   1   14   14     1    14    1.1929E+05 -1.2100E+03   1.2050E+05  0.000E+00  0.000E+00  0.000E+00  4.22181E+01  1.613E-01  2.000E+01  2.000E+04 -6.050E-02
   1   13   15     1    15    1.2050E+05 -1.6873E+03   1.2219E+05  0.000E+00  0.000E+00  0.000E+00  4.17420E+01  1.625E-01  2.000E+01  2.000E+04 -8.437E-02
   1   12   16     1    16    1.2219E+05 -2.9329E+03   1.2512E+05  0.000E+00  0.000E+00  0.000E+00  4.12666E+01  1.643E-01  2.000E+01  2.000E+04 -1.466E-01
   1   12   17     1    17    1.2512E+05 -1.5750E+03   1.2669E+05  0.000E+00  0.000E+00  0.000E+00  4.07911E+01  1.661E-01  2.000E+01  2.000E+04 -7.875E-02
   1   12   18     1    18    1.2669E+05 -1.3728E+03   1.2807E+05  0.000E+00  0.000E+00  0.000E+00  4.03150E+01  1.673E-01  2.000E+01  2.000E+04 -6.864E-02
   1   12   19     1    19    1.2807E+05 -1.2806E+03   1.2935E+05  0.000E+00  0.000E+00  0.000E+00  3.98388E+01  1.683E-01  2.000E+01  2.000E+04 -6.403E-02
   1   13   20     1    20    1.2935E+05 -1.6306E+02   1.2951E+05  0.000E+00  0.000E+00  0.000E+00  3.93620E+01  1.689E-01  2.000E+01  2.000E+04 -8.153E-03
   1   14   21     1    21    1.2951E+05 -5.1898E+02   1.3003E+05  0.000E+00  0.000E+00  0.000E+00  3.88850E+01  1.691E-01  2.000E+01  2.000E+04 -2.595E-02
   1   14   22     1    22    1.3003E+05  5.3100E+03   1.2472E+05  0.000E+00  0.000E+00  0.000E+00  3.84059E+01  1.673E-01  2.000E+01  2.000E+04  2.655E-01
   1    9   30     2     1    5.0000E+04 -7.3413E+02   5.0734E+04  0.000E+00  0.000E+00  0.000E+00  4.02414E+01  1.164E-01  2.000E+01  2.000E+04 -3.671E-02
   1    9   29     2     2    5.0734E+04 -1.0243E+03   5.1758E+04  0.000E+00  0.000E+00  0.000E+00  3.99926E+01  1.176E-01  2.000E+01  2.000E+04 -5.122E-02
   1    9   28     2     3    5.1758E+04 -1.2621E+03   5.3021E+04  0.000E+00  0.000E+00  0.000E+00  3.97442E+01  1.192E-01  2.000E+01  2.000E+04 -6.311E-02
   1    9   27     2     4    5.3021E+04 -2.4650E+03   5.5486E+04  0.000E+00  0.000E+00  0.000E+00  3.94967E+01  1.217E-01  2.000E+01  2.000E+04 -1.232E-01
   1   10   26     2     5    5.5486E+04 -1.1949E+03   5.6680E+04  0.000E+00  0.000E+00  0.000E+00  3.92491E+01  1.241E-01  2.000E+01  2.000E+04 -5.975E-02
   1   11   25     2     6    5.6680E+04  6.4368E+01   5.6616E+04  0.000E+00  0.000E+00  0.000E+00  3.89999E+01  1.249E-01  2.000E+01  2.000E+04  3.218E-03
   1   12   24     2     7    5.6616E+04  1.3235E+03   5.5293E+04  0.000E+00  0.000E+00  0.000E+00  3.87490E+01  1.240E-01  2.000E+01  2.000E+04  6.617E-02
   1   13   23     2     8    5.5293E+04  5.1469E+02   5.4778E+04  0.000E+00  0.000E+00  0.000E+00  3.84977E+01  1.227E-01  2.000E+01  2.000E+04  2.573E-02
   1   14   22     2     9    5.4778E+04  2.1116E+03   5.2666E+04  0.000E+00  0.000E+00  0.000E+00  3.82460E+01  1.210E-01  2.000E+01  2.000E+04  1.056E-01
   1   14   22     3     1    1.7739E+05 -8.2636E+03   1.8565E+05  0.000E+00  0.000E+00  0.000E+00  3.77272E+01  1.717E-01  2.000E+01  2.000E+04 -4.132E-01
   1   15   23     3     2    1.8565E+05 -3.8660E+02   1.8604E+05  0.000E+00  0.000E+00  0.000E+00  3.68408E+01  1.741E-01  2.000E+01  2.000E+04 -1.933E-02
   1   15   24     3     3    1.8604E+05  3.2514E+02   1.8571E+05  0.000E+00  0.000E+00  0.000E+00  3.59519E+01  1.741E-01  2.000E+01  2.000E+04  1.626E-02
   1   15   25     3     4    1.8571E+05  1.8483E+03   1.8386E+05  0.000E+00  0.000E+00  0.000E+00  3.50624E+01  1.735E-01  2.000E+01  2.000E+04  9.242E-02
   1   15   26     3     5    1.8386E+05  3.4305E+02   1.8352E+05  0.000E+00  0.000E+00  0.000E+00  3.41729E+01  1.729E-01  2.000E+01  2.000E+04  1.715E-02
   1   16   27     3     6    1.8352E+05 -3.5263E+02   1.8387E+05  0.000E+00  0.000E+00  0.000E+00  3.32840E+01  1.729E-01  2.000E+01  2.000E+04 -1.763E-02
   1   17   28     3     7    1.8387E+05 -1.5859E+03   1.8546E+05  0.000E+00  0.000E+00  0.000E+00  3.23957E+01  1.734E-01  2.000E+01  2.000E+04 -7.929E-02
   1   18   29     3     8    1.8546E+05 -3.1872E+03   1.8865E+05  0.000E+00  0.000E+00  0.000E+00  3.15081E+01  1.748E-01  2.000E+01  2.000E+04 -1.594E-01
   1   18   30     3     9    1.8865E+05 -3.3338E+03   1.9198E+05  0.000E+00  0.000E+00  0.000E+00  3.06210E+01  1.766E-01  2.000E+01  2.000E+04 -1.667E-01



1
              HEAD IN LAYER   1 AT END OF TIME STEP   1 IN STRESS PERIOD    4
  ---------------------------------------------------------------------------

          1      2      3      4      5      6      7      8      9     10
         11     12     13     14     15     16     17     18     19     20
         21     22     23     24     25     26     27     28     29     30
 .........................................................................
   1  ****** ****** ****** ****** ****** ****** ****** ****** ****** ******
      ****** ****** ****** ****** ****** ****** ****** ****** ****** ******
      ****** ****** ****** ****** ****** ****** ****** ****** ****** ******
   2  ****** ****** ****** ****** ****** ****** ****** ****** ****** ******
      ****** ****** ****** ****** ****** ****** ****** ****** ****** ******
      ****** ****** ****** ****** ****** ****** ****** ****** ****** ******
   3  ****** ****** ****** ****** ****** ****** ****** ****** ****** ******
      ****** ****** ****** ****** ****** ****** ****** ****** ****** ******
      ****** ****** ****** ****** ****** ****** ****** ****** ****** ******
   4  ****** ****** ****** ****** ****** ****** ****** ****** ****** ******
      ****** ****** ****** ****** ****** ****** ****** ****** ****** ******
      ****** ****** ****** ****** ****** ****** ****** ****** ****** ******
   5  ****** ****** ****** ****** ****** ****** ****** ****** ****** ******
      ****** ****** ****** ****** ****** ****** ****** ****** ****** ******
      ****** ****** ****** ****** ****** ****** ****** ****** ****** ******
   6  ****** ****** ****** ****** ****** ****** ****** ****** ****** ******
      ****** ****** ****** ****** ****** ****** ****** ****** ****** ******
      ****** ****** ****** ****** ****** ****** ****** ****** ****** ******
   7  ****** ****** ****** ****** ****** ****** ****** ****** ****** ******
      ****** ****** ****** ****** ****** ****** ****** ****** ****** ******
      ****** ****** ****** ****** ****** ****** ****** ****** ****** ******
   8  ****** ****** ****** ****** ****** ****** ****** ****** ****** ******
      ****** ****** ****** ****** ****** ****** ****** ****** ****** ******
      ****** ****** ****** ****** ****** ****** ****** ****** ****** ******
   9  ****** ****** ****** ****** ****** ****** ****** ****** ****** ******
      ****** ****** ****** ****** ****** ****** ****** ****** ****** ******
      ****** ****** ****** ****** ****** ****** ****** ****** ****** ******
  10  ****** ****** ****** ****** ****** ****** ****** ****** ****** ******
      ****** ****** ****** ****** ****** ****** ****** ****** ****** ******
      ****** ****** ****** ****** ****** ****** ****** ****** ****** ******
  11  ****** ****** ****** ****** ****** ****** ****** ****** ****** ******
      ****** ****** ****** ****** ****** ****** ****** ****** ****** ******
      ****** ****** ****** ****** ****** ****** ****** ****** ****** ******
  12  ****** ****** ****** ****** ****** ****** ****** ****** ****** ******
      ****** ****** ****** ****** ****** ****** ****** ****** ****** ******
      ****** ****** ****** ****** ****** ****** ****** ****** ****** ******
  13  ****** ****** ****** ****** ****** ****** ****** ****** ****** ******
      ****** ****** ****** ****** ****** ****** ****** ****** ****** ******
      ****** ****** ****** ****** ****** ****** ****** ****** ****** ******
  14  ****** ****** ****** ****** ****** ****** ****** ****** ****** ******
      ****** ****** ****** ****** ****** ****** ****** ****** ****** ******
      ****** ****** ****** ****** ****** ****** ****** ****** ****** ******
  15  ****** ****** ****** ****** ****** ****** ****** ****** ****** ******
      ****** ****** ****** ****** ****** ****** ****** ****** ****** ******
      ****** ****** ****** ****** ****** ****** ****** ****** ****** ******
  16  ****** ****** ****** ****** ****** ****** ****** ****** ****** ******
      ****** ****** ****** ****** ****** ****** ****** ****** ****** ******
      ****** ****** ****** ****** ****** ****** ****** ****** ****** ******
  17  ****** ****** ****** ****** ****** ****** ****** ****** ****** ******
      ****** ****** ****** ****** ****** ****** ****** ****** ****** ******
      ****** ****** ****** ****** ****** ****** ****** ****** ****** ******
  18  ****** ****** ****** ****** ****** ****** ****** ****** ****** ******
      ****** ****** ****** ****** ****** ****** ****** ****** ****** ******
      ****** ****** ****** ****** ****** ****** ****** ****** ****** ******
  19  ****** ****** ****** ****** ****** ****** ****** ****** ****** ******
      ****** ****** ****** ****** ****** ****** ****** ****** ****** ******
      ****** ****** ****** ****** ****** ****** ****** ****** ****** ******
  20  ****** ****** ****** ****** ****** ****** ****** ****** ****** ******
      ****** ****** ****** ****** ****** ****** ****** ****** ****** ******
      ****** ****** ****** ****** ****** ****** ****** ****** ****** ******
  21  ****** ****** ****** ****** ****** ****** ****** ****** ****** ******
      ****** ****** ****** ****** ****** ****** ****** ****** ****** ******
      ****** ****** ****** ****** ****** ****** ****** ****** ****** ******
  22  ****** ****** ****** ****** ****** ****** ****** ****** ****** ******
      ****** ****** ****** ****** ****** ****** ****** ****** ****** ******
      ****** ****** ****** ****** ****** ****** ****** ****** ****** ******
  23  ****** ****** ****** ****** ****** ****** ****** ****** ****** ******
      ****** ****** ****** ****** ****** ****** ****** ****** ****** ******
      ****** ****** ****** ****** ****** ****** ****** ****** ****** ******
  24  ****** ****** ****** ****** ****** ****** ****** ****** ****** ******
      ****** ****** ****** ****** ****** ****** ****** ****** ****** ******
      ****** ****** ****** ****** ****** ****** ****** ****** ****** ******
  25  ****** ****** ****** ****** ****** ****** ****** ****** ****** ******
      ****** ****** ****** ****** ****** ****** ****** ****** ****** ******
      ****** ****** ****** ****** ****** ****** ****** ****** ****** ******

 HEAD WILL BE SAVED ON UNIT   51 AT END OF TIME STEP    1, STRESS PERIOD    4
1
  VOLUMETRIC BUDGET FOR ENTIRE MODEL AT END OF TIME STEP    1, STRESS PERIOD   4
  ------------------------------------------------------------------------------

     CUMULATIVE VOLUMES      L**3       RATES FOR THIS TIME STEP      L**3/T
     ------------------                 ------------------------

           IN:                                      IN:
           ---                                      ---
             STORAGE =    28783245.6934               STORAGE =       17877.5858
       CONSTANT HEAD =     7280718.0030         CONSTANT HEAD =       27018.3213
               WELLS =           0.0000                 WELLS =           0.0000
            RECHARGE =     8804400.0000              RECHARGE =       27600.0000
      STREAM LEAKAGE =     3310640.6739        STREAM LEAKAGE =       11840.6511

            TOTAL IN =    48179004.3703              TOTAL IN =       84336.5582

          OUT:                                     OUT:
          ----                                     ----
             STORAGE =         595.2741               STORAGE =           6.5415
       CONSTANT HEAD =           0.0000         CONSTANT HEAD =           0.0000
               WELLS =    11136286.2452                 WELLS =       30510.3733
            RECHARGE =           0.0000              RECHARGE =           0.0000
      STREAM LEAKAGE =    37042124.8080        STREAM LEAKAGE =       53819.6443

           TOTAL OUT =    48179006.3273             TOTAL OUT =       84336.5590

            IN - OUT =          -1.9570              IN - OUT =      -7.8001E-04

 PERCENT DISCREPANCY =          -0.00     PERCENT DISCREPANCY =          -0.00






         TIME SUMMARY AT END OF TIME STEP    1 IN STRESS PERIOD    4
                    SECONDS     MINUTES      HOURS       DAYS        YEARS
                    -----------------------------------------------------------
   TIME STEP LENGTH 7.86240E+06 1.31040E+05  2184.0      91.000     0.24914    
 STRESS PERIOD TIME 7.86240E+06 1.31040E+05  2184.0      91.000     0.24914    
         TOTAL TIME 3.15360E+07 5.25600E+05  8760.0      365.00     0.99932    
1
1
                            STRESS PERIOD NO.    5, LENGTH =   92.00000    
                            -----------------------------------------------

                              NUMBER OF TIME STEPS =     1

                               MULTIPLIER FOR DELT =     1.500

                            INITIAL TIME STEP SIZE =   92.00000    

 WELL NO.  LAYER   ROW   COL   STRESS RATE         
 --------------------------------------------------
      1      1     12     11      -2057.    
      2      1     16     17     -0.1037E+05
      3      1     11     22     -0.1125E+05
      4      1     14     25      -6834.    

      4 WELLS

                 RECHARGE =  5.000000E-04

 REUSING STREAM SEGMENT DATA FROM LAST STRESS PERIOD
 
 SOLVING FOR HEAD 


     7 CALLS TO PCG ROUTINE FOR TIME STEP   1 IN STRESS PERIOD    5
    26 TOTAL ITERATIONS

 OUTPUT CONTROL FOR STRESS PERIOD    5   TIME STEP    1
    SAVE BUDGET
    SAVE HEAD FOR ALL LAYERS
    PRINT HEAD FOR ALL LAYERS
 UBDSV2 SAVING "STREAMFLOW OUT  " ON UNIT  50 AT TIME STEP  1, STRESS PERIOD   5



 STREAM LISTING     PERIOD      5   STEP        1

 LAYER ROW COL. STREAM  RCH.  FLOW INTO     FLOW TO   FLOW OUT OF   OVRLND.     DIRECT     STREAM       STREAM     STREAM     STREAM   STREAMBED  STREAMBED
                SEG.NO.  NO.  STRM. RCH.    AQUIFER    STRM. RCH.    RUNOFF     PRECIP       ET          HEAD       DEPTH      WIDTH   CONDCTNC.   GRADIENT

   1   13    1     1     1    1.0000E+05 -2.1146E+03   1.0211E+05  0.000E+00  0.000E+00  0.000E+00  4.84069E+01  1.456E-01  2.000E+01  2.000E+04 -1.057E-01
   1   13    2     1     2    1.0211E+05 -3.1290E+03   1.0524E+05  0.000E+00  0.000E+00  0.000E+00  4.79319E+01  1.478E-01  2.000E+01  2.000E+04 -1.564E-01
   1   14    3     1     3    1.0524E+05 -4.9918E+02   1.0574E+05  0.000E+00  0.000E+00  0.000E+00  4.74562E+01  1.494E-01  2.000E+01  2.000E+04 -2.496E-02
   1   15    4     1     4    1.0574E+05 -4.6296E+02   1.0621E+05  0.000E+00  0.000E+00  0.000E+00  4.69793E+01  1.498E-01  2.000E+01  2.000E+04 -2.315E-02
   1   16    5     1     5    1.0621E+05 -1.6810E+03   1.0789E+05  0.000E+00  0.000E+00  0.000E+00  4.65030E+01  1.507E-01  2.000E+01  2.000E+04 -8.405E-02
   1   16    6     1     6    1.0789E+05 -1.0628E+03   1.0895E+05  0.000E+00  0.000E+00  0.000E+00  4.60268E+01  1.518E-01  2.000E+01  2.000E+04 -5.314E-02
   1   16    7     1     7    1.0895E+05 -1.0324E+03   1.0998E+05  0.000E+00  0.000E+00  0.000E+00  4.55504E+01  1.527E-01  2.000E+01  2.000E+04 -5.162E-02
   1   16    8     1     8    1.0998E+05 -1.0050E+03   1.1099E+05  0.000E+00  0.000E+00  0.000E+00  4.50740E+01  1.536E-01  2.000E+01  2.000E+04 -5.025E-02
   1   16    9     1     9    1.1099E+05 -9.6086E+02   1.1195E+05  0.000E+00  0.000E+00  0.000E+00  4.45976E+01  1.544E-01  2.000E+01  2.000E+04 -4.804E-02
   1   16   10     1    10    1.1195E+05 -8.9907E+02   1.1285E+05  0.000E+00  0.000E+00  0.000E+00  4.41211E+01  1.552E-01  2.000E+01  2.000E+04 -4.495E-02
   1   16   11     1    11    1.1285E+05 -8.3075E+02   1.1368E+05  0.000E+00  0.000E+00  0.000E+00  4.36445E+01  1.559E-01  2.000E+01  2.000E+04 -4.154E-02
   1   16   12     1    12    1.1368E+05 -1.0791E+03   1.1476E+05  0.000E+00  0.000E+00  0.000E+00  4.31680E+01  1.567E-01  2.000E+01  2.000E+04 -5.396E-02
   1   15   13     1    13    1.1476E+05 -6.6469E+02   1.1542E+05  0.000E+00  0.000E+00  0.000E+00  4.26915E+01  1.574E-01  2.000E+01  2.000E+04 -3.323E-02
   1   14   14     1    14    1.1542E+05 -7.4438E+02   1.1617E+05  0.000E+00  0.000E+00  0.000E+00  4.22148E+01  1.580E-01  2.000E+01  2.000E+04 -3.722E-02
   1   13   15     1    15    1.1617E+05 -1.2073E+03   1.1737E+05  0.000E+00  0.000E+00  0.000E+00  4.17383E+01  1.588E-01  2.000E+01  2.000E+04 -6.037E-02
   1   12   16     1    16    1.1737E+05 -2.4114E+03   1.1978E+05  0.000E+00  0.000E+00  0.000E+00  4.12625E+01  1.602E-01  2.000E+01  2.000E+04 -1.206E-01
   1   12   17     1    17    1.1978E+05 -1.2244E+03   1.2101E+05  0.000E+00  0.000E+00  0.000E+00  4.07867E+01  1.617E-01  2.000E+01  2.000E+04 -6.122E-02
   1   12   18     1    18    1.2101E+05 -1.0389E+03   1.2205E+05  0.000E+00  0.000E+00  0.000E+00  4.03103E+01  1.626E-01  2.000E+01  2.000E+04 -5.195E-02
   1   12   19     1    19    1.2205E+05 -8.7668E+02   1.2292E+05  0.000E+00  0.000E+00  0.000E+00  3.98338E+01  1.634E-01  2.000E+01  2.000E+04 -4.383E-02
   1   13   20     1    20    1.2292E+05  1.9214E+02   1.2273E+05  0.000E+00  0.000E+00  0.000E+00  3.93568E+01  1.636E-01  2.000E+01  2.000E+04  9.607E-03
   1   14   21     1    21    1.2273E+05 -1.3650E+02   1.2287E+05  0.000E+00  0.000E+00  0.000E+00  3.88795E+01  1.636E-01  2.000E+01  2.000E+04 -6.825E-03
   1   14   22     1    22    1.2287E+05  5.3900E+03   1.1748E+05  0.000E+00  0.000E+00  0.000E+00  3.84002E+01  1.615E-01  2.000E+01  2.000E+04  2.695E-01
   1    9   30     2     1    5.0000E+04 -5.0346E+02   5.0503E+04  0.000E+00  0.000E+00  0.000E+00  4.02412E+01  1.162E-01  2.000E+01  2.000E+04 -2.517E-02
   1    9   29     2     2    5.0503E+04 -7.9020E+02   5.1294E+04  0.000E+00  0.000E+00  0.000E+00  3.99921E+01  1.171E-01  2.000E+01  2.000E+04 -3.951E-02
   1    9   28     2     3    5.1294E+04 -1.0165E+03   5.2310E+04  0.000E+00  0.000E+00  0.000E+00  3.97434E+01  1.184E-01  2.000E+01  2.000E+04 -5.082E-02
   1    9   27     2     4    5.2310E+04 -2.0792E+03   5.4389E+04  0.000E+00  0.000E+00  0.000E+00  3.94955E+01  1.205E-01  2.000E+01  2.000E+04 -1.040E-01
   1   10   26     2     5    5.4389E+04 -8.5699E+02   5.5246E+04  0.000E+00  0.000E+00  0.000E+00  3.92474E+01  1.224E-01  2.000E+01  2.000E+04 -4.285E-02
   1   11   25     2     6    5.5246E+04  3.7562E+02   5.4871E+04  0.000E+00  0.000E+00  0.000E+00  3.89978E+01  1.228E-01  2.000E+01  2.000E+04  1.878E-02
   1   12   24     2     7    5.4871E+04  1.6084E+03   5.3262E+04  0.000E+00  0.000E+00  0.000E+00  3.87464E+01  1.214E-01  2.000E+01  2.000E+04  8.042E-02
   1   13   23     2     8    5.3262E+04  5.8399E+02   5.2678E+04  0.000E+00  0.000E+00  0.000E+00  3.84949E+01  1.199E-01  2.000E+01  2.000E+04  2.920E-02
   1   14   22     2     9    5.2678E+04  2.2473E+03   5.0431E+04  0.000E+00  0.000E+00  0.000E+00  3.82430E+01  1.180E-01  2.000E+01  2.000E+04  1.124E-01
   1   14   22     3     1    1.6791E+05 -8.1780E+03   1.7609E+05  0.000E+00  0.000E+00  0.000E+00  3.77217E+01  1.662E-01  2.000E+01  2.000E+04 -4.089E-01
   1   15   23     3     2    1.7609E+05 -2.8607E+02   1.7637E+05  0.000E+00  0.000E+00  0.000E+00  3.68353E+01  1.686E-01  2.000E+01  2.000E+04 -1.430E-02
   1   15   24     3     3    1.7637E+05  3.9938E+02   1.7597E+05  0.000E+00  0.000E+00  0.000E+00  3.59464E+01  1.686E-01  2.000E+01  2.000E+04  1.997E-02
   1   15   25     3     4    1.7597E+05  1.9223E+03   1.7405E+05  0.000E+00  0.000E+00  0.000E+00  3.50568E+01  1.679E-01  2.000E+01  2.000E+04  9.611E-02
   1   15   26     3     5    1.7405E+05  4.1769E+02   1.7363E+05  0.000E+00  0.000E+00  0.000E+00  3.41673E+01  1.673E-01  2.000E+01  2.000E+04  2.088E-02
   1   16   27     3     6    1.7363E+05 -2.6047E+02   1.7390E+05  0.000E+00  0.000E+00  0.000E+00  3.32783E+01  1.672E-01  2.000E+01  2.000E+04 -1.302E-02
   1   17   28     3     7    1.7390E+05 -1.3126E+03   1.7521E+05  0.000E+00  0.000E+00  0.000E+00  3.23899E+01  1.677E-01  2.000E+01  2.000E+04 -6.563E-02
   1   18   29     3     8    1.7521E+05 -2.8052E+03   1.7801E+05  0.000E+00  0.000E+00  0.000E+00  3.15022E+01  1.689E-01  2.000E+01  2.000E+04 -1.403E-01
   1   18   30     3     9    1.7801E+05 -3.0712E+03   1.8108E+05  0.000E+00  0.000E+00  0.000E+00  3.06150E+01  1.705E-01  2.000E+01  2.000E+04 -1.536E-01



1
              HEAD IN LAYER   1 AT END OF TIME STEP   1 IN STRESS PERIOD    5
  ---------------------------------------------------------------------------

          1      2      3      4      5      6      7      8      9     10
         11     12     13     14     15     16     17     18     19     20
         21     22     23     24     25     26     27     28     29     30
 .........................................................................
   1  ****** ****** ****** ****** ****** ****** ****** ****** ****** ******
      ****** ****** ****** ****** ****** ****** ****** ****** ****** ******
      ****** ****** ****** ****** ****** ****** ****** ****** ****** ******
   2  ****** ****** ****** ****** ****** ****** ****** ****** ****** ******
      ****** ****** ****** ****** ****** ****** ****** ****** ****** ******
      ****** ****** ****** ****** ****** ****** ****** ****** ****** ******
   3  ****** ****** ****** ****** ****** ****** ****** ****** ****** ******
      ****** ****** ****** ****** ****** ****** ****** ****** ****** ******
      ****** ****** ****** ****** ****** ****** ****** ****** ****** ******
   4  ****** ****** ****** ****** ****** ****** ****** ****** ****** ******
      ****** ****** ****** ****** ****** ****** ****** ****** ****** ******
      ****** ****** ****** ****** ****** ****** ****** ****** ****** ******
   5  ****** ****** ****** ****** ****** ****** ****** ****** ****** ******
      ****** ****** ****** ****** ****** ****** ****** ****** ****** ******
      ****** ****** ****** ****** ****** ****** ****** ****** ****** ******
   6  ****** ****** ****** ****** ****** ****** ****** ****** ****** ******
      ****** ****** ****** ****** ****** ****** ****** ****** ****** ******
      ****** ****** ****** ****** ****** ****** ****** ****** ****** ******
   7  ****** ****** ****** ****** ****** ****** ****** ****** ****** ******
      ****** ****** ****** ****** ****** ****** ****** ****** ****** ******
      ****** ****** ****** ****** ****** ****** ****** ****** ****** ******
   8  ****** ****** ****** ****** ****** ****** ****** ****** ****** ******
      ****** ****** ****** ****** ****** ****** ****** ****** ****** ******
      ****** ****** ****** ****** ****** ****** ****** ****** ****** ******
   9  ****** ****** ****** ****** ****** ****** ****** ****** ****** ******
      ****** ****** ****** ****** ****** ****** ****** ****** ****** ******
      ****** ****** ****** ****** ****** ****** ****** ****** ****** ******
  10  ****** ****** ****** ****** ****** ****** ****** ****** ****** ******
      ****** ****** ****** ****** ****** ****** ****** ****** ****** ******
      ****** ****** ****** ****** ****** ****** ****** ****** ****** ******
  11  ****** ****** ****** ****** ****** ****** ****** ****** ****** ******
      ****** ****** ****** ****** ****** ****** ****** ****** ****** ******
      ****** ****** ****** ****** ****** ****** ****** ****** ****** ******
  12  ****** ****** ****** ****** ****** ****** ****** ****** ****** ******
      ****** ****** ****** ****** ****** ****** ****** ****** ****** ******
      ****** ****** ****** ****** ****** ****** ****** ****** ****** ******
  13  ****** ****** ****** ****** ****** ****** ****** ****** ****** ******
      ****** ****** ****** ****** ****** ****** ****** ****** ****** ******
      ****** ****** ****** ****** ****** ****** ****** ****** ****** ******
  14  ****** ****** ****** ****** ****** ****** ****** ****** ****** ******
      ****** ****** ****** ****** ****** ****** ****** ****** ****** ******
      ****** ****** ****** ****** ****** ****** ****** ****** ****** ******
  15  ****** ****** ****** ****** ****** ****** ****** ****** ****** ******
      ****** ****** ****** ****** ****** ****** ****** ****** ****** ******
      ****** ****** ****** ****** ****** ****** ****** ****** ****** ******
  16  ****** ****** ****** ****** ****** ****** ****** ****** ****** ******
      ****** ****** ****** ****** ****** ****** ****** ****** ****** ******
      ****** ****** ****** ****** ****** ****** ****** ****** ****** ******
  17  ****** ****** ****** ****** ****** ****** ****** ****** ****** ******
      ****** ****** ****** ****** ****** ****** ****** ****** ****** ******
      ****** ****** ****** ****** ****** ****** ****** ****** ****** ******
  18  ****** ****** ****** ****** ****** ****** ****** ****** ****** ******
      ****** ****** ****** ****** ****** ****** ****** ****** ****** ******
      ****** ****** ****** ****** ****** ****** ****** ****** ****** ******
  19  ****** ****** ****** ****** ****** ****** ****** ****** ****** ******
      ****** ****** ****** ****** ****** ****** ****** ****** ****** ******
      ****** ****** ****** ****** ****** ****** ****** ****** ****** ******
  20  ****** ****** ****** ****** ****** ****** ****** ****** ****** ******
      ****** ****** ****** ****** ****** ****** ****** ****** ****** ******
      ****** ****** ****** ****** ****** ****** ****** ****** ****** ******
  21  ****** ****** ****** ****** ****** ****** ****** ****** ****** ******
      ****** ****** ****** ****** ****** ****** ****** ****** ****** ******
      ****** ****** ****** ****** ****** ****** ****** ****** ****** ******
  22  ****** ****** ****** ****** ****** ****** ****** ****** ****** ******
      ****** ****** ****** ****** ****** ****** ****** ****** ****** ******
      ****** ****** ****** ****** ****** ****** ****** ****** ****** ******
  23  ****** ****** ****** ****** ****** ****** ****** ****** ****** ******
      ****** ****** ****** ****** ****** ****** ****** ****** ****** ******
      ****** ****** ****** ****** ****** ****** ****** ****** ****** ******
  24  ****** ****** ****** ****** ****** ****** ****** ****** ****** ******
      ****** ****** ****** ****** ****** ****** ****** ****** ****** ******
      ****** ****** ****** ****** ****** ****** ****** ****** ****** ******
  25  ****** ****** ****** ****** ****** ****** ****** ****** ****** ******
      ****** ****** ****** ****** ****** ****** ****** ****** ****** ******
      ****** ****** ****** ****** ****** ****** ****** ****** ****** ******

 HEAD WILL BE SAVED ON UNIT   51 AT END OF TIME STEP    1, STRESS PERIOD    5
1
  VOLUMETRIC BUDGET FOR ENTIRE MODEL AT END OF TIME STEP    1, STRESS PERIOD   5
  ------------------------------------------------------------------------------

     CUMULATIVE VOLUMES      L**3       RATES FOR THIS TIME STEP      L**3/T
     ------------------                 ------------------------

           IN:                                      IN:
           ---                                      ---
             STORAGE =    30432251.7057               STORAGE =       17923.9784
       CONSTANT HEAD =    10028823.3011         CONSTANT HEAD =       29870.7098
               WELLS =           0.0000                 WELLS =           0.0000
            RECHARGE =    10074000.0000              RECHARGE =       13800.0000
      STREAM LEAKAGE =     4519221.5021        STREAM LEAKAGE =       13136.7481

            TOTAL IN =    55054296.5089              TOTAL IN =       74731.4363

          OUT:                                     OUT:
          ----                                     ----
             STORAGE =         595.2741               STORAGE =           0.0000
       CONSTANT HEAD =           0.0000         CONSTANT HEAD =           0.0000
               WELLS =    13943240.5864                 WELLS =       30510.3733
            RECHARGE =           0.0000              RECHARGE =           0.0000
      STREAM LEAKAGE =    41110462.8870        STREAM LEAKAGE =       44221.0661

           TOTAL OUT =    55054298.7476             TOTAL OUT =       74731.4394

            IN - OUT =          -2.2387              IN - OUT =      -3.0615E-03

 PERCENT DISCREPANCY =          -0.00     PERCENT DISCREPANCY =          -0.00






         TIME SUMMARY AT END OF TIME STEP    1 IN STRESS PERIOD    5
                    SECONDS     MINUTES      HOURS       DAYS        YEARS
                    -----------------------------------------------------------
   TIME STEP LENGTH 7.94880E+06 1.32480E+05  2208.0      92.000     0.25188    
 STRESS PERIOD TIME 7.94880E+06 1.32480E+05  2208.0      92.000     0.25188    
         TOTAL TIME 3.94848E+07 6.58080E+05  10968.      457.00      1.2512    
1
1
                            STRESS PERIOD NO.    6, LENGTH =   91.00000    
                            -----------------------------------------------

                              NUMBER OF TIME STEPS =     1

                               MULTIPLIER FOR DELT =     1.500

                            INITIAL TIME STEP SIZE =   91.00000    

 WELL NO.  LAYER   ROW   COL   STRESS RATE         
 --------------------------------------------------
      1      1     12     11      -2057.    
      2      1     16     17     -0.1037E+05
      3      1     11     22     -0.1125E+05
      4      1     14     25      -6834.    

      4 WELLS

                 RECHARGE =  2.000000E-03

 REUSING STREAM SEGMENT DATA FROM LAST STRESS PERIOD
 
 SOLVING FOR HEAD 


     7 CALLS TO PCG ROUTINE FOR TIME STEP   1 IN STRESS PERIOD    6
    26 TOTAL ITERATIONS

 OUTPUT CONTROL FOR STRESS PERIOD    6   TIME STEP    1
    SAVE BUDGET
    SAVE HEAD FOR ALL LAYERS
    PRINT HEAD FOR ALL LAYERS
 UBDSV2 SAVING "STREAMFLOW OUT  " ON UNIT  50 AT TIME STEP  1, STRESS PERIOD   6



 STREAM LISTING     PERIOD      6   STEP        1

 LAYER ROW COL. STREAM  RCH.  FLOW INTO     FLOW TO   FLOW OUT OF   OVRLND.     DIRECT     STREAM       STREAM     STREAM     STREAM   STREAMBED  STREAMBED
                SEG.NO.  NO.  STRM. RCH.    AQUIFER    STRM. RCH.    RUNOFF     PRECIP       ET          HEAD       DEPTH      WIDTH   CONDCTNC.   GRADIENT

   1   13    1     1     1    1.0000E+05 -2.4332E+03   1.0243E+05  0.000E+00  0.000E+00  0.000E+00  4.84071E+01  1.457E-01  2.000E+01  2.000E+04 -1.217E-01
   1   13    2     1     2    1.0243E+05 -3.4776E+03   1.0591E+05  0.000E+00  0.000E+00  0.000E+00  4.79323E+01  1.482E-01  2.000E+01  2.000E+04 -1.739E-01
   1   14    3     1     3    1.0591E+05 -6.5404E+02   1.0656E+05  0.000E+00  0.000E+00  0.000E+00  4.74568E+01  1.500E-01  2.000E+01  2.000E+04 -3.270E-02
   1   15    4     1     4    1.0656E+05 -6.2904E+02   1.0719E+05  0.000E+00  0.000E+00  0.000E+00  4.69801E+01  1.505E-01  2.000E+01  2.000E+04 -3.145E-02
   1   16    5     1     5    1.0719E+05 -2.1768E+03   1.0937E+05  0.000E+00  0.000E+00  0.000E+00  4.65040E+01  1.517E-01  2.000E+01  2.000E+04 -1.088E-01
   1   16    6     1     6    1.0937E+05 -1.3533E+03   1.1072E+05  0.000E+00  0.000E+00  0.000E+00  4.60282E+01  1.532E-01  2.000E+01  2.000E+04 -6.766E-02
   1   16    7     1     7    1.1072E+05 -1.3075E+03   1.1203E+05  0.000E+00  0.000E+00  0.000E+00  4.55520E+01  1.543E-01  2.000E+01  2.000E+04 -6.537E-02
   1   16    8     1     8    1.1203E+05 -1.2754E+03   1.1331E+05  0.000E+00  0.000E+00  0.000E+00  4.50758E+01  1.554E-01  2.000E+01  2.000E+04 -6.377E-02
   1   16    9     1     9    1.1331E+05 -1.2307E+03   1.1454E+05  0.000E+00  0.000E+00  0.000E+00  4.45996E+01  1.564E-01  2.000E+01  2.000E+04 -6.153E-02
   1   16   10     1    10    1.1454E+05 -1.1706E+03   1.1571E+05  0.000E+00  0.000E+00  0.000E+00  4.41233E+01  1.574E-01  2.000E+01  2.000E+04 -5.853E-02
   1   16   11     1    11    1.1571E+05 -1.1058E+03   1.1681E+05  0.000E+00  0.000E+00  0.000E+00  4.36470E+01  1.583E-01  2.000E+01  2.000E+04 -5.529E-02
   1   16   12     1    12    1.1681E+05 -1.5236E+03   1.1834E+05  0.000E+00  0.000E+00  0.000E+00  4.31708E+01  1.594E-01  2.000E+01  2.000E+04 -7.618E-02
   1   15   13     1    13    1.1834E+05 -1.1202E+03   1.1946E+05  0.000E+00  0.000E+00  0.000E+00  4.26946E+01  1.605E-01  2.000E+01  2.000E+04 -5.601E-02
   1   14   14     1    14    1.1946E+05 -1.1962E+03   1.2065E+05  0.000E+00  0.000E+00  0.000E+00  4.22182E+01  1.614E-01  2.000E+01  2.000E+04 -5.981E-02
   1   13   15     1    15    1.2065E+05 -1.6413E+03   1.2230E+05  0.000E+00  0.000E+00  0.000E+00  4.17421E+01  1.626E-01  2.000E+01  2.000E+04 -8.206E-02
   1   12   16     1    16    1.2230E+05 -2.8017E+03   1.2510E+05  0.000E+00  0.000E+00  0.000E+00  4.12666E+01  1.643E-01  2.000E+01  2.000E+04 -1.401E-01
   1   12   17     1    17    1.2510E+05 -1.5413E+03   1.2664E+05  0.000E+00  0.000E+00  0.000E+00  4.07911E+01  1.661E-01  2.000E+01  2.000E+04 -7.707E-02
   1   12   18     1    18    1.2664E+05 -1.3593E+03   1.2800E+05  0.000E+00  0.000E+00  0.000E+00  4.03149E+01  1.672E-01  2.000E+01  2.000E+04 -6.797E-02
   1   12   19     1    19    1.2800E+05 -1.2751E+03   1.2927E+05  0.000E+00  0.000E+00  0.000E+00  3.98387E+01  1.682E-01  2.000E+01  2.000E+04 -6.376E-02
   1   13   20     1    20    1.2927E+05 -2.3128E+02   1.2950E+05  0.000E+00  0.000E+00  0.000E+00  3.93620E+01  1.688E-01  2.000E+01  2.000E+04 -1.156E-02
   1   14   21     1    21    1.2950E+05 -5.4786E+02   1.3005E+05  0.000E+00  0.000E+00  0.000E+00  3.88850E+01  1.691E-01  2.000E+01  2.000E+04 -2.739E-02
   1   14   22     1    22    1.3005E+05  5.2823E+03   1.2477E+05  0.000E+00  0.000E+00  0.000E+00  3.84059E+01  1.673E-01  2.000E+01  2.000E+04  2.641E-01
   1    9   30     2     1    5.0000E+04 -8.6835E+02   5.0868E+04  0.000E+00  0.000E+00  0.000E+00  4.02415E+01  1.165E-01  2.000E+01  2.000E+04 -4.342E-02
   1    9   29     2     2    5.0868E+04 -1.1508E+03   5.2019E+04  0.000E+00  0.000E+00  0.000E+00  3.99929E+01  1.179E-01  2.000E+01  2.000E+04 -5.754E-02
   1    9   28     2     3    5.2019E+04 -1.3706E+03   5.3390E+04  0.000E+00  0.000E+00  0.000E+00  3.97446E+01  1.196E-01  2.000E+01  2.000E+04 -6.853E-02
   1    9   27     2     4    5.3390E+04 -2.5283E+03   5.5918E+04  0.000E+00  0.000E+00  0.000E+00  3.94972E+01  1.222E-01  2.000E+01  2.000E+04 -1.264E-01
   1   10   26     2     5    5.5918E+04 -1.3294E+03   5.7248E+04  0.000E+00  0.000E+00  0.000E+00  3.92498E+01  1.248E-01  2.000E+01  2.000E+04 -6.647E-02
   1   11   25     2     6    5.7248E+04 -8.1680E+01   5.7329E+04  0.000E+00  0.000E+00  0.000E+00  3.90007E+01  1.257E-01  2.000E+01  2.000E+04 -4.084E-03
   1   12   24     2     7    5.7329E+04  1.1962E+03   5.6133E+04  0.000E+00  0.000E+00  0.000E+00  3.87500E+01  1.250E-01  2.000E+01  2.000E+04  5.981E-02
   1   13   23     2     8    5.6133E+04  4.4594E+02   5.5687E+04  0.000E+00  0.000E+00  0.000E+00  3.84989E+01  1.239E-01  2.000E+01  2.000E+04  2.230E-02
   1   14   22     2     9    5.5687E+04  2.1078E+03   5.3579E+04  0.000E+00  0.000E+00  0.000E+00  3.82472E+01  1.222E-01  2.000E+01  2.000E+04  1.054E-01
   1   14   22     3     1    1.7835E+05 -8.2809E+03   1.8663E+05  0.000E+00  0.000E+00  0.000E+00  3.77278E+01  1.722E-01  2.000E+01  2.000E+04 -4.140E-01
   1   15   23     3     2    1.8663E+05 -4.2298E+02   1.8705E+05  0.000E+00  0.000E+00  0.000E+00  3.68413E+01  1.747E-01  2.000E+01  2.000E+04 -2.115E-02
   1   15   24     3     3    1.8705E+05  2.7782E+02   1.8677E+05  0.000E+00  0.000E+00  0.000E+00  3.59525E+01  1.747E-01  2.000E+01  2.000E+04  1.389E-02
   1   15   25     3     4    1.8677E+05  1.7963E+03   1.8498E+05  0.000E+00  0.000E+00  0.000E+00  3.50630E+01  1.741E-01  2.000E+01  2.000E+04  8.982E-02
   1   15   26     3     5    1.8498E+05  2.6679E+02   1.8471E+05  0.000E+00  0.000E+00  0.000E+00  3.41735E+01  1.735E-01  2.000E+01  2.000E+04  1.334E-02
   1   16   27     3     6    1.8471E+05 -4.2896E+02   1.8514E+05  0.000E+00  0.000E+00  0.000E+00  3.32847E+01  1.736E-01  2.000E+01  2.000E+04 -2.145E-02
   1   17   28     3     7    1.8514E+05 -1.7748E+03   1.8692E+05  0.000E+00  0.000E+00  0.000E+00  3.23964E+01  1.742E-01  2.000E+01  2.000E+04 -8.874E-02
   1   18   29     3     8    1.8692E+05 -3.2448E+03   1.9016E+05  0.000E+00  0.000E+00  0.000E+00  3.15089E+01  1.756E-01  2.000E+01  2.000E+04 -1.622E-01
   1   18   30     3     9    1.9016E+05 -3.4274E+03   1.9359E+05  0.000E+00  0.000E+00  0.000E+00  3.06219E+01  1.775E-01  2.000E+01  2.000E+04 -1.714E-01



1
              HEAD IN LAYER   1 AT END OF TIME STEP   1 IN STRESS PERIOD    6
  ---------------------------------------------------------------------------

          1      2      3      4      5      6      7      8      9     10
         11     12     13     14     15     16     17     18     19     20
         21     22     23     24     25     26     27     28     29     30
 .........................................................................
   1  ****** ****** ****** ****** ****** ****** ****** ****** ****** ******
      ****** ****** ****** ****** ****** ****** ****** ****** ****** ******
      ****** ****** ****** ****** ****** ****** ****** ****** ****** ******
   2  ****** ****** ****** ****** ****** ****** ****** ****** ****** ******
      ****** ****** ****** ****** ****** ****** ****** ****** ****** ******
      ****** ****** ****** ****** ****** ****** ****** ****** ****** ******
   3  ****** ****** ****** ****** ****** ****** ****** ****** ****** ******
      ****** ****** ****** ****** ****** ****** ****** ****** ****** ******
      ****** ****** ****** ****** ****** ****** ****** ****** ****** ******
   4  ****** ****** ****** ****** ****** ****** ****** ****** ****** ******
      ****** ****** ****** ****** ****** ****** ****** ****** ****** ******
      ****** ****** ****** ****** ****** ****** ****** ****** ****** ******
   5  ****** ****** ****** ****** ****** ****** ****** ****** ****** ******
      ****** ****** ****** ****** ****** ****** ****** ****** ****** ******
      ****** ****** ****** ****** ****** ****** ****** ****** ****** ******
   6  ****** ****** ****** ****** ****** ****** ****** ****** ****** ******
      ****** ****** ****** ****** ****** ****** ****** ****** ****** ******
      ****** ****** ****** ****** ****** ****** ****** ****** ****** ******
   7  ****** ****** ****** ****** ****** ****** ****** ****** ****** ******
      ****** ****** ****** ****** ****** ****** ****** ****** ****** ******
      ****** ****** ****** ****** ****** ****** ****** ****** ****** ******
   8  ****** ****** ****** ****** ****** ****** ****** ****** ****** ******
      ****** ****** ****** ****** ****** ****** ****** ****** ****** ******
      ****** ****** ****** ****** ****** ****** ****** ****** ****** ******
   9  ****** ****** ****** ****** ****** ****** ****** ****** ****** ******
      ****** ****** ****** ****** ****** ****** ****** ****** ****** ******
      ****** ****** ****** ****** ****** ****** ****** ****** ****** ******
  10  ****** ****** ****** ****** ****** ****** ****** ****** ****** ******
      ****** ****** ****** ****** ****** ****** ****** ****** ****** ******
      ****** ****** ****** ****** ****** ****** ****** ****** ****** ******
  11  ****** ****** ****** ****** ****** ****** ****** ****** ****** ******
      ****** ****** ****** ****** ****** ****** ****** ****** ****** ******
      ****** ****** ****** ****** ****** ****** ****** ****** ****** ******
  12  ****** ****** ****** ****** ****** ****** ****** ****** ****** ******
      ****** ****** ****** ****** ****** ****** ****** ****** ****** ******
      ****** ****** ****** ****** ****** ****** ****** ****** ****** ******
  13  ****** ****** ****** ****** ****** ****** ****** ****** ****** ******
      ****** ****** ****** ****** ****** ****** ****** ****** ****** ******
      ****** ****** ****** ****** ****** ****** ****** ****** ****** ******
  14  ****** ****** ****** ****** ****** ****** ****** ****** ****** ******
      ****** ****** ****** ****** ****** ****** ****** ****** ****** ******
      ****** ****** ****** ****** ****** ****** ****** ****** ****** ******
  15  ****** ****** ****** ****** ****** ****** ****** ****** ****** ******
      ****** ****** ****** ****** ****** ****** ****** ****** ****** ******
      ****** ****** ****** ****** ****** ****** ****** ****** ****** ******
  16  ****** ****** ****** ****** ****** ****** ****** ****** ****** ******
      ****** ****** ****** ****** ****** ****** ****** ****** ****** ******
      ****** ****** ****** ****** ****** ****** ****** ****** ****** ******
  17  ****** ****** ****** ****** ****** ****** ****** ****** ****** ******
      ****** ****** ****** ****** ****** ****** ****** ****** ****** ******
      ****** ****** ****** ****** ****** ****** ****** ****** ****** ******
  18  ****** ****** ****** ****** ****** ****** ****** ****** ****** ******
      ****** ****** ****** ****** ****** ****** ****** ****** ****** ******
      ****** ****** ****** ****** ****** ****** ****** ****** ****** ******
  19  ****** ****** ****** ****** ****** ****** ****** ****** ****** ******
      ****** ****** ****** ****** ****** ****** ****** ****** ****** ******
      ****** ****** ****** ****** ****** ****** ****** ****** ****** ******
  20  ****** ****** ****** ****** ****** ****** ****** ****** ****** ******
      ****** ****** ****** ****** ****** ****** ****** ****** ****** ******
      ****** ****** ****** ****** ****** ****** ****** ****** ****** ******
  21  ****** ****** ****** ****** ****** ****** ****** ****** ****** ******
      ****** ****** ****** ****** ****** ****** ****** ****** ****** ******
      ****** ****** ****** ****** ****** ****** ****** ****** ****** ******
  22  ****** ****** ****** ****** ****** ****** ****** ****** ****** ******
      ****** ****** ****** ****** ****** ****** ****** ****** ****** ******
      ****** ****** ****** ****** ****** ****** ****** ****** ****** ******
  23  ****** ****** ****** ****** ****** ****** ****** ****** ****** ******
      ****** ****** ****** ****** ****** ****** ****** ****** ****** ******
      ****** ****** ****** ****** ****** ****** ****** ****** ****** ******
  24  ****** ****** ****** ****** ****** ****** ****** ****** ****** ******
      ****** ****** ****** ****** ****** ****** ****** ****** ****** ******
      ****** ****** ****** ****** ****** ****** ****** ****** ****** ******
  25  ****** ****** ****** ****** ****** ****** ****** ****** ****** ******
      ****** ****** ****** ****** ****** ****** ****** ****** ****** ******
      ****** ****** ****** ****** ****** ****** ****** ****** ****** ******

 HEAD WILL BE SAVED ON UNIT   51 AT END OF TIME STEP    1, STRESS PERIOD    6
1
  VOLUMETRIC BUDGET FOR ENTIRE MODEL AT END OF TIME STEP    1, STRESS PERIOD   6
  ------------------------------------------------------------------------------

     CUMULATIVE VOLUMES      L**3       RATES FOR THIS TIME STEP      L**3/T
     ------------------                 ------------------------

           IN:                                      IN:
           ---                                      ---
             STORAGE =    30432251.7057               STORAGE =           0.0000
       CONSTANT HEAD =    12569834.2595         CONSTANT HEAD =       27923.1973
               WELLS =           0.0000                 WELLS =           0.0000
            RECHARGE =    15097200.0000              RECHARGE =       55200.0000
      STREAM LEAKAGE =     5554173.0245        STREAM LEAKAGE =       11373.0937

            TOTAL IN =    63653458.9897              TOTAL IN =       94496.2910

          OUT:                                     OUT:
          ----                                     ----
             STORAGE =      821892.4776               STORAGE =        9025.2440
       CONSTANT HEAD =           0.0000         CONSTANT HEAD =           0.0000
               WELLS =    16719684.5544                 WELLS =       30510.3733
            RECHARGE =           0.0000              RECHARGE =           0.0000
      STREAM LEAKAGE =    46111883.9365        STREAM LEAKAGE =       54960.6709

           TOTAL OUT =    63653460.9684             TOTAL OUT =       94496.2881

            IN - OUT =          -1.9787              IN - OUT =       2.8563E-03

 PERCENT DISCREPANCY =          -0.00     PERCENT DISCREPANCY =           0.00






         TIME SUMMARY AT END OF TIME STEP    1 IN STRESS PERIOD    6
                    SECONDS     MINUTES      HOURS       DAYS        YEARS
                    -----------------------------------------------------------
   TIME STEP LENGTH 7.86240E+06 1.31040E+05  2184.0      91.000     0.24914    
 STRESS PERIOD TIME 7.86240E+06 1.31040E+05  2184.0      91.000     0.24914    
         TOTAL TIME 4.73472E+07 7.89120E+05  13152.      548.00      1.5003    
1
1
                            STRESS PERIOD NO.    7, LENGTH =   91.00000    
                            -----------------------------------------------

                              NUMBER OF TIME STEPS =     1

                               MULTIPLIER FOR DELT =     1.500

                            INITIAL TIME STEP SIZE =   91.00000    

 WELL NO.  LAYER   ROW   COL   STRESS RATE         
 --------------------------------------------------
      1      1     12     11      -2057.    
      2      1     16     17     -0.1037E+05
      3      1     11     22     -0.1125E+05
      4      1     14     25      -6834.    

      4 WELLS

                 RECHARGE =   0.00000    

 REUSING STREAM SEGMENT DATA FROM LAST STRESS PERIOD
 
 SOLVING FOR HEAD 


     7 CALLS TO PCG ROUTINE FOR TIME STEP   1 IN STRESS PERIOD    7
    26 TOTAL ITERATIONS

 OUTPUT CONTROL FOR STRESS PERIOD    7   TIME STEP    1
    SAVE BUDGET
    SAVE HEAD FOR ALL LAYERS
    PRINT HEAD FOR ALL LAYERS
 UBDSV2 SAVING "STREAMFLOW OUT  " ON UNIT  50 AT TIME STEP  1, STRESS PERIOD   7



 STREAM LISTING     PERIOD      7   STEP        1

 LAYER ROW COL. STREAM  RCH.  FLOW INTO     FLOW TO   FLOW OUT OF   OVRLND.     DIRECT     STREAM       STREAM     STREAM     STREAM   STREAMBED  STREAMBED
                SEG.NO.  NO.  STRM. RCH.    AQUIFER    STRM. RCH.    RUNOFF     PRECIP       ET          HEAD       DEPTH      WIDTH   CONDCTNC.   GRADIENT

   1   13    1     1     1    1.0000E+05 -1.7705E+03   1.0177E+05  0.000E+00  0.000E+00  0.000E+00  4.84068E+01  1.454E-01  2.000E+01  2.000E+04 -8.853E-02
   1   13    2     1     2    1.0177E+05 -2.7360E+03   1.0451E+05  0.000E+00  0.000E+00  0.000E+00  4.79314E+01  1.474E-01  2.000E+01  2.000E+04 -1.368E-01
   1   14    3     1     3    1.0451E+05 -4.0225E+02   1.0491E+05  0.000E+00  0.000E+00  0.000E+00  4.74555E+01  1.487E-01  2.000E+01  2.000E+04 -2.011E-02
   1   15    4     1     4    1.0491E+05 -3.6632E+02   1.0528E+05  0.000E+00  0.000E+00  0.000E+00  4.69786E+01  1.490E-01  2.000E+01  2.000E+04 -1.832E-02
   1   16    5     1     5    1.0528E+05 -1.4232E+03   1.0670E+05  0.000E+00  0.000E+00  0.000E+00  4.65021E+01  1.498E-01  2.000E+01  2.000E+04 -7.116E-02
   1   16    6     1     6    1.0670E+05 -8.9862E+02   1.0760E+05  0.000E+00  0.000E+00  0.000E+00  4.60258E+01  1.508E-01  2.000E+01  2.000E+04 -4.493E-02
   1   16    7     1     7    1.0760E+05 -8.7112E+02   1.0847E+05  0.000E+00  0.000E+00  0.000E+00  4.55492E+01  1.515E-01  2.000E+01  2.000E+04 -4.356E-02
   1   16    8     1     8    1.0847E+05 -8.4491E+02   1.0931E+05  0.000E+00  0.000E+00  0.000E+00  4.50727E+01  1.522E-01  2.000E+01  2.000E+04 -4.225E-02
   1   16    9     1     9    1.0931E+05 -8.0333E+02   1.1012E+05  0.000E+00  0.000E+00  0.000E+00  4.45961E+01  1.529E-01  2.000E+01  2.000E+04 -4.017E-02
   1   16   10     1    10    1.1012E+05 -7.4577E+02   1.1086E+05  0.000E+00  0.000E+00  0.000E+00  4.41195E+01  1.536E-01  2.000E+01  2.000E+04 -3.729E-02
   1   16   11     1    11    1.1086E+05 -6.7982E+02   1.1154E+05  0.000E+00  0.000E+00  0.000E+00  4.36428E+01  1.542E-01  2.000E+01  2.000E+04 -3.399E-02
   1   16   12     1    12    1.1154E+05 -8.0792E+02   1.1235E+05  0.000E+00  0.000E+00  0.000E+00  4.31661E+01  1.548E-01  2.000E+01  2.000E+04 -4.040E-02
   1   15   13     1    13    1.1235E+05 -3.5338E+02   1.1270E+05  0.000E+00  0.000E+00  0.000E+00  4.26894E+01  1.553E-01  2.000E+01  2.000E+04 -1.767E-02
   1   14   14     1    14    1.1270E+05 -4.0261E+02   1.1311E+05  0.000E+00  0.000E+00  0.000E+00  4.22124E+01  1.556E-01  2.000E+01  2.000E+04 -2.013E-02
   1   13   15     1    15    1.1311E+05 -8.4664E+02   1.1395E+05  0.000E+00  0.000E+00  0.000E+00  4.17356E+01  1.561E-01  2.000E+01  2.000E+04 -4.233E-02
   1   12   16     1    16    1.1395E+05 -2.0150E+03   1.1597E+05  0.000E+00  0.000E+00  0.000E+00  4.12595E+01  1.573E-01  2.000E+01  2.000E+04 -1.008E-01
   1   12   17     1    17    1.1597E+05 -9.6826E+02   1.1694E+05  0.000E+00  0.000E+00  0.000E+00  4.07835E+01  1.585E-01  2.000E+01  2.000E+04 -4.841E-02
   1   12   18     1    18    1.1694E+05 -7.9995E+02   1.1774E+05  0.000E+00  0.000E+00  0.000E+00  4.03069E+01  1.592E-01  2.000E+01  2.000E+04 -4.000E-02
   1   12   19     1    19    1.1774E+05 -5.9178E+02   1.1833E+05  0.000E+00  0.000E+00  0.000E+00  3.98302E+01  1.598E-01  2.000E+01  2.000E+04 -2.959E-02
   1   13   20     1    20    1.1833E+05  4.3631E+02   1.1789E+05  0.000E+00  0.000E+00  0.000E+00  3.93530E+01  1.598E-01  2.000E+01  2.000E+04  2.182E-02
   1   14   21     1    21    1.1789E+05  1.1214E+02   1.1778E+05  0.000E+00  0.000E+00  0.000E+00  3.88755E+01  1.596E-01  2.000E+01  2.000E+04  5.607E-03
   1   14   22     1    22    1.1778E+05  5.4405E+03   1.1234E+05  0.000E+00  0.000E+00  0.000E+00  3.83960E+01  1.574E-01  2.000E+01  2.000E+04  2.720E-01
   1    9   30     2     1    5.0000E+04 -3.5569E+02   5.0356E+04  0.000E+00  0.000E+00  0.000E+00  4.02411E+01  1.161E-01  2.000E+01  2.000E+04 -1.778E-02
   1    9   29     2     2    5.0356E+04 -6.4001E+02   5.0996E+04  0.000E+00  0.000E+00  0.000E+00  3.99918E+01  1.168E-01  2.000E+01  2.000E+04 -3.200E-02
   1    9   28     2     3    5.0996E+04 -8.5865E+02   5.1854E+04  0.000E+00  0.000E+00  0.000E+00  3.97428E+01  1.178E-01  2.000E+01  2.000E+04 -4.293E-02
   1    9   27     2     4    5.1854E+04 -1.8335E+03   5.3688E+04  0.000E+00  0.000E+00  0.000E+00  3.94947E+01  1.197E-01  2.000E+01  2.000E+04 -9.168E-02
   1   10   26     2     5    5.3688E+04 -6.3217E+02   5.4320E+04  0.000E+00  0.000E+00  0.000E+00  3.92463E+01  1.213E-01  2.000E+01  2.000E+04 -3.161E-02
   1   11   25     2     6    5.4320E+04  5.8706E+02   5.3733E+04  0.000E+00  0.000E+00  0.000E+00  3.89964E+01  1.214E-01  2.000E+01  2.000E+04  2.935E-02
   1   12   24     2     7    5.3733E+04  1.8057E+03   5.1927E+04  0.000E+00  0.000E+00  0.000E+00  3.87448E+01  1.198E-01  2.000E+01  2.000E+04  9.029E-02
   1   13   23     2     8    5.1927E+04  6.3753E+02   5.1290E+04  0.000E+00  0.000E+00  0.000E+00  3.84931E+01  1.181E-01  2.000E+01  2.000E+04  3.188E-02
   1   14   22     2     9    5.1290E+04  2.3414E+03   4.8948E+04  0.000E+00  0.000E+00  0.000E+00  3.82410E+01  1.160E-01  2.000E+01  2.000E+04  1.171E-01
   1   14   22     3     1    1.6129E+05 -8.1220E+03   1.6941E+05  0.000E+00  0.000E+00  0.000E+00  3.77179E+01  1.623E-01  2.000E+01  2.000E+04 -4.061E-01
   1   15   23     3     2    1.6941E+05 -2.1686E+02   1.6963E+05  0.000E+00  0.000E+00  0.000E+00  3.68314E+01  1.648E-01  2.000E+01  2.000E+04 -1.084E-02
   1   15   24     3     3    1.6963E+05  4.5129E+02   1.6917E+05  0.000E+00  0.000E+00  0.000E+00  3.59425E+01  1.647E-01  2.000E+01  2.000E+04  2.256E-02
   1   15   25     3     4    1.6917E+05  1.9729E+03   1.6720E+05  0.000E+00  0.000E+00  0.000E+00  3.50529E+01  1.640E-01  2.000E+01  2.000E+04  9.864E-02
   1   15   26     3     5    1.6720E+05  4.6792E+02   1.6673E+05  0.000E+00  0.000E+00  0.000E+00  3.41633E+01  1.633E-01  2.000E+01  2.000E+04  2.340E-02
   1   16   27     3     6    1.6673E+05 -1.9688E+02   1.6693E+05  0.000E+00  0.000E+00  0.000E+00  3.32743E+01  1.632E-01  2.000E+01  2.000E+04 -9.844E-03
   1   17   28     3     7    1.6693E+05 -1.1342E+03   1.6806E+05  0.000E+00  0.000E+00  0.000E+00  3.23858E+01  1.636E-01  2.000E+01  2.000E+04 -5.671E-02
   1   18   29     3     8    1.6806E+05 -2.5606E+03   1.7063E+05  0.000E+00  0.000E+00  0.000E+00  3.14980E+01  1.647E-01  2.000E+01  2.000E+04 -1.280E-01
   1   18   30     3     9    1.7063E+05 -2.9000E+03   1.7353E+05  0.000E+00  0.000E+00  0.000E+00  3.06107E+01  1.662E-01  2.000E+01  2.000E+04 -1.450E-01



1
              HEAD IN LAYER   1 AT END OF TIME STEP   1 IN STRESS PERIOD    7
  ---------------------------------------------------------------------------

          1      2      3      4      5      6      7      8      9     10
         11     12     13     14     15     16     17     18     19     20
         21     22     23     24     25     26     27     28     29     30
 .........................................................................
   1  ****** ****** ****** ****** ****** ****** ****** ****** ****** ******
      ****** ****** ****** ****** ****** ****** ****** ****** ****** ******
      ****** ****** ****** ****** ****** ****** ****** ****** ****** ******
   2  ****** ****** ****** ****** ****** ****** ****** ****** ****** ******
      ****** ****** ****** ****** ****** ****** ****** ****** ****** ******
      ****** ****** ****** ****** ****** ****** ****** ****** ****** ******
   3  ****** ****** ****** ****** ****** ****** ****** ****** ****** ******
      ****** ****** ****** ****** ****** ****** ****** ****** ****** ******
      ****** ****** ****** ****** ****** ****** ****** ****** ****** ******
   4  ****** ****** ****** ****** ****** ****** ****** ****** ****** ******
      ****** ****** ****** ****** ****** ****** ****** ****** ****** ******
      ****** ****** ****** ****** ****** ****** ****** ****** ****** ******
   5  ****** ****** ****** ****** ****** ****** ****** ****** ****** ******
      ****** ****** ****** ****** ****** ****** ****** ****** ****** ******
      ****** ****** ****** ****** ****** ****** ****** ****** ****** ******
   6  ****** ****** ****** ****** ****** ****** ****** ****** ****** ******
      ****** ****** ****** ****** ****** ****** ****** ****** ****** ******
      ****** ****** ****** ****** ****** ****** ****** ****** ****** ******
   7  ****** ****** ****** ****** ****** ****** ****** ****** ****** ******
      ****** ****** ****** ****** ****** ****** ****** ****** ****** ******
      ****** ****** ****** ****** ****** ****** ****** ****** ****** ******
   8  ****** ****** ****** ****** ****** ****** ****** ****** ****** ******
      ****** ****** ****** ****** ****** ****** ****** ****** ****** ******
      ****** ****** ****** ****** ****** ****** ****** ****** ****** ******
   9  ****** ****** ****** ****** ****** ****** ****** ****** ****** ******
      ****** ****** ****** ****** ****** ****** ****** ****** ****** ******
      ****** ****** ****** ****** ****** ****** ****** ****** ****** ******
  10  ****** ****** ****** ****** ****** ****** ****** ****** ****** ******
      ****** ****** ****** ****** ****** ****** ****** ****** ****** ******
      ****** ****** ****** ****** ****** ****** ****** ****** ****** ******
  11  ****** ****** ****** ****** ****** ****** ****** ****** ****** ******
      ****** ****** ****** ****** ****** ****** ****** ****** ****** ******
      ****** ****** ****** ****** ****** ****** ****** ****** ****** ******
  12  ****** ****** ****** ****** ****** ****** ****** ****** ****** ******
      ****** ****** ****** ****** ****** ****** ****** ****** ****** ******
      ****** ****** ****** ****** ****** ****** ****** ****** ****** ******
  13  ****** ****** ****** ****** ****** ****** ****** ****** ****** ******
      ****** ****** ****** ****** ****** ****** ****** ****** ****** ******
      ****** ****** ****** ****** ****** ****** ****** ****** ****** ******
  14  ****** ****** ****** ****** ****** ****** ****** ****** ****** ******
      ****** ****** ****** ****** ****** ****** ****** ****** ****** ******
      ****** ****** ****** ****** ****** ****** ****** ****** ****** ******
  15  ****** ****** ****** ****** ****** ****** ****** ****** ****** ******
      ****** ****** ****** ****** ****** ****** ****** ****** ****** ******
      ****** ****** ****** ****** ****** ****** ****** ****** ****** ******
  16  ****** ****** ****** ****** ****** ****** ****** ****** ****** ******
      ****** ****** ****** ****** ****** ****** ****** ****** ****** ******
      ****** ****** ****** ****** ****** ****** ****** ****** ****** ******
  17  ****** ****** ****** ****** ****** ****** ****** ****** ****** ******
      ****** ****** ****** ****** ****** ****** ****** ****** ****** ******
      ****** ****** ****** ****** ****** ****** ****** ****** ****** ******
  18  ****** ****** ****** ****** ****** ****** ****** ****** ****** ******
      ****** ****** ****** ****** ****** ****** ****** ****** ****** ******
      ****** ****** ****** ****** ****** ****** ****** ****** ****** ******
  19  ****** ****** ****** ****** ****** ****** ****** ****** ****** ******
      ****** ****** ****** ****** ****** ****** ****** ****** ****** ******
      ****** ****** ****** ****** ****** ****** ****** ****** ****** ******
  20  ****** ****** ****** ****** ****** ****** ****** ****** ****** ******
      ****** ****** ****** ****** ****** ****** ****** ****** ****** ******
      ****** ****** ****** ****** ****** ****** ****** ****** ****** ******
  21  ****** ****** ****** ****** ****** ****** ****** ****** ****** ******
      ****** ****** ****** ****** ****** ****** ****** ****** ****** ******
      ****** ****** ****** ****** ****** ****** ****** ****** ****** ******
  22  ****** ****** ****** ****** ****** ****** ****** ****** ****** ******
      ****** ****** ****** ****** ****** ****** ****** ****** ****** ******
      ****** ****** ****** ****** ****** ****** ****** ****** ****** ******
  23  ****** ****** ****** ****** ****** ****** ****** ****** ****** ******
      ****** ****** ****** ****** ****** ****** ****** ****** ****** ******
      ****** ****** ****** ****** ****** ****** ****** ****** ****** ******
  24  ****** ****** ****** ****** ****** ****** ****** ****** ****** ******
      ****** ****** ****** ****** ****** ****** ****** ****** ****** ******
      ****** ****** ****** ****** ****** ****** ****** ****** ****** ******
  25  ****** ****** ****** ****** ****** ****** ****** ****** ****** ******
      ****** ****** ****** ****** ****** ****** ****** ****** ****** ******
      ****** ****** ****** ****** ****** ****** ****** ****** ****** ******

 HEAD WILL BE SAVED ON UNIT   51 AT END OF TIME STEP    1, STRESS PERIOD    7
1
  VOLUMETRIC BUDGET FOR ENTIRE MODEL AT END OF TIME STEP    1, STRESS PERIOD   7
  ------------------------------------------------------------------------------

     CUMULATIVE VOLUMES      L**3       RATES FOR THIS TIME STEP      L**3/T
     ------------------                 ------------------------

           IN:                                      IN:
           ---                                      ---
             STORAGE =    32453447.7230               STORAGE =       22210.9452
       CONSTANT HEAD =    15465884.3054         CONSTANT HEAD =       31824.7258
               WELLS =           0.0000                 WELLS =           0.0000
            RECHARGE =    15097200.0000              RECHARGE =           0.0000
      STREAM LEAKAGE =     6851172.2374        STREAM LEAKAGE =       14252.7386

            TOTAL IN =    69867704.2657              TOTAL IN =       68288.4096

          OUT:                                     OUT:
          ----                                     ----
             STORAGE =      821892.4776               STORAGE =           0.0000
       CONSTANT HEAD =           0.0000         CONSTANT HEAD =           0.0000
               WELLS =    19496128.5223                 WELLS =       30510.3733
            RECHARGE =           0.0000              RECHARGE =           0.0000
      STREAM LEAKAGE =    49549685.7372        STREAM LEAKAGE =       37778.0418

           TOTAL OUT =    69867706.7371             TOTAL OUT =       68288.4150

            IN - OUT =          -2.4714              IN - OUT =      -5.4134E-03

 PERCENT DISCREPANCY =          -0.00     PERCENT DISCREPANCY =          -0.00






         TIME SUMMARY AT END OF TIME STEP    1 IN STRESS PERIOD    7
                    SECONDS     MINUTES      HOURS       DAYS        YEARS
                    -----------------------------------------------------------
   TIME STEP LENGTH 7.86240E+06 1.31040E+05  2184.0      91.000     0.24914    
 STRESS PERIOD TIME 7.86240E+06 1.31040E+05  2184.0      91.000     0.24914    
         TOTAL TIME 5.52096E+07 9.20160E+05  15336.      639.00      1.7495    
1
1
                            STRESS PERIOD NO.    8, LENGTH =   91.00000    
                            -----------------------------------------------

                              NUMBER OF TIME STEPS =     1

                               MULTIPLIER FOR DELT =     1.500

                            INITIAL TIME STEP SIZE =   91.00000    

 WELL NO.  LAYER   ROW   COL   STRESS RATE         
 --------------------------------------------------
      1      1     12     11      -2057.    
      2      1     16     17     -0.1037E+05
      3      1     11     22     -0.1125E+05
      4      1     14     25      -6834.    

      4 WELLS

                 RECHARGE =  1.000000E-03

 REUSING STREAM SEGMENT DATA FROM LAST STRESS PERIOD
 
 SOLVING FOR HEAD 


     6 CALLS TO PCG ROUTINE FOR TIME STEP   1 IN STRESS PERIOD    8
    22 TOTAL ITERATIONS

 OUTPUT CONTROL FOR STRESS PERIOD    8   TIME STEP    1
    SAVE BUDGET
    SAVE HEAD FOR ALL LAYERS
    PRINT HEAD FOR ALL LAYERS
 UBDSV2 SAVING "STREAMFLOW OUT  " ON UNIT  50 AT TIME STEP  1, STRESS PERIOD   8



 STREAM LISTING     PERIOD      8   STEP        1

 LAYER ROW COL. STREAM  RCH.  FLOW INTO     FLOW TO   FLOW OUT OF   OVRLND.     DIRECT     STREAM       STREAM     STREAM     STREAM   STREAMBED  STREAMBED
                SEG.NO.  NO.  STRM. RCH.    AQUIFER    STRM. RCH.    RUNOFF     PRECIP       ET          HEAD       DEPTH      WIDTH   CONDCTNC.   GRADIENT

   1   13    1     1     1    1.0000E+05 -1.8467E+03   1.0185E+05  0.000E+00  0.000E+00  0.000E+00  4.84068E+01  1.455E-01  2.000E+01  2.000E+04 -9.233E-02
   1   13    2     1     2    1.0185E+05 -2.8120E+03   1.0466E+05  0.000E+00  0.000E+00  0.000E+00  4.79315E+01  1.475E-01  2.000E+01  2.000E+04 -1.406E-01
   1   14    3     1     3    1.0466E+05 -4.6649E+02   1.0513E+05  0.000E+00  0.000E+00  0.000E+00  4.74557E+01  1.489E-01  2.000E+01  2.000E+04 -2.332E-02
   1   15    4     1     4    1.0513E+05 -4.3507E+02   1.0556E+05  0.000E+00  0.000E+00  0.000E+00  4.69788E+01  1.492E-01  2.000E+01  2.000E+04 -2.175E-02
   1   16    5     1     5    1.0556E+05 -1.5971E+03   1.0716E+05  0.000E+00  0.000E+00  0.000E+00  4.65024E+01  1.501E-01  2.000E+01  2.000E+04 -7.985E-02
   1   16    6     1     6    1.0716E+05 -1.0055E+03   1.0816E+05  0.000E+00  0.000E+00  0.000E+00  4.60262E+01  1.512E-01  2.000E+01  2.000E+04 -5.028E-02
   1   16    7     1     7    1.0816E+05 -9.7300E+02   1.0914E+05  0.000E+00  0.000E+00  0.000E+00  4.55498E+01  1.520E-01  2.000E+01  2.000E+04 -4.865E-02
   1   16    8     1     8    1.0914E+05 -9.4594E+02   1.1008E+05  0.000E+00  0.000E+00  0.000E+00  4.50733E+01  1.528E-01  2.000E+01  2.000E+04 -4.730E-02
   1   16    9     1     9    1.1008E+05 -9.0553E+02   1.1099E+05  0.000E+00  0.000E+00  0.000E+00  4.45968E+01  1.536E-01  2.000E+01  2.000E+04 -4.528E-02
   1   16   10     1    10    1.1099E+05 -8.5052E+02   1.1184E+05  0.000E+00  0.000E+00  0.000E+00  4.41203E+01  1.543E-01  2.000E+01  2.000E+04 -4.253E-02
   1   16   11     1    11    1.1184E+05 -7.8771E+02   1.1263E+05  0.000E+00  0.000E+00  0.000E+00  4.36437E+01  1.550E-01  2.000E+01  2.000E+04 -3.939E-02
   1   16   12     1    12    1.1263E+05 -9.6950E+02   1.1360E+05  0.000E+00  0.000E+00  0.000E+00  4.31671E+01  1.557E-01  2.000E+01  2.000E+04 -4.847E-02
   1   15   13     1    13    1.1360E+05 -5.2219E+02   1.1412E+05  0.000E+00  0.000E+00  0.000E+00  4.26905E+01  1.564E-01  2.000E+01  2.000E+04 -2.611E-02
   1   14   14     1    14    1.1412E+05 -5.6476E+02   1.1468E+05  0.000E+00  0.000E+00  0.000E+00  4.22136E+01  1.568E-01  2.000E+01  2.000E+04 -2.824E-02
   1   13   15     1    15    1.1468E+05 -9.9624E+02   1.1568E+05  0.000E+00  0.000E+00  0.000E+00  4.17370E+01  1.575E-01  2.000E+01  2.000E+04 -4.981E-02
   1   12   16     1    16    1.1568E+05 -2.1270E+03   1.1781E+05  0.000E+00  0.000E+00  0.000E+00  4.12610E+01  1.587E-01  2.000E+01  2.000E+04 -1.064E-01
   1   12   17     1    17    1.1781E+05 -1.0801E+03   1.1889E+05  0.000E+00  0.000E+00  0.000E+00  4.07850E+01  1.600E-01  2.000E+01  2.000E+04 -5.400E-02
   1   12   18     1    18    1.1889E+05 -9.1844E+02   1.1980E+05  0.000E+00  0.000E+00  0.000E+00  4.03086E+01  1.608E-01  2.000E+01  2.000E+04 -4.592E-02
   1   12   19     1    19    1.1980E+05 -7.4124E+02   1.2054E+05  0.000E+00  0.000E+00  0.000E+00  3.98320E+01  1.615E-01  2.000E+01  2.000E+04 -3.706E-02
   1   13   20     1    20    1.2054E+05  2.5788E+02   1.2029E+05  0.000E+00  0.000E+00  0.000E+00  3.93549E+01  1.617E-01  2.000E+01  2.000E+04  1.289E-02
   1   14   21     1    21    1.2029E+05 -4.6613E+01   1.2033E+05  0.000E+00  0.000E+00  0.000E+00  3.88775E+01  1.616E-01  2.000E+01  2.000E+04 -2.331E-03
   1   14   22     1    22    1.2033E+05  5.3924E+03   1.1494E+05  0.000E+00  0.000E+00  0.000E+00  3.83981E+01  1.595E-01  2.000E+01  2.000E+04  2.696E-01
   1    9   30     2     1    5.0000E+04 -5.1906E+02   5.0519E+04  0.000E+00  0.000E+00  0.000E+00  4.02412E+01  1.162E-01  2.000E+01  2.000E+04 -2.595E-02
   1    9   29     2     2    5.0519E+04 -8.0060E+02   5.1320E+04  0.000E+00  0.000E+00  0.000E+00  3.99921E+01  1.171E-01  2.000E+01  2.000E+04 -4.003E-02
   1    9   28     2     3    5.1320E+04 -1.0137E+03   5.2333E+04  0.000E+00  0.000E+00  0.000E+00  3.97434E+01  1.184E-01  2.000E+01  2.000E+04 -5.068E-02
   1    9   27     2     4    5.2333E+04 -2.0119E+03   5.4345E+04  0.000E+00  0.000E+00  0.000E+00  3.94954E+01  1.204E-01  2.000E+01  2.000E+04 -1.006E-01
   1   10   26     2     5    5.4345E+04 -8.3761E+02   5.5183E+04  0.000E+00  0.000E+00  0.000E+00  3.92474E+01  1.224E-01  2.000E+01  2.000E+04 -4.188E-02
   1   11   25     2     6    5.5183E+04  3.8318E+02   5.4800E+04  0.000E+00  0.000E+00  0.000E+00  3.89977E+01  1.227E-01  2.000E+01  2.000E+04  1.916E-02
   1   12   24     2     7    5.4800E+04  1.6207E+03   5.3179E+04  0.000E+00  0.000E+00  0.000E+00  3.87463E+01  1.213E-01  2.000E+01  2.000E+04  8.103E-02
   1   13   23     2     8    5.3179E+04  5.6326E+02   5.2616E+04  0.000E+00  0.000E+00  0.000E+00  3.84948E+01  1.198E-01  2.000E+01  2.000E+04  2.816E-02
   1   14   22     2     9    5.2616E+04  2.2885E+03   5.0327E+04  0.000E+00  0.000E+00  0.000E+00  3.82429E+01  1.179E-01  2.000E+01  2.000E+04  1.144E-01
   1   14   22     3     1    1.6527E+05 -8.1653E+03   1.7343E+05  0.000E+00  0.000E+00  0.000E+00  3.77202E+01  1.647E-01  2.000E+01  2.000E+04 -4.083E-01
   1   15   23     3     2    1.7343E+05 -2.8109E+02   1.7372E+05  0.000E+00  0.000E+00  0.000E+00  3.68338E+01  1.671E-01  2.000E+01  2.000E+04 -1.405E-02
   1   15   24     3     3    1.7372E+05  3.9077E+02   1.7332E+05  0.000E+00  0.000E+00  0.000E+00  3.59449E+01  1.671E-01  2.000E+01  2.000E+04  1.954E-02
   1   15   25     3     4    1.7332E+05  1.9107E+03   1.7141E+05  0.000E+00  0.000E+00  0.000E+00  3.50553E+01  1.664E-01  2.000E+01  2.000E+04  9.553E-02
   1   15   26     3     5    1.7141E+05  3.9328E+02   1.7102E+05  0.000E+00  0.000E+00  0.000E+00  3.41657E+01  1.657E-01  2.000E+01  2.000E+04  1.966E-02
   1   16   27     3     6    1.7102E+05 -2.7872E+02   1.7130E+05  0.000E+00  0.000E+00  0.000E+00  3.32768E+01  1.657E-01  2.000E+01  2.000E+04 -1.394E-02
   1   17   28     3     7    1.7130E+05 -1.3381E+03   1.7264E+05  0.000E+00  0.000E+00  0.000E+00  3.23884E+01  1.662E-01  2.000E+01  2.000E+04 -6.690E-02
   1   18   29     3     8    1.7264E+05 -2.7263E+03   1.7536E+05  0.000E+00  0.000E+00  0.000E+00  3.15007E+01  1.674E-01  2.000E+01  2.000E+04 -1.363E-01
   1   18   30     3     9    1.7536E+05 -3.0469E+03   1.7841E+05  0.000E+00  0.000E+00  0.000E+00  3.06135E+01  1.690E-01  2.000E+01  2.000E+04 -1.523E-01



1
              HEAD IN LAYER   1 AT END OF TIME STEP   1 IN STRESS PERIOD    8
  ---------------------------------------------------------------------------

          1      2      3      4      5      6      7      8      9     10
         11     12     13     14     15     16     17     18     19     20
         21     22     23     24     25     26     27     28     29     30
 .........................................................................
   1  ****** ****** ****** ****** ****** ****** ****** ****** ****** ******
      ****** ****** ****** ****** ****** ****** ****** ****** ****** ******
      ****** ****** ****** ****** ****** ****** ****** ****** ****** ******
   2  ****** ****** ****** ****** ****** ****** ****** ****** ****** ******
      ****** ****** ****** ****** ****** ****** ****** ****** ****** ******
      ****** ****** ****** ****** ****** ****** ****** ****** ****** ******
   3  ****** ****** ****** ****** ****** ****** ****** ****** ****** ******
      ****** ****** ****** ****** ****** ****** ****** ****** ****** ******
      ****** ****** ****** ****** ****** ****** ****** ****** ****** ******
   4  ****** ****** ****** ****** ****** ****** ****** ****** ****** ******
      ****** ****** ****** ****** ****** ****** ****** ****** ****** ******
      ****** ****** ****** ****** ****** ****** ****** ****** ****** ******
   5  ****** ****** ****** ****** ****** ****** ****** ****** ****** ******
      ****** ****** ****** ****** ****** ****** ****** ****** ****** ******
      ****** ****** ****** ****** ****** ****** ****** ****** ****** ******
   6  ****** ****** ****** ****** ****** ****** ****** ****** ****** ******
      ****** ****** ****** ****** ****** ****** ****** ****** ****** ******
      ****** ****** ****** ****** ****** ****** ****** ****** ****** ******
   7  ****** ****** ****** ****** ****** ****** ****** ****** ****** ******
      ****** ****** ****** ****** ****** ****** ****** ****** ****** ******
      ****** ****** ****** ****** ****** ****** ****** ****** ****** ******
   8  ****** ****** ****** ****** ****** ****** ****** ****** ****** ******
      ****** ****** ****** ****** ****** ****** ****** ****** ****** ******
      ****** ****** ****** ****** ****** ****** ****** ****** ****** ******
   9  ****** ****** ****** ****** ****** ****** ****** ****** ****** ******
      ****** ****** ****** ****** ****** ****** ****** ****** ****** ******
      ****** ****** ****** ****** ****** ****** ****** ****** ****** ******
  10  ****** ****** ****** ****** ****** ****** ****** ****** ****** ******
      ****** ****** ****** ****** ****** ****** ****** ****** ****** ******
      ****** ****** ****** ****** ****** ****** ****** ****** ****** ******
  11  ****** ****** ****** ****** ****** ****** ****** ****** ****** ******
      ****** ****** ****** ****** ****** ****** ****** ****** ****** ******
      ****** ****** ****** ****** ****** ****** ****** ****** ****** ******
  12  ****** ****** ****** ****** ****** ****** ****** ****** ****** ******
      ****** ****** ****** ****** ****** ****** ****** ****** ****** ******
      ****** ****** ****** ****** ****** ****** ****** ****** ****** ******
  13  ****** ****** ****** ****** ****** ****** ****** ****** ****** ******
      ****** ****** ****** ****** ****** ****** ****** ****** ****** ******
      ****** ****** ****** ****** ****** ****** ****** ****** ****** ******
  14  ****** ****** ****** ****** ****** ****** ****** ****** ****** ******
      ****** ****** ****** ****** ****** ****** ****** ****** ****** ******
      ****** ****** ****** ****** ****** ****** ****** ****** ****** ******
  15  ****** ****** ****** ****** ****** ****** ****** ****** ****** ******
      ****** ****** ****** ****** ****** ****** ****** ****** ****** ******
      ****** ****** ****** ****** ****** ****** ****** ****** ****** ******
  16  ****** ****** ****** ****** ****** ****** ****** ****** ****** ******
      ****** ****** ****** ****** ****** ****** ****** ****** ****** ******
      ****** ****** ****** ****** ****** ****** ****** ****** ****** ******
  17  ****** ****** ****** ****** ****** ****** ****** ****** ****** ******
      ****** ****** ****** ****** ****** ****** ****** ****** ****** ******
      ****** ****** ****** ****** ****** ****** ****** ****** ****** ******
  18  ****** ****** ****** ****** ****** ****** ****** ****** ****** ******
      ****** ****** ****** ****** ****** ****** ****** ****** ****** ******
      ****** ****** ****** ****** ****** ****** ****** ****** ****** ******
  19  ****** ****** ****** ****** ****** ****** ****** ****** ****** ******
      ****** ****** ****** ****** ****** ****** ****** ****** ****** ******
      ****** ****** ****** ****** ****** ****** ****** ****** ****** ******
  20  ****** ****** ****** ****** ****** ****** ****** ****** ****** ******
      ****** ****** ****** ****** ****** ****** ****** ****** ****** ******
      ****** ****** ****** ****** ****** ****** ****** ****** ****** ******
  21  ****** ****** ****** ****** ****** ****** ****** ****** ****** ******
      ****** ****** ****** ****** ****** ****** ****** ****** ****** ******
      ****** ****** ****** ****** ****** ****** ****** ****** ****** ******
  22  ****** ****** ****** ****** ****** ****** ****** ****** ****** ******
      ****** ****** ****** ****** ****** ****** ****** ****** ****** ******
      ****** ****** ****** ****** ****** ****** ****** ****** ****** ******
  23  ****** ****** ****** ****** ****** ****** ****** ****** ****** ******
      ****** ****** ****** ****** ****** ****** ****** ****** ****** ******
      ****** ****** ****** ****** ****** ****** ****** ****** ****** ******
  24  ****** ****** ****** ****** ****** ****** ****** ****** ****** ******
      ****** ****** ****** ****** ****** ****** ****** ****** ****** ******
      ****** ****** ****** ****** ****** ****** ****** ****** ****** ******
  25  ****** ****** ****** ****** ****** ****** ****** ****** ****** ******
      ****** ****** ****** ****** ****** ****** ****** ****** ****** ******
      ****** ****** ****** ****** ****** ****** ****** ****** ****** ******

 HEAD WILL BE SAVED ON UNIT   51 AT END OF TIME STEP    1, STRESS PERIOD    8
1
  VOLUMETRIC BUDGET FOR ENTIRE MODEL AT END OF TIME STEP    1, STRESS PERIOD   8
  ------------------------------------------------------------------------------

     CUMULATIVE VOLUMES      L**3       RATES FOR THIS TIME STEP      L**3/T
     ------------------                 ------------------------

           IN:                                      IN:
           ---                                      ---
             STORAGE =    32580602.7311               STORAGE =        1397.3078
       CONSTANT HEAD =    18333667.7627         CONSTANT HEAD =       31514.1039
               WELLS =           0.0000                 WELLS =           0.0000
            RECHARGE =    17608800.0000              RECHARGE =       27600.0000
      STREAM LEAKAGE =     8052423.3217        STREAM LEAKAGE =       13200.5614

            TOTAL IN =    76575493.8155              TOTAL IN =       73711.9731

          OUT:                                     OUT:
          ----                                     ----
             STORAGE =      966652.0514               STORAGE =        1590.7645
       CONSTANT HEAD =           0.0000         CONSTANT HEAD =           0.0000
               WELLS =    22272572.4903                 WELLS =       30510.3733
            RECHARGE =           0.0000              RECHARGE =           0.0000
      STREAM LEAKAGE =    53336270.9830        STREAM LEAKAGE =       41610.8269

           TOTAL OUT =    76575495.5248             TOTAL OUT =       73711.9647

            IN - OUT =          -1.7093              IN - OUT =       8.3743E-03

 PERCENT DISCREPANCY =          -0.00     PERCENT DISCREPANCY =           0.00






         TIME SUMMARY AT END OF TIME STEP    1 IN STRESS PERIOD    8
                    SECONDS     MINUTES      HOURS       DAYS        YEARS
                    -----------------------------------------------------------
   TIME STEP LENGTH 7.86240E+06 1.31040E+05  2184.0      91.000     0.24914    
 STRESS PERIOD TIME 7.86240E+06 1.31040E+05  2184.0      91.000     0.24914    
         TOTAL TIME 6.30720E+07 1.05120E+06  17520.      730.00      1.9986    
1
1
                            STRESS PERIOD NO.    9, LENGTH =   92.00000    
                            -----------------------------------------------

                              NUMBER OF TIME STEPS =     1

                               MULTIPLIER FOR DELT =     1.500

                            INITIAL TIME STEP SIZE =   92.00000    

 WELL NO.  LAYER   ROW   COL   STRESS RATE         
 --------------------------------------------------
      1      1     12     11      -2057.    
      2      1     16     17     -0.1037E+05
      3      1     11     22     -0.1125E+05
      4      1     14     25      -6834.    

      4 WELLS

                 RECHARGE =  5.000000E-04

 REUSING STREAM SEGMENT DATA FROM LAST STRESS PERIOD
 
 SOLVING FOR HEAD 


     6 CALLS TO PCG ROUTINE FOR TIME STEP   1 IN STRESS PERIOD    9
    23 TOTAL ITERATIONS

 OUTPUT CONTROL FOR STRESS PERIOD    9   TIME STEP    1
    SAVE BUDGET
    SAVE HEAD FOR ALL LAYERS
    PRINT HEAD FOR ALL LAYERS
 UBDSV2 SAVING "STREAMFLOW OUT  " ON UNIT  50 AT TIME STEP  1, STRESS PERIOD   9



 STREAM LISTING     PERIOD      9   STEP        1

 LAYER ROW COL. STREAM  RCH.  FLOW INTO     FLOW TO   FLOW OUT OF   OVRLND.     DIRECT     STREAM       STREAM     STREAM     STREAM   STREAMBED  STREAMBED
                SEG.NO.  NO.  STRM. RCH.    AQUIFER    STRM. RCH.    RUNOFF     PRECIP       ET          HEAD       DEPTH      WIDTH   CONDCTNC.   GRADIENT

   1   13    1     1     1    1.0000E+05 -1.6343E+03   1.0163E+05  0.000E+00  0.000E+00  0.000E+00  4.84067E+01  1.454E-01  2.000E+01  2.000E+04 -8.172E-02
   1   13    2     1     2    1.0163E+05 -2.5714E+03   1.0421E+05  0.000E+00  0.000E+00  0.000E+00  4.79313E+01  1.472E-01  2.000E+01  2.000E+04 -1.286E-01
   1   14    3     1     3    1.0421E+05 -3.9587E+02   1.0460E+05  0.000E+00  0.000E+00  0.000E+00  4.74553E+01  1.484E-01  2.000E+01  2.000E+04 -1.979E-02
   1   15    4     1     4    1.0460E+05 -3.6336E+02   1.0496E+05  0.000E+00  0.000E+00  0.000E+00  4.69783E+01  1.488E-01  2.000E+01  2.000E+04 -1.817E-02
   1   16    5     1     5    1.0496E+05 -1.4048E+03   1.0637E+05  0.000E+00  0.000E+00  0.000E+00  4.65018E+01  1.495E-01  2.000E+01  2.000E+04 -7.024E-02
   1   16    6     1     6    1.0637E+05 -8.8568E+02   1.0726E+05  0.000E+00  0.000E+00  0.000E+00  4.60255E+01  1.505E-01  2.000E+01  2.000E+04 -4.428E-02
   1   16    7     1     7    1.0726E+05 -8.5685E+02   1.0811E+05  0.000E+00  0.000E+00  0.000E+00  4.55489E+01  1.512E-01  2.000E+01  2.000E+04 -4.284E-02
   1   16    8     1     8    1.0811E+05 -8.3132E+02   1.0894E+05  0.000E+00  0.000E+00  0.000E+00  4.50724E+01  1.519E-01  2.000E+01  2.000E+04 -4.157E-02
   1   16    9     1     9    1.0894E+05 -7.9253E+02   1.0974E+05  0.000E+00  0.000E+00  0.000E+00  4.45958E+01  1.526E-01  2.000E+01  2.000E+04 -3.963E-02
   1   16   10     1    10    1.0974E+05 -7.3955E+02   1.1048E+05  0.000E+00  0.000E+00  0.000E+00  4.41192E+01  1.533E-01  2.000E+01  2.000E+04 -3.698E-02
   1   16   11     1    11    1.1048E+05 -6.7776E+02   1.1115E+05  0.000E+00  0.000E+00  0.000E+00  4.36425E+01  1.538E-01  2.000E+01  2.000E+04 -3.389E-02
   1   16   12     1    12    1.1115E+05 -7.8152E+02   1.1193E+05  0.000E+00  0.000E+00  0.000E+00  4.31658E+01  1.545E-01  2.000E+01  2.000E+04 -3.908E-02
   1   15   13     1    13    1.1193E+05 -3.1332E+02   1.1225E+05  0.000E+00  0.000E+00  0.000E+00  4.26890E+01  1.549E-01  2.000E+01  2.000E+04 -1.567E-02
   1   14   14     1    14    1.1225E+05 -3.4281E+02   1.1259E+05  0.000E+00  0.000E+00  0.000E+00  4.22120E+01  1.552E-01  2.000E+01  2.000E+04 -1.714E-02
   1   13   15     1    15    1.1259E+05 -7.6878E+02   1.1336E+05  0.000E+00  0.000E+00  0.000E+00  4.17352E+01  1.556E-01  2.000E+01  2.000E+04 -3.844E-02
   1   12   16     1    16    1.1336E+05 -1.8919E+03   1.1525E+05  0.000E+00  0.000E+00  0.000E+00  4.12590E+01  1.567E-01  2.000E+01  2.000E+04 -9.460E-02
   1   12   17     1    17    1.1525E+05 -9.1837E+02   1.1617E+05  0.000E+00  0.000E+00  0.000E+00  4.07829E+01  1.579E-01  2.000E+01  2.000E+04 -4.592E-02
   1   12   18     1    18    1.1617E+05 -7.6409E+02   1.1693E+05  0.000E+00  0.000E+00  0.000E+00  4.03063E+01  1.586E-01  2.000E+01  2.000E+04 -3.820E-02
   1   12   19     1    19    1.1693E+05 -5.5543E+02   1.1749E+05  0.000E+00  0.000E+00  0.000E+00  3.98296E+01  1.591E-01  2.000E+01  2.000E+04 -2.777E-02
   1   13   20     1    20    1.1749E+05  4.3079E+02   1.1706E+05  0.000E+00  0.000E+00  0.000E+00  3.93523E+01  1.592E-01  2.000E+01  2.000E+04  2.154E-02
   1   14   21     1    21    1.1706E+05  1.2451E+02   1.1693E+05  0.000E+00  0.000E+00  0.000E+00  3.88748E+01  1.589E-01  2.000E+01  2.000E+04  6.226E-03
   1   14   22     1    22    1.1693E+05  5.4307E+03   1.1150E+05  0.000E+00  0.000E+00  0.000E+00  3.83953E+01  1.567E-01  2.000E+01  2.000E+04  2.715E-01
   1    9   30     2     1    5.0000E+04 -3.9601E+02   5.0396E+04  0.000E+00  0.000E+00  0.000E+00  4.02411E+01  1.161E-01  2.000E+01  2.000E+04 -1.980E-02
   1    9   29     2     2    5.0396E+04 -6.7735E+02   5.1073E+04  0.000E+00  0.000E+00  0.000E+00  3.99919E+01  1.169E-01  2.000E+01  2.000E+04 -3.387E-02
   1    9   28     2     3    5.1073E+04 -8.8860E+02   5.1962E+04  0.000E+00  0.000E+00  0.000E+00  3.97430E+01  1.180E-01  2.000E+01  2.000E+04 -4.443E-02
   1    9   27     2     4    5.1962E+04 -1.8361E+03   5.3798E+04  0.000E+00  0.000E+00  0.000E+00  3.94948E+01  1.198E-01  2.000E+01  2.000E+04 -9.181E-02
   1   10   26     2     5    5.3798E+04 -6.6454E+02   5.4463E+04  0.000E+00  0.000E+00  0.000E+00  3.92465E+01  1.215E-01  2.000E+01  2.000E+04 -3.323E-02
   1   11   25     2     6    5.4463E+04  5.4882E+02   5.3914E+04  0.000E+00  0.000E+00  0.000E+00  3.89966E+01  1.216E-01  2.000E+01  2.000E+04  2.744E-02
   1   12   24     2     7    5.3914E+04  1.7729E+03   5.2141E+04  0.000E+00  0.000E+00  0.000E+00  3.87450E+01  1.200E-01  2.000E+01  2.000E+04  8.865E-02
   1   13   23     2     8    5.2141E+04  6.1028E+02   5.1531E+04  0.000E+00  0.000E+00  0.000E+00  3.84934E+01  1.184E-01  2.000E+01  2.000E+04  3.051E-02
   1   14   22     2     9    5.1531E+04  2.3519E+03   4.9179E+04  0.000E+00  0.000E+00  0.000E+00  3.82414E+01  1.164E-01  2.000E+01  2.000E+04  1.176E-01
   1   14   22     3     1    1.6068E+05 -8.1251E+03   1.6881E+05  0.000E+00  0.000E+00  0.000E+00  3.77175E+01  1.620E-01  2.000E+01  2.000E+04 -4.063E-01
   1   15   23     3     2    1.6881E+05 -2.2862E+02   1.6904E+05  0.000E+00  0.000E+00  0.000E+00  3.68311E+01  1.644E-01  2.000E+01  2.000E+04 -1.143E-02
   1   15   24     3     3    1.6904E+05  4.3371E+02   1.6860E+05  0.000E+00  0.000E+00  0.000E+00  3.59421E+01  1.643E-01  2.000E+01  2.000E+04  2.169E-02
   1   15   25     3     4    1.6860E+05  1.9539E+03   1.6665E+05  0.000E+00  0.000E+00  0.000E+00  3.50525E+01  1.636E-01  2.000E+01  2.000E+04  9.769E-02
   1   15   26     3     5    1.6665E+05  4.4082E+02   1.6621E+05  0.000E+00  0.000E+00  0.000E+00  3.41629E+01  1.629E-01  2.000E+01  2.000E+04  2.204E-02
   1   16   27     3     6    1.6621E+05 -2.2280E+02   1.6643E+05  0.000E+00  0.000E+00  0.000E+00  3.32740E+01  1.629E-01  2.000E+01  2.000E+04 -1.114E-02
   1   17   28     3     7    1.6643E+05 -1.1848E+03   1.6762E+05  0.000E+00  0.000E+00  0.000E+00  3.23855E+01  1.633E-01  2.000E+01  2.000E+04 -5.924E-02
   1   18   29     3     8    1.6762E+05 -2.5509E+03   1.7017E+05  0.000E+00  0.000E+00  0.000E+00  3.14977E+01  1.644E-01  2.000E+01  2.000E+04 -1.275E-01
   1   18   30     3     9    1.7017E+05 -2.9150E+03   1.7308E+05  0.000E+00  0.000E+00  0.000E+00  3.06104E+01  1.660E-01  2.000E+01  2.000E+04 -1.457E-01



1
              HEAD IN LAYER   1 AT END OF TIME STEP   1 IN STRESS PERIOD    9
  ---------------------------------------------------------------------------

          1      2      3      4      5      6      7      8      9     10
         11     12     13     14     15     16     17     18     19     20
         21     22     23     24     25     26     27     28     29     30
 .........................................................................
   1  ****** ****** ****** ****** ****** ****** ****** ****** ****** ******
      ****** ****** ****** ****** ****** ****** ****** ****** ****** ******
      ****** ****** ****** ****** ****** ****** ****** ****** ****** ******
   2  ****** ****** ****** ****** ****** ****** ****** ****** ****** ******
      ****** ****** ****** ****** ****** ****** ****** ****** ****** ******
      ****** ****** ****** ****** ****** ****** ****** ****** ****** ******
   3  ****** ****** ****** ****** ****** ****** ****** ****** ****** ******
      ****** ****** ****** ****** ****** ****** ****** ****** ****** ******
      ****** ****** ****** ****** ****** ****** ****** ****** ****** ******
   4  ****** ****** ****** ****** ****** ****** ****** ****** ****** ******
      ****** ****** ****** ****** ****** ****** ****** ****** ****** ******
      ****** ****** ****** ****** ****** ****** ****** ****** ****** ******
   5  ****** ****** ****** ****** ****** ****** ****** ****** ****** ******
      ****** ****** ****** ****** ****** ****** ****** ****** ****** ******
      ****** ****** ****** ****** ****** ****** ****** ****** ****** ******
   6  ****** ****** ****** ****** ****** ****** ****** ****** ****** ******
      ****** ****** ****** ****** ****** ****** ****** ****** ****** ******
      ****** ****** ****** ****** ****** ****** ****** ****** ****** ******
   7  ****** ****** ****** ****** ****** ****** ****** ****** ****** ******
      ****** ****** ****** ****** ****** ****** ****** ****** ****** ******
      ****** ****** ****** ****** ****** ****** ****** ****** ****** ******
   8  ****** ****** ****** ****** ****** ****** ****** ****** ****** ******
      ****** ****** ****** ****** ****** ****** ****** ****** ****** ******
      ****** ****** ****** ****** ****** ****** ****** ****** ****** ******
   9  ****** ****** ****** ****** ****** ****** ****** ****** ****** ******
      ****** ****** ****** ****** ****** ****** ****** ****** ****** ******
      ****** ****** ****** ****** ****** ****** ****** ****** ****** ******
  10  ****** ****** ****** ****** ****** ****** ****** ****** ****** ******
      ****** ****** ****** ****** ****** ****** ****** ****** ****** ******
      ****** ****** ****** ****** ****** ****** ****** ****** ****** ******
  11  ****** ****** ****** ****** ****** ****** ****** ****** ****** ******
      ****** ****** ****** ****** ****** ****** ****** ****** ****** ******
      ****** ****** ****** ****** ****** ****** ****** ****** ****** ******
  12  ****** ****** ****** ****** ****** ****** ****** ****** ****** ******
      ****** ****** ****** ****** ****** ****** ****** ****** ****** ******
      ****** ****** ****** ****** ****** ****** ****** ****** ****** ******
  13  ****** ****** ****** ****** ****** ****** ****** ****** ****** ******
      ****** ****** ****** ****** ****** ****** ****** ****** ****** ******
      ****** ****** ****** ****** ****** ****** ****** ****** ****** ******
  14  ****** ****** ****** ****** ****** ****** ****** ****** ****** ******
      ****** ****** ****** ****** ****** ****** ****** ****** ****** ******
      ****** ****** ****** ****** ****** ****** ****** ****** ****** ******
  15  ****** ****** ****** ****** ****** ****** ****** ****** ****** ******
      ****** ****** ****** ****** ****** ****** ****** ****** ****** ******
      ****** ****** ****** ****** ****** ****** ****** ****** ****** ******
  16  ****** ****** ****** ****** ****** ****** ****** ****** ****** ******
      ****** ****** ****** ****** ****** ****** ****** ****** ****** ******
      ****** ****** ****** ****** ****** ****** ****** ****** ****** ******
  17  ****** ****** ****** ****** ****** ****** ****** ****** ****** ******
      ****** ****** ****** ****** ****** ****** ****** ****** ****** ******
      ****** ****** ****** ****** ****** ****** ****** ****** ****** ******
  18  ****** ****** ****** ****** ****** ****** ****** ****** ****** ******
      ****** ****** ****** ****** ****** ****** ****** ****** ****** ******
      ****** ****** ****** ****** ****** ****** ****** ****** ****** ******
  19  ****** ****** ****** ****** ****** ****** ****** ****** ****** ******
      ****** ****** ****** ****** ****** ****** ****** ****** ****** ******
      ****** ****** ****** ****** ****** ****** ****** ****** ****** ******
  20  ****** ****** ****** ****** ****** ****** ****** ****** ****** ******
      ****** ****** ****** ****** ****** ****** ****** ****** ****** ******
      ****** ****** ****** ****** ****** ****** ****** ****** ****** ******
  21  ****** ****** ****** ****** ****** ****** ****** ****** ****** ******
      ****** ****** ****** ****** ****** ****** ****** ****** ****** ******
      ****** ****** ****** ****** ****** ****** ****** ****** ****** ******
  22  ****** ****** ****** ****** ****** ****** ****** ****** ****** ******
      ****** ****** ****** ****** ****** ****** ****** ****** ****** ******
      ****** ****** ****** ****** ****** ****** ****** ****** ****** ******
  23  ****** ****** ****** ****** ****** ****** ****** ****** ****** ******
      ****** ****** ****** ****** ****** ****** ****** ****** ****** ******
      ****** ****** ****** ****** ****** ****** ****** ****** ****** ******
  24  ****** ****** ****** ****** ****** ****** ****** ****** ****** ******
      ****** ****** ****** ****** ****** ****** ****** ****** ****** ******
      ****** ****** ****** ****** ****** ****** ****** ****** ****** ******
  25  ****** ****** ****** ****** ****** ****** ****** ****** ****** ******
      ****** ****** ****** ****** ****** ****** ****** ****** ****** ******
      ****** ****** ****** ****** ****** ****** ****** ****** ****** ******

 HEAD WILL BE SAVED ON UNIT   51 AT END OF TIME STEP    1, STRESS PERIOD    9
1
  VOLUMETRIC BUDGET FOR ENTIRE MODEL AT END OF TIME STEP    1, STRESS PERIOD   9
  ------------------------------------------------------------------------------

     CUMULATIVE VOLUMES      L**3       RATES FOR THIS TIME STEP      L**3/T
     ------------------                 ------------------------

           IN:                                      IN:
           ---                                      ---
             STORAGE =    33235834.9478               STORAGE =        7122.0893
       CONSTANT HEAD =    21339257.6215         CONSTANT HEAD =       32669.4550
               WELLS =           0.0000                 WELLS =           0.0000
            RECHARGE =    18878400.0000              RECHARGE =       13800.0000
      STREAM LEAKAGE =     9349472.4862        STREAM LEAKAGE =       14098.3605

            TOTAL IN =    82802965.0555              TOTAL IN =       67689.9048

          OUT:                                     OUT:
          ----                                     ----
             STORAGE =      966652.0514               STORAGE =           0.0000
       CONSTANT HEAD =           0.0000         CONSTANT HEAD =           0.0000
               WELLS =    25079526.8316                 WELLS =       30510.3733
            RECHARGE =           0.0000              RECHARGE =           0.0000
      STREAM LEAKAGE =    56756787.9504        STREAM LEAKAGE =       37179.5323

           TOTAL OUT =    82802966.8334             TOTAL OUT =       67689.9055

            IN - OUT =          -1.7779              IN - OUT =      -7.4549E-04

 PERCENT DISCREPANCY =          -0.00     PERCENT DISCREPANCY =          -0.00






         TIME SUMMARY AT END OF TIME STEP    1 IN STRESS PERIOD    9
                    SECONDS     MINUTES      HOURS       DAYS        YEARS
                    -----------------------------------------------------------
   TIME STEP LENGTH 7.94880E+06 1.32480E+05  2208.0      92.000     0.25188    
 STRESS PERIOD TIME 7.94880E+06 1.32480E+05  2208.0      92.000     0.25188    
         TOTAL TIME 7.10208E+07 1.18368E+06  19728.      822.00      2.2505    
1
1
                            STRESS PERIOD NO.   10, LENGTH =   91.00000    
                            -----------------------------------------------

                              NUMBER OF TIME STEPS =     1

                               MULTIPLIER FOR DELT =     1.500

                            INITIAL TIME STEP SIZE =   91.00000    

 WELL NO.  LAYER   ROW   COL   STRESS RATE         
 --------------------------------------------------
      1      1     12     11      -2057.    
      2      1     16     17     -0.1037E+05
      3      1     11     22     -0.1125E+05
      4      1     14     25      -6834.    

      4 WELLS

                 RECHARGE =  2.000000E-03

 REUSING STREAM SEGMENT DATA FROM LAST STRESS PERIOD
 
 SOLVING FOR HEAD 


     7 CALLS TO PCG ROUTINE FOR TIME STEP   1 IN STRESS PERIOD   10
    26 TOTAL ITERATIONS

 OUTPUT CONTROL FOR STRESS PERIOD   10   TIME STEP    1
    SAVE BUDGET
    SAVE HEAD FOR ALL LAYERS
    PRINT HEAD FOR ALL LAYERS
 UBDSV2 SAVING "STREAMFLOW OUT  " ON UNIT  50 AT TIME STEP  1, STRESS PERIOD  10



 STREAM LISTING     PERIOD     10   STEP        1

 LAYER ROW COL. STREAM  RCH.  FLOW INTO     FLOW TO   FLOW OUT OF   OVRLND.     DIRECT     STREAM       STREAM     STREAM     STREAM   STREAMBED  STREAMBED
                SEG.NO.  NO.  STRM. RCH.    AQUIFER    STRM. RCH.    RUNOFF     PRECIP       ET          HEAD       DEPTH      WIDTH   CONDCTNC.   GRADIENT

   1   13    1     1     1    1.0000E+05 -2.0883E+03   1.0209E+05  0.000E+00  0.000E+00  0.000E+00  4.84069E+01  1.456E-01  2.000E+01  2.000E+04 -1.044E-01
   1   13    2     1     2    1.0209E+05 -3.0745E+03   1.0516E+05  0.000E+00  0.000E+00  0.000E+00  4.79319E+01  1.478E-01  2.000E+01  2.000E+04 -1.537E-01
   1   14    3     1     3    1.0516E+05 -5.8257E+02   1.0575E+05  0.000E+00  0.000E+00  0.000E+00  4.74562E+01  1.493E-01  2.000E+01  2.000E+04 -2.913E-02
   1   15    4     1     4    1.0575E+05 -5.6291E+02   1.0631E+05  0.000E+00  0.000E+00  0.000E+00  4.69794E+01  1.498E-01  2.000E+01  2.000E+04 -2.815E-02
   1   16    5     1     5    1.0631E+05 -2.0239E+03   1.0833E+05  0.000E+00  0.000E+00  0.000E+00  4.65032E+01  1.509E-01  2.000E+01  2.000E+04 -1.012E-01
   1   16    6     1     6    1.0833E+05 -1.2480E+03   1.0958E+05  0.000E+00  0.000E+00  0.000E+00  4.60273E+01  1.523E-01  2.000E+01  2.000E+04 -6.240E-02
   1   16    7     1     7    1.0958E+05 -1.2014E+03   1.1078E+05  0.000E+00  0.000E+00  0.000E+00  4.55510E+01  1.533E-01  2.000E+01  2.000E+04 -6.007E-02
   1   16    8     1     8    1.1078E+05 -1.1704E+03   1.1195E+05  0.000E+00  0.000E+00  0.000E+00  4.50748E+01  1.543E-01  2.000E+01  2.000E+04 -5.852E-02
   1   16    9     1     9    1.1195E+05 -1.1301E+03   1.1308E+05  0.000E+00  0.000E+00  0.000E+00  4.45984E+01  1.553E-01  2.000E+01  2.000E+04 -5.651E-02
   1   16   10     1    10    1.1308E+05 -1.0773E+03   1.1416E+05  0.000E+00  0.000E+00  0.000E+00  4.41221E+01  1.562E-01  2.000E+01  2.000E+04 -5.386E-02
   1   16   11     1    11    1.1416E+05 -1.0190E+03   1.1518E+05  0.000E+00  0.000E+00  0.000E+00  4.36457E+01  1.570E-01  2.000E+01  2.000E+04 -5.095E-02
   1   16   12     1    12    1.1518E+05 -1.3512E+03   1.1653E+05  0.000E+00  0.000E+00  0.000E+00  4.31694E+01  1.580E-01  2.000E+01  2.000E+04 -6.756E-02
   1   15   13     1    13    1.1653E+05 -9.0035E+02   1.1743E+05  0.000E+00  0.000E+00  0.000E+00  4.26930E+01  1.589E-01  2.000E+01  2.000E+04 -4.502E-02
   1   14   14     1    14    1.1743E+05 -9.3731E+02   1.1837E+05  0.000E+00  0.000E+00  0.000E+00  4.22165E+01  1.597E-01  2.000E+01  2.000E+04 -4.687E-02
   1   13   15     1    15    1.1837E+05 -1.3535E+03   1.1972E+05  0.000E+00  0.000E+00  0.000E+00  4.17401E+01  1.606E-01  2.000E+01  2.000E+04 -6.768E-02
   1   12   16     1    16    1.1972E+05 -2.4556E+03   1.2218E+05  0.000E+00  0.000E+00  0.000E+00  4.12644E+01  1.621E-01  2.000E+01  2.000E+04 -1.228E-01
   1   12   17     1    17    1.2218E+05 -1.3448E+03   1.2352E+05  0.000E+00  0.000E+00  0.000E+00  4.07887E+01  1.637E-01  2.000E+01  2.000E+04 -6.724E-02
   1   12   18     1    18    1.2352E+05 -1.1863E+03   1.2471E+05  0.000E+00  0.000E+00  0.000E+00  4.03124E+01  1.647E-01  2.000E+01  2.000E+04 -5.931E-02
   1   12   19     1    19    1.2471E+05 -1.0750E+03   1.2578E+05  0.000E+00  0.000E+00  0.000E+00  3.98360E+01  1.656E-01  2.000E+01  2.000E+04 -5.375E-02
   1   13   20     1    20    1.2578E+05 -9.0985E+01   1.2587E+05  0.000E+00  0.000E+00  0.000E+00  3.93592E+01  1.660E-01  2.000E+01  2.000E+04 -4.549E-03
   1   14   21     1    21    1.2587E+05 -4.0084E+02   1.2627E+05  0.000E+00  0.000E+00  0.000E+00  3.88821E+01  1.662E-01  2.000E+01  2.000E+04 -2.004E-02
   1   14   22     1    22    1.2627E+05  5.3032E+03   1.2097E+05  0.000E+00  0.000E+00  0.000E+00  3.84029E+01  1.643E-01  2.000E+01  2.000E+04  2.652E-01
   1    9   30     2     1    5.0000E+04 -8.1046E+02   5.0810E+04  0.000E+00  0.000E+00  0.000E+00  4.02414E+01  1.164E-01  2.000E+01  2.000E+04 -4.052E-02
   1    9   29     2     2    5.0810E+04 -1.0895E+03   5.1900E+04  0.000E+00  0.000E+00  0.000E+00  3.99927E+01  1.177E-01  2.000E+01  2.000E+04 -5.448E-02
   1    9   28     2     3    5.1900E+04 -1.3000E+03   5.3200E+04  0.000E+00  0.000E+00  0.000E+00  3.97444E+01  1.194E-01  2.000E+01  2.000E+04 -6.500E-02
   1    9   27     2     4    5.3200E+04 -2.3896E+03   5.5590E+04  0.000E+00  0.000E+00  0.000E+00  3.94969E+01  1.219E-01  2.000E+01  2.000E+04 -1.195E-01
   1   10   26     2     5    5.5590E+04 -1.2180E+03   5.6808E+04  0.000E+00  0.000E+00  0.000E+00  3.92493E+01  1.243E-01  2.000E+01  2.000E+04 -6.090E-02
   1   11   25     2     6    5.6808E+04  1.9916E+01   5.6788E+04  0.000E+00  0.000E+00  0.000E+00  3.90001E+01  1.251E-01  2.000E+01  2.000E+04  9.958E-04
   1   12   24     2     7    5.6788E+04  1.2943E+03   5.5493E+04  0.000E+00  0.000E+00  0.000E+00  3.87492E+01  1.242E-01  2.000E+01  2.000E+04  6.471E-02
   1   13   23     2     8    5.5493E+04  4.6152E+02   5.5032E+04  0.000E+00  0.000E+00  0.000E+00  3.84980E+01  1.230E-01  2.000E+01  2.000E+04  2.308E-02
   1   14   22     2     9    5.5032E+04  2.1702E+03   5.2862E+04  0.000E+00  0.000E+00  0.000E+00  3.82463E+01  1.213E-01  2.000E+01  2.000E+04  1.085E-01
   1   14   22     3     1    1.7383E+05 -8.2515E+03   1.8208E+05  0.000E+00  0.000E+00  0.000E+00  3.77252E+01  1.696E-01  2.000E+01  2.000E+04 -4.126E-01
   1   15   23     3     2    1.8208E+05 -3.9120E+02   1.8248E+05  0.000E+00  0.000E+00  0.000E+00  3.68388E+01  1.721E-01  2.000E+01  2.000E+04 -1.956E-02
   1   15   24     3     3    1.8248E+05  2.9651E+02   1.8218E+05  0.000E+00  0.000E+00  0.000E+00  3.59499E+01  1.721E-01  2.000E+01  2.000E+04  1.483E-02
   1   15   25     3     4    1.8218E+05  1.8133E+03   1.8037E+05  0.000E+00  0.000E+00  0.000E+00  3.50604E+01  1.715E-01  2.000E+01  2.000E+04  9.066E-02
   1   15   26     3     5    1.8037E+05  2.7857E+02   1.8009E+05  0.000E+00  0.000E+00  0.000E+00  3.41709E+01  1.709E-01  2.000E+01  2.000E+04  1.393E-02
   1   16   27     3     6    1.8009E+05 -4.0869E+02   1.8050E+05  0.000E+00  0.000E+00  0.000E+00  3.32821E+01  1.710E-01  2.000E+01  2.000E+04 -2.043E-02
   1   17   28     3     7    1.8050E+05 -1.7056E+03   1.8220E+05  0.000E+00  0.000E+00  0.000E+00  3.23938E+01  1.716E-01  2.000E+01  2.000E+04 -8.528E-02
   1   18   29     3     8    1.8220E+05 -3.1026E+03   1.8530E+05  0.000E+00  0.000E+00  0.000E+00  3.15063E+01  1.729E-01  2.000E+01  2.000E+04 -1.551E-01
   1   18   30     3     9    1.8530E+05 -3.3405E+03   1.8864E+05  0.000E+00  0.000E+00  0.000E+00  3.06192E+01  1.747E-01  2.000E+01  2.000E+04 -1.670E-01



1
              HEAD IN LAYER   1 AT END OF TIME STEP   1 IN STRESS PERIOD   10
  ---------------------------------------------------------------------------

          1      2      3      4      5      6      7      8      9     10
         11     12     13     14     15     16     17     18     19     20
         21     22     23     24     25     26     27     28     29     30
 .........................................................................
   1  ****** ****** ****** ****** ****** ****** ****** ****** ****** ******
      ****** ****** ****** ****** ****** ****** ****** ****** ****** ******
      ****** ****** ****** ****** ****** ****** ****** ****** ****** ******
   2  ****** ****** ****** ****** ****** ****** ****** ****** ****** ******
      ****** ****** ****** ****** ****** ****** ****** ****** ****** ******
      ****** ****** ****** ****** ****** ****** ****** ****** ****** ******
   3  ****** ****** ****** ****** ****** ****** ****** ****** ****** ******
      ****** ****** ****** ****** ****** ****** ****** ****** ****** ******
      ****** ****** ****** ****** ****** ****** ****** ****** ****** ******
   4  ****** ****** ****** ****** ****** ****** ****** ****** ****** ******
      ****** ****** ****** ****** ****** ****** ****** ****** ****** ******
      ****** ****** ****** ****** ****** ****** ****** ****** ****** ******
   5  ****** ****** ****** ****** ****** ****** ****** ****** ****** ******
      ****** ****** ****** ****** ****** ****** ****** ****** ****** ******
      ****** ****** ****** ****** ****** ****** ****** ****** ****** ******
   6  ****** ****** ****** ****** ****** ****** ****** ****** ****** ******
      ****** ****** ****** ****** ****** ****** ****** ****** ****** ******
      ****** ****** ****** ****** ****** ****** ****** ****** ****** ******
   7  ****** ****** ****** ****** ****** ****** ****** ****** ****** ******
      ****** ****** ****** ****** ****** ****** ****** ****** ****** ******
      ****** ****** ****** ****** ****** ****** ****** ****** ****** ******
   8  ****** ****** ****** ****** ****** ****** ****** ****** ****** ******
      ****** ****** ****** ****** ****** ****** ****** ****** ****** ******
      ****** ****** ****** ****** ****** ****** ****** ****** ****** ******
   9  ****** ****** ****** ****** ****** ****** ****** ****** ****** ******
      ****** ****** ****** ****** ****** ****** ****** ****** ****** ******
      ****** ****** ****** ****** ****** ****** ****** ****** ****** ******
  10  ****** ****** ****** ****** ****** ****** ****** ****** ****** ******
      ****** ****** ****** ****** ****** ****** ****** ****** ****** ******
      ****** ****** ****** ****** ****** ****** ****** ****** ****** ******
  11  ****** ****** ****** ****** ****** ****** ****** ****** ****** ******
      ****** ****** ****** ****** ****** ****** ****** ****** ****** ******
      ****** ****** ****** ****** ****** ****** ****** ****** ****** ******
  12  ****** ****** ****** ****** ****** ****** ****** ****** ****** ******
      ****** ****** ****** ****** ****** ****** ****** ****** ****** ******
      ****** ****** ****** ****** ****** ****** ****** ****** ****** ******
  13  ****** ****** ****** ****** ****** ****** ****** ****** ****** ******
      ****** ****** ****** ****** ****** ****** ****** ****** ****** ******
      ****** ****** ****** ****** ****** ****** ****** ****** ****** ******
  14  ****** ****** ****** ****** ****** ****** ****** ****** ****** ******
      ****** ****** ****** ****** ****** ****** ****** ****** ****** ******
      ****** ****** ****** ****** ****** ****** ****** ****** ****** ******
  15  ****** ****** ****** ****** ****** ****** ****** ****** ****** ******
      ****** ****** ****** ****** ****** ****** ****** ****** ****** ******
      ****** ****** ****** ****** ****** ****** ****** ****** ****** ******
  16  ****** ****** ****** ****** ****** ****** ****** ****** ****** ******
      ****** ****** ****** ****** ****** ****** ****** ****** ****** ******
      ****** ****** ****** ****** ****** ****** ****** ****** ****** ******
  17  ****** ****** ****** ****** ****** ****** ****** ****** ****** ******
      ****** ****** ****** ****** ****** ****** ****** ****** ****** ******
      ****** ****** ****** ****** ****** ****** ****** ****** ****** ******
  18  ****** ****** ****** ****** ****** ****** ****** ****** ****** ******
      ****** ****** ****** ****** ****** ****** ****** ****** ****** ******
      ****** ****** ****** ****** ****** ****** ****** ****** ****** ******
  19  ****** ****** ****** ****** ****** ****** ****** ****** ****** ******
      ****** ****** ****** ****** ****** ****** ****** ****** ****** ******
      ****** ****** ****** ****** ****** ****** ****** ****** ****** ******
  20  ****** ****** ****** ****** ****** ****** ****** ****** ****** ******
      ****** ****** ****** ****** ****** ****** ****** ****** ****** ******
      ****** ****** ****** ****** ****** ****** ****** ****** ****** ******
  21  ****** ****** ****** ****** ****** ****** ****** ****** ****** ******
      ****** ****** ****** ****** ****** ****** ****** ****** ****** ******
      ****** ****** ****** ****** ****** ****** ****** ****** ****** ******
  22  ****** ****** ****** ****** ****** ****** ****** ****** ****** ******
      ****** ****** ****** ****** ****** ****** ****** ****** ****** ******
      ****** ****** ****** ****** ****** ****** ****** ****** ****** ******
  23  ****** ****** ****** ****** ****** ****** ****** ****** ****** ******
      ****** ****** ****** ****** ****** ****** ****** ****** ****** ******
      ****** ****** ****** ****** ****** ****** ****** ****** ****** ******
  24  ****** ****** ****** ****** ****** ****** ****** ****** ****** ******
      ****** ****** ****** ****** ****** ****** ****** ****** ****** ******
      ****** ****** ****** ****** ****** ****** ****** ****** ****** ******
  25  ****** ****** ****** ****** ****** ****** ****** ****** ****** ******
      ****** ****** ****** ****** ****** ****** ****** ****** ****** ******
      ****** ****** ****** ****** ****** ****** ****** ****** ****** ******

 HEAD WILL BE SAVED ON UNIT   51 AT END OF TIME STEP    1, STRESS PERIOD   10
1
  VOLUMETRIC BUDGET FOR ENTIRE MODEL AT END OF TIME STEP    1, STRESS PERIOD  10
  ------------------------------------------------------------------------------

     CUMULATIVE VOLUMES      L**3       RATES FOR THIS TIME STEP      L**3/T
     ------------------                 ------------------------

           IN:                                      IN:
           ---                                      ---
             STORAGE =    33235834.9478               STORAGE =           0.0000
       CONSTANT HEAD =    24042719.7294         CONSTANT HEAD =       29708.3748
               WELLS =           0.0000                 WELLS =           0.0000
            RECHARGE =    23901600.0000              RECHARGE =       55200.0000
      STREAM LEAKAGE =    10408479.9731        STREAM LEAKAGE =       11637.4449

            TOTAL IN =    91588634.6503              TOTAL IN =       96545.8197

          OUT:                                     OUT:
          ----                                     ----
             STORAGE =     2400204.8916               STORAGE =       15753.3279
       CONSTANT HEAD =           0.0000         CONSTANT HEAD =           0.0000
               WELLS =    27855970.7995                 WELLS =       30510.3733
            RECHARGE =           0.0000              RECHARGE =           0.0000
      STREAM LEAKAGE =    61332460.3888        STREAM LEAKAGE =       50282.1147

           TOTAL OUT =    91588636.0800             TOTAL OUT =       96545.8159

            IN - OUT =          -1.4297              IN - OUT =       3.8261E-03

 PERCENT DISCREPANCY =          -0.00     PERCENT DISCREPANCY =           0.00






         TIME SUMMARY AT END OF TIME STEP    1 IN STRESS PERIOD   10
                    SECONDS     MINUTES      HOURS       DAYS        YEARS
                    -----------------------------------------------------------
   TIME STEP LENGTH 7.86240E+06 1.31040E+05  2184.0      91.000     0.24914    
 STRESS PERIOD TIME 7.86240E+06 1.31040E+05  2184.0      91.000     0.24914    
         TOTAL TIME 7.88832E+07 1.31472E+06  21912.      913.00      2.4997    
1
1
                            STRESS PERIOD NO.   11, LENGTH =   91.00000    
                            -----------------------------------------------

                              NUMBER OF TIME STEPS =     1

                               MULTIPLIER FOR DELT =     1.500

                            INITIAL TIME STEP SIZE =   91.00000    

 WELL NO.  LAYER   ROW   COL   STRESS RATE         
 --------------------------------------------------
      1      1     12     11      -2057.    
      2      1     16     17     -0.1037E+05
      3      1     11     22     -0.1125E+05
      4      1     14     25      -6834.    

      4 WELLS

                 RECHARGE =   0.00000    

 REUSING STREAM SEGMENT DATA FROM LAST STRESS PERIOD
 
 SOLVING FOR HEAD 


     7 CALLS TO PCG ROUTINE FOR TIME STEP   1 IN STRESS PERIOD   11
    26 TOTAL ITERATIONS

 OUTPUT CONTROL FOR STRESS PERIOD   11   TIME STEP    1
    SAVE BUDGET
    SAVE HEAD FOR ALL LAYERS
    PRINT HEAD FOR ALL LAYERS
 UBDSV2 SAVING "STREAMFLOW OUT  " ON UNIT  50 AT TIME STEP  1, STRESS PERIOD  11



 STREAM LISTING     PERIOD     11   STEP        1

 LAYER ROW COL. STREAM  RCH.  FLOW INTO     FLOW TO   FLOW OUT OF   OVRLND.     DIRECT     STREAM       STREAM     STREAM     STREAM   STREAMBED  STREAMBED
                SEG.NO.  NO.  STRM. RCH.    AQUIFER    STRM. RCH.    RUNOFF     PRECIP       ET          HEAD       DEPTH      WIDTH   CONDCTNC.   GRADIENT

   1   13    1     1     1    1.0000E+05 -1.5216E+03   1.0152E+05  0.000E+00  0.000E+00  0.000E+00  4.84067E+01  1.453E-01  2.000E+01  2.000E+04 -7.608E-02
   1   13    2     1     2    1.0152E+05 -2.4436E+03   1.0397E+05  0.000E+00  0.000E+00  0.000E+00  4.79311E+01  1.470E-01  2.000E+01  2.000E+04 -1.222E-01
   1   14    3     1     3    1.0397E+05 -3.5182E+02   1.0432E+05  0.000E+00  0.000E+00  0.000E+00  4.74550E+01  1.482E-01  2.000E+01  2.000E+04 -1.759E-02
   1   15    4     1     4    1.0432E+05 -3.2112E+02   1.0464E+05  0.000E+00  0.000E+00  0.000E+00  4.69780E+01  1.485E-01  2.000E+01  2.000E+04 -1.606E-02
   1   16    5     1     5    1.0464E+05 -1.3362E+03   1.0597E+05  0.000E+00  0.000E+00  0.000E+00  4.65015E+01  1.492E-01  2.000E+01  2.000E+04 -6.681E-02
   1   16    6     1     6    1.0597E+05 -8.3387E+02   1.0681E+05  0.000E+00  0.000E+00  0.000E+00  4.60251E+01  1.501E-01  2.000E+01  2.000E+04 -4.169E-02
   1   16    7     1     7    1.0681E+05 -8.0486E+02   1.0761E+05  0.000E+00  0.000E+00  0.000E+00  4.55486E+01  1.508E-01  2.000E+01  2.000E+04 -4.024E-02
   1   16    8     1     8    1.0761E+05 -7.7938E+02   1.0839E+05  0.000E+00  0.000E+00  0.000E+00  4.50719E+01  1.515E-01  2.000E+01  2.000E+04 -3.897E-02
   1   16    9     1     9    1.0839E+05 -7.4128E+02   1.0913E+05  0.000E+00  0.000E+00  0.000E+00  4.45953E+01  1.521E-01  2.000E+01  2.000E+04 -3.706E-02
   1   16   10     1    10    1.0913E+05 -6.8954E+02   1.0982E+05  0.000E+00  0.000E+00  0.000E+00  4.41186E+01  1.527E-01  2.000E+01  2.000E+04 -3.448E-02
   1   16   11     1    11    1.0982E+05 -6.2939E+02   1.1045E+05  0.000E+00  0.000E+00  0.000E+00  4.36419E+01  1.533E-01  2.000E+01  2.000E+04 -3.147E-02
   1   16   12     1    12    1.1045E+05 -7.0579E+02   1.1116E+05  0.000E+00  0.000E+00  0.000E+00  4.31652E+01  1.538E-01  2.000E+01  2.000E+04 -3.529E-02
   1   15   13     1    13    1.1116E+05 -2.1227E+02   1.1137E+05  0.000E+00  0.000E+00  0.000E+00  4.26883E+01  1.542E-01  2.000E+01  2.000E+04 -1.061E-02
   1   14   14     1    14    1.1137E+05 -2.3168E+02   1.1160E+05  0.000E+00  0.000E+00  0.000E+00  4.22112E+01  1.544E-01  2.000E+01  2.000E+04 -1.158E-02
   1   13   15     1    15    1.1160E+05 -6.5365E+02   1.1226E+05  0.000E+00  0.000E+00  0.000E+00  4.17343E+01  1.548E-01  2.000E+01  2.000E+04 -3.268E-02
   1   12   16     1    16    1.1226E+05 -1.7795E+03   1.1404E+05  0.000E+00  0.000E+00  0.000E+00  4.12581E+01  1.558E-01  2.000E+01  2.000E+04 -8.898E-02
   1   12   17     1    17    1.1404E+05 -8.3874E+02   1.1487E+05  0.000E+00  0.000E+00  0.000E+00  4.07819E+01  1.569E-01  2.000E+01  2.000E+04 -4.194E-02
   1   12   18     1    18    1.1487E+05 -6.8778E+02   1.1556E+05  0.000E+00  0.000E+00  0.000E+00  4.03052E+01  1.575E-01  2.000E+01  2.000E+04 -3.439E-02
   1   12   19     1    19    1.1556E+05 -4.6298E+02   1.1603E+05  0.000E+00  0.000E+00  0.000E+00  3.98284E+01  1.580E-01  2.000E+01  2.000E+04 -2.315E-02
   1   13   20     1    20    1.1603E+05  5.2097E+02   1.1550E+05  0.000E+00  0.000E+00  0.000E+00  3.93511E+01  1.579E-01  2.000E+01  2.000E+04  2.605E-02
   1   14   21     1    21    1.1550E+05  1.9581E+02   1.1531E+05  0.000E+00  0.000E+00  0.000E+00  3.88735E+01  1.576E-01  2.000E+01  2.000E+04  9.790E-03
   1   14   22     1    22    1.1531E+05  5.4504E+03   1.0986E+05  0.000E+00  0.000E+00  0.000E+00  3.83939E+01  1.553E-01  2.000E+01  2.000E+04  2.725E-01
   1    9   30     2     1    5.0000E+04 -3.2259E+02   5.0323E+04  0.000E+00  0.000E+00  0.000E+00  4.02411E+01  1.161E-01  2.000E+01  2.000E+04 -1.613E-02
   1    9   29     2     2    5.0323E+04 -6.0471E+02   5.0927E+04  0.000E+00  0.000E+00  0.000E+00  3.99917E+01  1.167E-01  2.000E+01  2.000E+04 -3.024E-02
   1    9   28     2     3    5.0927E+04 -8.1741E+02   5.1745E+04  0.000E+00  0.000E+00  0.000E+00  3.97427E+01  1.177E-01  2.000E+01  2.000E+04 -4.087E-02
   1    9   27     2     4    5.1745E+04 -1.7504E+03   5.3495E+04  0.000E+00  0.000E+00  0.000E+00  3.94945E+01  1.195E-01  2.000E+01  2.000E+04 -8.752E-02
   1   10   26     2     5    5.3495E+04 -5.6418E+02   5.4059E+04  0.000E+00  0.000E+00  0.000E+00  3.92460E+01  1.210E-01  2.000E+01  2.000E+04 -2.821E-02
   1   11   25     2     6    5.4059E+04  6.4994E+02   5.3409E+04  0.000E+00  0.000E+00  0.000E+00  3.89960E+01  1.210E-01  2.000E+01  2.000E+04  3.250E-02
   1   12   24     2     7    5.3409E+04  1.8672E+03   5.1542E+04  0.000E+00  0.000E+00  0.000E+00  3.87443E+01  1.193E-01  2.000E+01  2.000E+04  9.336E-02
   1   13   23     2     8    5.1542E+04  6.4731E+02   5.0895E+04  0.000E+00  0.000E+00  0.000E+00  3.84926E+01  1.176E-01  2.000E+01  2.000E+04  3.237E-02
   1   14   22     2     9    5.0895E+04  2.3805E+03   4.8514E+04  0.000E+00  0.000E+00  0.000E+00  3.82405E+01  1.155E-01  2.000E+01  2.000E+04  1.190E-01
   1   14   22     3     1    1.5837E+05 -8.1059E+03   1.6648E+05  0.000E+00  0.000E+00  0.000E+00  3.77161E+01  1.606E-01  2.000E+01  2.000E+04 -4.053E-01
   1   15   23     3     2    1.6648E+05 -1.9922E+02   1.6668E+05  0.000E+00  0.000E+00  0.000E+00  3.68297E+01  1.630E-01  2.000E+01  2.000E+04 -9.961E-03
   1   15   24     3     3    1.6668E+05  4.6160E+02   1.6622E+05  0.000E+00  0.000E+00  0.000E+00  3.59407E+01  1.630E-01  2.000E+01  2.000E+04  2.308E-02
   1   15   25     3     4    1.6622E+05  1.9822E+03   1.6423E+05  0.000E+00  0.000E+00  0.000E+00  3.50511E+01  1.622E-01  2.000E+01  2.000E+04  9.911E-02
   1   15   26     3     5    1.6423E+05  4.7422E+02   1.6376E+05  0.000E+00  0.000E+00  0.000E+00  3.41615E+01  1.615E-01  2.000E+01  2.000E+04  2.371E-02
   1   16   27     3     6    1.6376E+05 -1.8574E+02   1.6395E+05  0.000E+00  0.000E+00  0.000E+00  3.32725E+01  1.614E-01  2.000E+01  2.000E+04 -9.287E-03
   1   17   28     3     7    1.6395E+05 -1.0960E+03   1.6504E+05  0.000E+00  0.000E+00  0.000E+00  3.23840E+01  1.618E-01  2.000E+01  2.000E+04 -5.480E-02
   1   18   29     3     8    1.6504E+05 -2.4810E+03   1.6752E+05  0.000E+00  0.000E+00  0.000E+00  3.14962E+01  1.629E-01  2.000E+01  2.000E+04 -1.240E-01
   1   18   30     3     9    1.6752E+05 -2.8515E+03   1.7037E+05  0.000E+00  0.000E+00  0.000E+00  3.06089E+01  1.644E-01  2.000E+01  2.000E+04 -1.426E-01



1
              HEAD IN LAYER   1 AT END OF TIME STEP   1 IN STRESS PERIOD   11
  ---------------------------------------------------------------------------

          1      2      3      4      5      6      7      8      9     10
         11     12     13     14     15     16     17     18     19     20
         21     22     23     24     25     26     27     28     29     30
 .........................................................................
   1  ****** ****** ****** ****** ****** ****** ****** ****** ****** ******
      ****** ****** ****** ****** ****** ****** ****** ****** ****** ******
      ****** ****** ****** ****** ****** ****** ****** ****** ****** ******
   2  ****** ****** ****** ****** ****** ****** ****** ****** ****** ******
      ****** ****** ****** ****** ****** ****** ****** ****** ****** ******
      ****** ****** ****** ****** ****** ****** ****** ****** ****** ******
   3  ****** ****** ****** ****** ****** ****** ****** ****** ****** ******
      ****** ****** ****** ****** ****** ****** ****** ****** ****** ******
      ****** ****** ****** ****** ****** ****** ****** ****** ****** ******
   4  ****** ****** ****** ****** ****** ****** ****** ****** ****** ******
      ****** ****** ****** ****** ****** ****** ****** ****** ****** ******
      ****** ****** ****** ****** ****** ****** ****** ****** ****** ******
   5  ****** ****** ****** ****** ****** ****** ****** ****** ****** ******
      ****** ****** ****** ****** ****** ****** ****** ****** ****** ******
      ****** ****** ****** ****** ****** ****** ****** ****** ****** ******
   6  ****** ****** ****** ****** ****** ****** ****** ****** ****** ******
      ****** ****** ****** ****** ****** ****** ****** ****** ****** ******
      ****** ****** ****** ****** ****** ****** ****** ****** ****** ******
   7  ****** ****** ****** ****** ****** ****** ****** ****** ****** ******
      ****** ****** ****** ****** ****** ****** ****** ****** ****** ******
      ****** ****** ****** ****** ****** ****** ****** ****** ****** ******
   8  ****** ****** ****** ****** ****** ****** ****** ****** ****** ******
      ****** ****** ****** ****** ****** ****** ****** ****** ****** ******
      ****** ****** ****** ****** ****** ****** ****** ****** ****** ******
   9  ****** ****** ****** ****** ****** ****** ****** ****** ****** ******
      ****** ****** ****** ****** ****** ****** ****** ****** ****** ******
      ****** ****** ****** ****** ****** ****** ****** ****** ****** ******
  10  ****** ****** ****** ****** ****** ****** ****** ****** ****** ******
      ****** ****** ****** ****** ****** ****** ****** ****** ****** ******
      ****** ****** ****** ****** ****** ****** ****** ****** ****** ******
  11  ****** ****** ****** ****** ****** ****** ****** ****** ****** ******
      ****** ****** ****** ****** ****** ****** ****** ****** ****** ******
      ****** ****** ****** ****** ****** ****** ****** ****** ****** ******
  12  ****** ****** ****** ****** ****** ****** ****** ****** ****** ******
      ****** ****** ****** ****** ****** ****** ****** ****** ****** ******
      ****** ****** ****** ****** ****** ****** ****** ****** ****** ******
  13  ****** ****** ****** ****** ****** ****** ****** ****** ****** ******
      ****** ****** ****** ****** ****** ****** ****** ****** ****** ******
      ****** ****** ****** ****** ****** ****** ****** ****** ****** ******
  14  ****** ****** ****** ****** ****** ****** ****** ****** ****** ******
      ****** ****** ****** ****** ****** ****** ****** ****** ****** ******
      ****** ****** ****** ****** ****** ****** ****** ****** ****** ******
  15  ****** ****** ****** ****** ****** ****** ****** ****** ****** ******
      ****** ****** ****** ****** ****** ****** ****** ****** ****** ******
      ****** ****** ****** ****** ****** ****** ****** ****** ****** ******
  16  ****** ****** ****** ****** ****** ****** ****** ****** ****** ******
      ****** ****** ****** ****** ****** ****** ****** ****** ****** ******
      ****** ****** ****** ****** ****** ****** ****** ****** ****** ******
  17  ****** ****** ****** ****** ****** ****** ****** ****** ****** ******
      ****** ****** ****** ****** ****** ****** ****** ****** ****** ******
      ****** ****** ****** ****** ****** ****** ****** ****** ****** ******
  18  ****** ****** ****** ****** ****** ****** ****** ****** ****** ******
      ****** ****** ****** ****** ****** ****** ****** ****** ****** ******
      ****** ****** ****** ****** ****** ****** ****** ****** ****** ******
  19  ****** ****** ****** ****** ****** ****** ****** ****** ****** ******
      ****** ****** ****** ****** ****** ****** ****** ****** ****** ******
      ****** ****** ****** ****** ****** ****** ****** ****** ****** ******
  20  ****** ****** ****** ****** ****** ****** ****** ****** ****** ******
      ****** ****** ****** ****** ****** ****** ****** ****** ****** ******
      ****** ****** ****** ****** ****** ****** ****** ****** ****** ******
  21  ****** ****** ****** ****** ****** ****** ****** ****** ****** ******
      ****** ****** ****** ****** ****** ****** ****** ****** ****** ******
      ****** ****** ****** ****** ****** ****** ****** ****** ****** ******
  22  ****** ****** ****** ****** ****** ****** ****** ****** ****** ******
      ****** ****** ****** ****** ****** ****** ****** ****** ****** ******
      ****** ****** ****** ****** ****** ****** ****** ****** ****** ******
  23  ****** ****** ****** ****** ****** ****** ****** ****** ****** ******
      ****** ****** ****** ****** ****** ****** ****** ****** ****** ******
      ****** ****** ****** ****** ****** ****** ****** ****** ****** ******
  24  ****** ****** ****** ****** ****** ****** ****** ****** ****** ******
      ****** ****** ****** ****** ****** ****** ****** ****** ****** ******
      ****** ****** ****** ****** ****** ****** ****** ****** ****** ******
  25  ****** ****** ****** ****** ****** ****** ****** ****** ****** ******
      ****** ****** ****** ****** ****** ****** ****** ****** ****** ******
      ****** ****** ****** ****** ****** ****** ****** ****** ****** ******

 HEAD WILL BE SAVED ON UNIT   51 AT END OF TIME STEP    1, STRESS PERIOD   11
1
  VOLUMETRIC BUDGET FOR ENTIRE MODEL AT END OF TIME STEP    1, STRESS PERIOD  11
  ------------------------------------------------------------------------------

     CUMULATIVE VOLUMES      L**3       RATES FOR THIS TIME STEP      L**3/T
     ------------------                 ------------------------

           IN:                                      IN:
           ---                                      ---
             STORAGE =    34864317.2876               STORAGE =       17895.4103
       CONSTANT HEAD =    27044681.6596         CONSTANT HEAD =       32988.5926
               WELLS =           0.0000                 WELLS =           0.0000
            RECHARGE =    23901600.0000              RECHARGE =           0.0000
      STREAM LEAKAGE =    11739822.1568        STREAM LEAKAGE =       14630.1339

            TOTAL IN =    97550421.1040              TOTAL IN =       65514.1369

          OUT:                                     OUT:
          ----                                     ----
             STORAGE =     2400204.8916               STORAGE =           0.0000
       CONSTANT HEAD =           0.0000         CONSTANT HEAD =           0.0000
               WELLS =    30632414.7675                 WELLS =       30510.3733
            RECHARGE =           0.0000              RECHARGE =           0.0000
      STREAM LEAKAGE =    64517803.3118        STREAM LEAKAGE =       35003.7684

           TOTAL OUT =    97550422.9710             TOTAL OUT =       65514.1417

            IN - OUT =          -1.8669              IN - OUT =      -4.8049E-03

 PERCENT DISCREPANCY =          -0.00     PERCENT DISCREPANCY =          -0.00






         TIME SUMMARY AT END OF TIME STEP    1 IN STRESS PERIOD   11
                    SECONDS     MINUTES      HOURS       DAYS        YEARS
                    -----------------------------------------------------------
   TIME STEP LENGTH 7.86240E+06 1.31040E+05  2184.0      91.000     0.24914    
 STRESS PERIOD TIME 7.86240E+06 1.31040E+05  2184.0      91.000     0.24914    
         TOTAL TIME 8.67456E+07 1.44576E+06  24096.      1004.0      2.7488    
1
1
                            STRESS PERIOD NO.   12, LENGTH =   91.00000    
                            -----------------------------------------------

                              NUMBER OF TIME STEPS =     1

                               MULTIPLIER FOR DELT =     1.500

                            INITIAL TIME STEP SIZE =   91.00000    

 WELL NO.  LAYER   ROW   COL   STRESS RATE         
 --------------------------------------------------
      1      1     12     11      -2057.    
      2      1     16     17     -0.1037E+05
      3      1     11     22     -0.1125E+05
      4      1     14     25      -6834.    

      4 WELLS

                 RECHARGE =  1.000000E-03

 REUSING STREAM SEGMENT DATA FROM LAST STRESS PERIOD
 
 SOLVING FOR HEAD 


     7 CALLS TO PCG ROUTINE FOR TIME STEP   1 IN STRESS PERIOD   12
    24 TOTAL ITERATIONS

 OUTPUT CONTROL FOR STRESS PERIOD   12   TIME STEP    1
    SAVE BUDGET
    SAVE HEAD FOR ALL LAYERS
    PRINT HEAD FOR ALL LAYERS
 UBDSV2 SAVING "STREAMFLOW OUT  " ON UNIT  50 AT TIME STEP  1, STRESS PERIOD  12



 STREAM LISTING     PERIOD     12   STEP        1

 LAYER ROW COL. STREAM  RCH.  FLOW INTO     FLOW TO   FLOW OUT OF   OVRLND.     DIRECT     STREAM       STREAM     STREAM     STREAM   STREAMBED  STREAMBED
                SEG.NO.  NO.  STRM. RCH.    AQUIFER    STRM. RCH.    RUNOFF     PRECIP       ET          HEAD       DEPTH      WIDTH   CONDCTNC.   GRADIENT

   1   13    1     1     1    1.0000E+05 -1.6667E+03   1.0167E+05  0.000E+00  0.000E+00  0.000E+00  4.84067E+01  1.454E-01  2.000E+01  2.000E+04 -8.333E-02
   1   13    2     1     2    1.0167E+05 -2.5996E+03   1.0427E+05  0.000E+00  0.000E+00  0.000E+00  4.79313E+01  1.472E-01  2.000E+01  2.000E+04 -1.300E-01
   1   14    3     1     3    1.0427E+05 -4.3050E+02   1.0470E+05  0.000E+00  0.000E+00  0.000E+00  4.74553E+01  1.485E-01  2.000E+01  2.000E+04 -2.152E-02
   1   15    4     1     4    1.0470E+05 -4.0357E+02   1.0510E+05  0.000E+00  0.000E+00  0.000E+00  4.69784E+01  1.489E-01  2.000E+01  2.000E+04 -2.018E-02
   1   16    5     1     5    1.0510E+05 -1.5461E+03   1.0665E+05  0.000E+00  0.000E+00  0.000E+00  4.65020E+01  1.497E-01  2.000E+01  2.000E+04 -7.731E-02
   1   16    6     1     6    1.0665E+05 -9.6442E+02   1.0761E+05  0.000E+00  0.000E+00  0.000E+00  4.60258E+01  1.508E-01  2.000E+01  2.000E+04 -4.822E-02
   1   16    7     1     7    1.0761E+05 -9.3034E+02   1.0854E+05  0.000E+00  0.000E+00  0.000E+00  4.55493E+01  1.516E-01  2.000E+01  2.000E+04 -4.652E-02
   1   16    8     1     8    1.0854E+05 -9.0382E+02   1.0945E+05  0.000E+00  0.000E+00  0.000E+00  4.50728E+01  1.523E-01  2.000E+01  2.000E+04 -4.519E-02
   1   16    9     1     9    1.0945E+05 -8.6613E+02   1.1031E+05  0.000E+00  0.000E+00  0.000E+00  4.45962E+01  1.531E-01  2.000E+01  2.000E+04 -4.331E-02
   1   16   10     1    10    1.1031E+05 -8.1570E+02   1.1113E+05  0.000E+00  0.000E+00  0.000E+00  4.41197E+01  1.538E-01  2.000E+01  2.000E+04 -4.078E-02
   1   16   11     1    11    1.1113E+05 -7.5776E+02   1.1188E+05  0.000E+00  0.000E+00  0.000E+00  4.36431E+01  1.544E-01  2.000E+01  2.000E+04 -3.789E-02
   1   16   12     1    12    1.1188E+05 -9.0764E+02   1.1279E+05  0.000E+00  0.000E+00  0.000E+00  4.31665E+01  1.551E-01  2.000E+01  2.000E+04 -4.538E-02
   1   15   13     1    13    1.1279E+05 -4.2956E+02   1.1322E+05  0.000E+00  0.000E+00  0.000E+00  4.26898E+01  1.557E-01  2.000E+01  2.000E+04 -2.148E-02
   1   14   14     1    14    1.1322E+05 -4.4970E+02   1.1367E+05  0.000E+00  0.000E+00  0.000E+00  4.22128E+01  1.560E-01  2.000E+01  2.000E+04 -2.249E-02
   1   13   15     1    15    1.1367E+05 -8.6449E+02   1.1454E+05  0.000E+00  0.000E+00  0.000E+00  4.17361E+01  1.566E-01  2.000E+01  2.000E+04 -4.322E-02
   1   12   16     1    16    1.1454E+05 -1.9642E+03   1.1650E+05  0.000E+00  0.000E+00  0.000E+00  4.12600E+01  1.577E-01  2.000E+01  2.000E+04 -9.821E-02
   1   12   17     1    17    1.1650E+05 -9.9280E+02   1.1749E+05  0.000E+00  0.000E+00  0.000E+00  4.07839E+01  1.589E-01  2.000E+01  2.000E+04 -4.964E-02
   1   12   18     1    18    1.1749E+05 -8.4392E+02   1.1834E+05  0.000E+00  0.000E+00  0.000E+00  4.03074E+01  1.597E-01  2.000E+01  2.000E+04 -4.220E-02
   1   12   19     1    19    1.1834E+05 -6.5602E+02   1.1899E+05  0.000E+00  0.000E+00  0.000E+00  3.98307E+01  1.603E-01  2.000E+01  2.000E+04 -3.280E-02
   1   13   20     1    20    1.1899E+05  3.1031E+02   1.1868E+05  0.000E+00  0.000E+00  0.000E+00  3.93536E+01  1.604E-01  2.000E+01  2.000E+04  1.552E-02
   1   14   21     1    21    1.1868E+05  1.5652E+00   1.1868E+05  0.000E+00  0.000E+00  0.000E+00  3.88762E+01  1.603E-01  2.000E+01  2.000E+04  7.826E-05
   1   14   22     1    22    1.1868E+05  5.3971E+03   1.1328E+05  0.000E+00  0.000E+00  0.000E+00  3.83967E+01  1.581E-01  2.000E+01  2.000E+04  2.699E-01
   1    9   30     2     1    5.0000E+04 -4.9912E+02   5.0499E+04  0.000E+00  0.000E+00  0.000E+00  4.02412E+01  1.162E-01  2.000E+01  2.000E+04 -2.496E-02
   1    9   29     2     2    5.0499E+04 -7.7921E+02   5.1278E+04  0.000E+00  0.000E+00  0.000E+00  3.99921E+01  1.171E-01  2.000E+01  2.000E+04 -3.896E-02
   1    9   28     2     3    5.1278E+04 -9.8841E+02   5.2267E+04  0.000E+00  0.000E+00  0.000E+00  3.97433E+01  1.183E-01  2.000E+01  2.000E+04 -4.942E-02
   1    9   27     2     4    5.2267E+04 -1.9598E+03   5.4227E+04  0.000E+00  0.000E+00  0.000E+00  3.94953E+01  1.203E-01  2.000E+01  2.000E+04 -9.799E-02
   1   10   26     2     5    5.4227E+04 -7.9429E+02   5.5021E+04  0.000E+00  0.000E+00  0.000E+00  3.92472E+01  1.222E-01  2.000E+01  2.000E+04 -3.971E-02
   1   11   25     2     6    5.5021E+04  4.2374E+02   5.4597E+04  0.000E+00  0.000E+00  0.000E+00  3.89974E+01  1.224E-01  2.000E+01  2.000E+04  2.119E-02
   1   12   24     2     7    5.4597E+04  1.6608E+03   5.2936E+04  0.000E+00  0.000E+00  0.000E+00  3.87460E+01  1.210E-01  2.000E+01  2.000E+04  8.304E-02
   1   13   23     2     8    5.2936E+04  5.6964E+02   5.2367E+04  0.000E+00  0.000E+00  0.000E+00  3.84945E+01  1.195E-01  2.000E+01  2.000E+04  2.848E-02
   1   14   22     2     9    5.2367E+04  2.3130E+03   5.0054E+04  0.000E+00  0.000E+00  0.000E+00  3.82425E+01  1.175E-01  2.000E+01  2.000E+04  1.156E-01
   1   14   22     3     1    1.6334E+05 -8.1563E+03   1.7149E+05  0.000E+00  0.000E+00  0.000E+00  3.77191E+01  1.635E-01  2.000E+01  2.000E+04 -4.078E-01
   1   15   23     3     2    1.7149E+05 -2.7127E+02   1.7177E+05  0.000E+00  0.000E+00  0.000E+00  3.68326E+01  1.660E-01  2.000E+01  2.000E+04 -1.356E-02
   1   15   24     3     3    1.7177E+05  3.9650E+02   1.7137E+05  0.000E+00  0.000E+00  0.000E+00  3.59437E+01  1.659E-01  2.000E+01  2.000E+04  1.983E-02
   1   15   25     3     4    1.7137E+05  1.9158E+03   1.6945E+05  0.000E+00  0.000E+00  0.000E+00  3.50542E+01  1.653E-01  2.000E+01  2.000E+04  9.579E-02
   1   15   26     3     5    1.6945E+05  3.9674E+02   1.6906E+05  0.000E+00  0.000E+00  0.000E+00  3.41646E+01  1.646E-01  2.000E+01  2.000E+04  1.984E-02
   1   16   27     3     6    1.6906E+05 -2.7253E+02   1.6933E+05  0.000E+00  0.000E+00  0.000E+00  3.32757E+01  1.646E-01  2.000E+01  2.000E+04 -1.363E-02
   1   17   28     3     7    1.6933E+05 -1.3168E+03   1.7065E+05  0.000E+00  0.000E+00  0.000E+00  3.23872E+01  1.650E-01  2.000E+01  2.000E+04 -6.584E-02
   1   18   29     3     8    1.7065E+05 -2.6817E+03   1.7333E+05  0.000E+00  0.000E+00  0.000E+00  3.14995E+01  1.662E-01  2.000E+01  2.000E+04 -1.341E-01
   1   18   30     3     9    1.7333E+05 -3.0197E+03   1.7635E+05  0.000E+00  0.000E+00  0.000E+00  3.06123E+01  1.678E-01  2.000E+01  2.000E+04 -1.510E-01



1
              HEAD IN LAYER   1 AT END OF TIME STEP   1 IN STRESS PERIOD   12
  ---------------------------------------------------------------------------

          1      2      3      4      5      6      7      8      9     10
         11     12     13     14     15     16     17     18     19     20
         21     22     23     24     25     26     27     28     29     30
 .........................................................................
   1  ****** ****** ****** ****** ****** ****** ****** ****** ****** ******
      ****** ****** ****** ****** ****** ****** ****** ****** ****** ******
      ****** ****** ****** ****** ****** ****** ****** ****** ****** ******
   2  ****** ****** ****** ****** ****** ****** ****** ****** ****** ******
      ****** ****** ****** ****** ****** ****** ****** ****** ****** ******
      ****** ****** ****** ****** ****** ****** ****** ****** ****** ******
   3  ****** ****** ****** ****** ****** ****** ****** ****** ****** ******
      ****** ****** ****** ****** ****** ****** ****** ****** ****** ******
      ****** ****** ****** ****** ****** ****** ****** ****** ****** ******
   4  ****** ****** ****** ****** ****** ****** ****** ****** ****** ******
      ****** ****** ****** ****** ****** ****** ****** ****** ****** ******
      ****** ****** ****** ****** ****** ****** ****** ****** ****** ******
   5  ****** ****** ****** ****** ****** ****** ****** ****** ****** ******
      ****** ****** ****** ****** ****** ****** ****** ****** ****** ******
      ****** ****** ****** ****** ****** ****** ****** ****** ****** ******
   6  ****** ****** ****** ****** ****** ****** ****** ****** ****** ******
      ****** ****** ****** ****** ****** ****** ****** ****** ****** ******
      ****** ****** ****** ****** ****** ****** ****** ****** ****** ******
   7  ****** ****** ****** ****** ****** ****** ****** ****** ****** ******
      ****** ****** ****** ****** ****** ****** ****** ****** ****** ******
      ****** ****** ****** ****** ****** ****** ****** ****** ****** ******
   8  ****** ****** ****** ****** ****** ****** ****** ****** ****** ******
      ****** ****** ****** ****** ****** ****** ****** ****** ****** ******
      ****** ****** ****** ****** ****** ****** ****** ****** ****** ******
   9  ****** ****** ****** ****** ****** ****** ****** ****** ****** ******
      ****** ****** ****** ****** ****** ****** ****** ****** ****** ******
      ****** ****** ****** ****** ****** ****** ****** ****** ****** ******
  10  ****** ****** ****** ****** ****** ****** ****** ****** ****** ******
      ****** ****** ****** ****** ****** ****** ****** ****** ****** ******
      ****** ****** ****** ****** ****** ****** ****** ****** ****** ******
  11  ****** ****** ****** ****** ****** ****** ****** ****** ****** ******
      ****** ****** ****** ****** ****** ****** ****** ****** ****** ******
      ****** ****** ****** ****** ****** ****** ****** ****** ****** ******
  12  ****** ****** ****** ****** ****** ****** ****** ****** ****** ******
      ****** ****** ****** ****** ****** ****** ****** ****** ****** ******
      ****** ****** ****** ****** ****** ****** ****** ****** ****** ******
  13  ****** ****** ****** ****** ****** ****** ****** ****** ****** ******
      ****** ****** ****** ****** ****** ****** ****** ****** ****** ******
      ****** ****** ****** ****** ****** ****** ****** ****** ****** ******
  14  ****** ****** ****** ****** ****** ****** ****** ****** ****** ******
      ****** ****** ****** ****** ****** ****** ****** ****** ****** ******
      ****** ****** ****** ****** ****** ****** ****** ****** ****** ******
  15  ****** ****** ****** ****** ****** ****** ****** ****** ****** ******
      ****** ****** ****** ****** ****** ****** ****** ****** ****** ******
      ****** ****** ****** ****** ****** ****** ****** ****** ****** ******
  16  ****** ****** ****** ****** ****** ****** ****** ****** ****** ******
      ****** ****** ****** ****** ****** ****** ****** ****** ****** ******
      ****** ****** ****** ****** ****** ****** ****** ****** ****** ******
  17  ****** ****** ****** ****** ****** ****** ****** ****** ****** ******
      ****** ****** ****** ****** ****** ****** ****** ****** ****** ******
      ****** ****** ****** ****** ****** ****** ****** ****** ****** ******
  18  ****** ****** ****** ****** ****** ****** ****** ****** ****** ******
      ****** ****** ****** ****** ****** ****** ****** ****** ****** ******
      ****** ****** ****** ****** ****** ****** ****** ****** ****** ******
  19  ****** ****** ****** ****** ****** ****** ****** ****** ****** ******
      ****** ****** ****** ****** ****** ****** ****** ****** ****** ******
      ****** ****** ****** ****** ****** ****** ****** ****** ****** ******
  20  ****** ****** ****** ****** ****** ****** ****** ****** ****** ******
      ****** ****** ****** ****** ****** ****** ****** ****** ****** ******
      ****** ****** ****** ****** ****** ****** ****** ****** ****** ******
  21  ****** ****** ****** ****** ****** ****** ****** ****** ****** ******
      ****** ****** ****** ****** ****** ****** ****** ****** ****** ******
      ****** ****** ****** ****** ****** ****** ****** ****** ****** ******
  22  ****** ****** ****** ****** ****** ****** ****** ****** ****** ******
      ****** ****** ****** ****** ****** ****** ****** ****** ****** ******
      ****** ****** ****** ****** ****** ****** ****** ****** ****** ******
  23  ****** ****** ****** ****** ****** ****** ****** ****** ****** ******
      ****** ****** ****** ****** ****** ****** ****** ****** ****** ******
      ****** ****** ****** ****** ****** ****** ****** ****** ****** ******
  24  ****** ****** ****** ****** ****** ****** ****** ****** ****** ******
      ****** ****** ****** ****** ****** ****** ****** ****** ****** ******
      ****** ****** ****** ****** ****** ****** ****** ****** ****** ******
  25  ****** ****** ****** ****** ****** ****** ****** ****** ****** ******
      ****** ****** ****** ****** ****** ****** ****** ****** ****** ******
      ****** ****** ****** ****** ****** ****** ****** ****** ****** ******

 HEAD WILL BE SAVED ON UNIT   51 AT END OF TIME STEP    1, STRESS PERIOD   12
1
  VOLUMETRIC BUDGET FOR ENTIRE MODEL AT END OF TIME STEP    1, STRESS PERIOD  12
  ------------------------------------------------------------------------------

     CUMULATIVE VOLUMES      L**3       RATES FOR THIS TIME STEP      L**3/T
     ------------------                 ------------------------

           IN:                                      IN:
           ---                                      ---
             STORAGE =    34865079.5725               STORAGE =           8.3768
       CONSTANT HEAD =    29982951.4429         CONSTANT HEAD =       32288.6789
               WELLS =           0.0000                 WELLS =           0.0000
            RECHARGE =    26413200.0000              RECHARGE =       27600.0000
      STREAM LEAKAGE =    12957867.8908        STREAM LEAKAGE =       13385.1180

            TOTAL IN =   104219098.9062              TOTAL IN =       73282.1737

          OUT:                                     OUT:
          ----                                     ----
             STORAGE =     2676817.0400               STORAGE =        3039.6939
       CONSTANT HEAD =           0.0000         CONSTANT HEAD =           0.0000
               WELLS =    33408858.7355                 WELLS =       30510.3733
            RECHARGE =           0.0000              RECHARGE =           0.0000
      STREAM LEAKAGE =    68133424.9117        STREAM LEAKAGE =       39732.1055

           TOTAL OUT =   104219100.6872             TOTAL OUT =       73282.1727

            IN - OUT =          -1.7810              IN - OUT =       9.4455E-04

 PERCENT DISCREPANCY =          -0.00     PERCENT DISCREPANCY =           0.00






         TIME SUMMARY AT END OF TIME STEP    1 IN STRESS PERIOD   12
                    SECONDS     MINUTES      HOURS       DAYS        YEARS
                    -----------------------------------------------------------
   TIME STEP LENGTH 7.86240E+06 1.31040E+05  2184.0      91.000     0.24914    
 STRESS PERIOD TIME 7.86240E+06 1.31040E+05  2184.0      91.000     0.24914    
         TOTAL TIME 9.46080E+07 1.57680E+06  26280.      1095.0      2.9979    
1

 Run end date and time (yyyy/mm/dd hh:mm:ss): 2019/02/10 15:45:21
 Elapsed run time:  0.090 Seconds

