                                  MODFLOW-2005     
      U.S. GEOLOGICAL SURVEY MODULAR FINITE-DIFFERENCE GROUND-WATER FLOW MODEL
                            VERSION 1.11.00 8/8/2013

 LIST FILE: supply2.lst
                         UNIT   10

 OPENING ..\data\supply.dis
 FILE TYPE:DIS   UNIT   11   STATUS:OLD    
 FORMAT:FORMATTED              ACCESS:SEQUENTIAL          

 OPENING ..\data\supply.ba6
 FILE TYPE:BAS6   UNIT   12   STATUS:OLD    
 FORMAT:FORMATTED              ACCESS:SEQUENTIAL          

 OPENING ..\data\supply_het.bc6
 FILE TYPE:BCF6   UNIT   13   STATUS:OLD    
 FORMAT:FORMATTED              ACCESS:SEQUENTIAL          

 OPENING ..\data\supply.rch
 FILE TYPE:RCH   UNIT   15   STATUS:OLD    
 FORMAT:FORMATTED              ACCESS:SEQUENTIAL          

 OPENING ..\data\supply2.sfr
 FILE TYPE:SFR   UNIT   16   STATUS:OLD    
 FORMAT:FORMATTED              ACCESS:SEQUENTIAL          

 OPENING ..\data\supply.oc
 FILE TYPE:OC   UNIT   17   STATUS:OLD    
 FORMAT:FORMATTED              ACCESS:SEQUENTIAL          

 OPENING ..\data\supply.pcg
 FILE TYPE:PCG   UNIT   18   STATUS:OLD    
 FORMAT:FORMATTED              ACCESS:SEQUENTIAL          

 OPENING supply2.wel
 FILE TYPE:WEL   UNIT   19   STATUS:OLD    
 FORMAT:FORMATTED              ACCESS:SEQUENTIAL          

 OPENING supply2sf.cbc
 FILE TYPE:DATA(BINARY)   UNIT   50   STATUS:UNKNOWN
 FORMAT:BINARY                 ACCESS:SEQUENTIAL          

 OPENING supply2hd.bhd
 FILE TYPE:DATA(BINARY)   UNIT   51   STATUS:UNKNOWN
 FORMAT:BINARY                 ACCESS:SEQUENTIAL          

 BAS -- BASIC PACKAGE, VERSION 7, 5/2/2005 INPUT READ FROM UNIT   12
 
 MODFLOW was compiled using uniform precision
 Precision of REAL and DOUBLE PRECISION variables:          15

 DISCRETIZATION INPUT DATA READ FROM UNIT   11
    1 LAYERS        25 ROWS        30 COLUMNS
   12 STRESS PERIOD(S) IN SIMULATION
 MODEL TIME UNIT IS DAYS
 MODEL LENGTH UNIT IS UNDEFINED
  Confining bed flag for each layer:
   0

                     DELR =   200.000    

                     DELC =   200.000    

 TOP ELEVATION OF LAYER 1 =  100.0000    

   MODEL LAYER BOTTOM EL. =   0.00000     FOR LAYER   1


 STRESS PERIOD     LENGTH       TIME STEPS     MULTIPLIER FOR DELT    SS FLAG
 ----------------------------------------------------------------------------
        1         92.00000          1                    1.500         TR
        2         91.00000          1                    1.500         TR
        3         91.00000          1                    1.500         TR
        4         91.00000          1                    1.500         TR
        5         92.00000          1                    1.500         TR
        6         91.00000          1                    1.500         TR
        7         91.00000          1                    1.500         TR
        8         91.00000          1                    1.500         TR
        9         92.00000          1                    1.500         TR
       10         91.00000          1                    1.500         TR
       11         91.00000          1                    1.500         TR
       12         91.00000          1                    1.500         TR

 TRANSIENT SIMULATION



 
 #MODOFC transient water supply sample problem                                   
 #                                                                               
 THE FREE FORMAT OPTION HAS BEEN SELECTED



                     BOUNDARY ARRAY FOR LAYER   1
 READING ON UNIT   12 WITH FORMAT: (20I4)              

 AQUIFER HEAD WILL BE SET TO   0.0000     AT ALL NO-FLOW NODES (IBOUND=0).



                       INITIAL HEAD FOR LAYER   1
 READING ON UNIT   12 WITH FORMAT: (10F13.0)           

 OUTPUT CONTROL IS SPECIFIED ONLY AT TIME STEPS FOR WHICH OUTPUT IS DESIRED
 COMPACT CELL-BY-CELL BUDGET FILES WILL BE WRITTEN
 HEAD PRINT FORMAT CODE IS  18    DRAWDOWN PRINT FORMAT CODE IS   0
 HEADS WILL BE SAVED ON UNIT   51    DRAWDOWNS WILL BE SAVED ON UNIT    0

 BCF -- BLOCK-CENTERED FLOW PACKAGE, VERSION 7, 5/2/2005
         INPUT READ FROM UNIT 13
 TRANSIENT SIMULATION
 HEAD AT CELLS THAT CONVERT TO DRY=   0.0000    
 WETTING CAPABILITY IS NOT ACTIVE
      LAYER  LAYER-TYPE CODE     INTERBLOCK T
      --------------------------------------------
         1            0          0 -- HARMONIC    

 COLUMN TO ROW ANISOTROPY =  1.000000    

     PRIMARY STORAGE COEF =  5.000000E-02 FOR LAYER   1



               TRANSMIS. ALONG ROWS FOR LAYER   1
 READING ON UNIT   13 WITH FORMAT: (FREE)              

 WEL -- WELL PACKAGE, VERSION 7, 5/2/2005 INPUT READ FROM UNIT   19
 # Well package input file written by MMProc
 No named parameters
 MAXIMUM OF      4 ACTIVE WELLS AT ONE TIME


     0 Well parameters

 RCH -- RECHARGE PACKAGE, VERSION 7, 5/2/2005 INPUT READ FROM UNIT   15
 No named parameters
 OPTION 1 -- RECHARGE TO TOP LAYER


     0 Recharge parameters

 SFR7 -- STREAMFLOW ROUTING PACKAGE, VERSION 1.0.7, 2013-01-15
         INPUT READ FROM UNIT  16
 #  Supply2 test problem for GWM-VI
 #  The eighth entry in the first data line is ISTCB2 -
 #    Setting this to a negative number indicates that
 #    streamflows out of the reach will be saved to a
 #    binary file.  The absolute value of ISTCB2 is the
 #    unit to which unformatted flows will be written.
 #
 No named parameters
 Segment information will not be 
 read by reach
 No named parameters
 No specifed inflow files


 NUMBER OF STREAM REACHES IS   40

 NUMBER OF STREAM SEGMENTS IS    3

 NUMBER OF STREAM PARAMETERS IS    0

 NUMBER OF STREAM SEGMENTS DEFINED USING PARAMETERS IS              0

 MAXIMUM ERROR FOR STREAM LEAKAGE RATES IS  1.00E-04

 CONSTANT FOR MANNINGS EQUATION IS  1.2839E+05





   STREAM NETWORK DESCRIPTION: 

   LAYER    ROW    COL   SEGMENT   REACH     LENGTH
                          NUMBER   NUMBER    IN CELL        
   --------------------------------------------------
      1     13      1       1        1    2.0000E+02
      1     13      2       1        2    2.0000E+02
      1     14      3       1        3    2.0000E+02
      1     15      4       1        4    2.0000E+02
      1     16      5       1        5    2.0000E+02
      1     16      6       1        6    2.0000E+02
      1     16      7       1        7    2.0000E+02
      1     16      8       1        8    2.0000E+02
      1     16      9       1        9    2.0000E+02
      1     16     10       1       10    2.0000E+02
      1     16     11       1       11    2.0000E+02
      1     16     12       1       12    2.0000E+02
      1     15     13       1       13    2.0000E+02
      1     14     14       1       14    2.0000E+02
      1     13     15       1       15    2.0000E+02
      1     12     16       1       16    2.0000E+02
      1     12     17       1       17    2.0000E+02
      1     12     18       1       18    2.0000E+02
      1     12     19       1       19    2.0000E+02
      1     13     20       1       20    2.0000E+02
      1     14     21       1       21    2.0000E+02
      1     14     22       1       22    2.0000E+02
      1      9     30       2        1    2.0000E+02
      1      9     29       2        2    2.0000E+02
      1      9     28       2        3    2.0000E+02
      1      9     27       2        4    2.0000E+02
      1     10     26       2        5    2.0000E+02
      1     11     25       2        6    2.0000E+02
      1     12     24       2        7    2.0000E+02
      1     13     23       2        8    2.0000E+02
      1     14     22       2        9    2.0000E+02
      1     14     22       3        1    2.0000E+02
      1     15     23       3        2    2.0000E+02
      1     15     24       3        3    2.0000E+02
      1     15     25       3        4    2.0000E+02
      1     15     26       3        5    2.0000E+02
      1     16     27       3        6    2.0000E+02
      1     17     28       3        7    2.0000E+02
      1     18     29       3        8    2.0000E+02
      1     18     30       3        9    2.0000E+02




 PCG -- CONJUGATE-GRADIENT SOLUTION PACKAGE, VERSION 7, 5/2/2005
 MAXIMUM OF    500 CALLS OF SOLUTION ROUTINE
 MAXIMUM OF      5 INTERNAL ITERATIONS PER CALL TO SOLUTION ROUTINE
 MATRIX PRECONDITIONING TYPE :    1



                                    SOLUTION BY THE CONJUGATE-GRADIENT METHOD
                                   -------------------------------------------
                    MAXIMUM NUMBER OF CALLS TO PCG ROUTINE =      500
                        MAXIMUM ITERATIONS PER CALL TO PCG =        5
                               MATRIX PRECONDITIONING TYPE =        1
        RELAXATION FACTOR (ONLY USED WITH PRECOND. TYPE 1) =    0.10000E+01
 PARAMETER OF POLYNOMIAL PRECOND. = 2 (2) OR IS CALCULATED :        0
                         HEAD CHANGE CRITERION FOR CLOSURE =    0.10000E-05
                     RESIDUAL CHANGE CRITERION FOR CLOSURE =    0.10000E+01
            PCG HEAD AND RESIDUAL CHANGE PRINTOUT INTERVAL =        1
     PRINTING FROM SOLVER IS LIMITED(1) OR SUPPRESSED (>1) =        1
                            STEADY-STATE DAMPING PARAMETER =    0.10000E+01
                               TRANSIENT DAMPING PARAMETER =    0.10000E+01
1
                            STRESS PERIOD NO.    1, LENGTH =   92.00000    
                            -----------------------------------------------

                              NUMBER OF TIME STEPS =     1

                               MULTIPLIER FOR DELT =     1.500

                            INITIAL TIME STEP SIZE =   92.00000    

 WELL NO.  LAYER   ROW   COL   STRESS RATE         
 --------------------------------------------------
      1      1      8     21      -8122.    
      2      1      4     14      -6617.    
      3      1     10     23     -0.1245E+05
      4      1     14     17     -0.1185E+05

      4 WELLS

                 RECHARGE =  5.000000E-04



 CLASSIFICATION & COUNT OF STREAM SEGMENTS BASED ON SOURCE OF INFLOW:

                HEADWATER     DIVERSION     RECEIVES TRIBUTARY FLOW
                ---------     ---------     -----------------------
                     2              0               1



                    INPUT DATA FOR EACH STREAM SEGMENT
 ---------------------------------------------------------------------------------------------

 SEGMENT    SEG.     INFLOW   OVERLAND   STREAM    STREAM   ICALC  OUTFLOW  DIVERSION PRIORITY
    NO.    LENGTH     RATE     RUNOFF      ET       PPT.    METH.  TO SEG.  FROM SEG.    NO.

      1  4.400E+03 1.000E+05 0.000E+00 0.000E+00 0.000E+00    1        3        0        0
      2  1.800E+03 5.000E+04 0.000E+00 0.000E+00 0.000E+00    1        3        0        0
      3  1.800E+03 0.000E+00 0.000E+00 0.000E+00 0.000E+00    1        0        0        0


         STREAMBED PROPERTIES AND STREAM DIMENSIONS

 SEGMENT     BED HYD. COND.      BED THICKNESS     ELEV.-TOP OF BED     WIDTH OF STREAM     DEPTH OF STREAM    STREAM ROUGHNESS
    No.     UPPER     LOWER     UPPER     LOWER     UPPER     LOWER     UPPER     LOWER     UPPER     LOWER   CHANNEL      BANK

     1  5.000E+00 5.000E+00 1.000E+00 1.000E+00 4.850E+01 3.800E+01 2.000E+01 2.000E+01                     5.000E-02
     2  5.000E+00 5.000E+00 1.000E+00 1.000E+00 4.025E+01 3.800E+01 2.000E+01 2.000E+01                     5.000E-02
     3  5.000E+00 5.000E+00 1.000E+00 1.000E+00 3.800E+01 3.000E+01 2.000E+01 2.000E+01                     5.000E-02



 
 SOLVING FOR HEAD 


     9 CALLS TO PCG ROUTINE FOR TIME STEP   1 IN STRESS PERIOD    1
    36 TOTAL ITERATIONS

 OUTPUT CONTROL FOR STRESS PERIOD    1   TIME STEP    1
    SAVE BUDGET
    SAVE HEAD FOR ALL LAYERS
    PRINT HEAD FOR ALL LAYERS
 UBDSV2 SAVING "STREAMFLOW OUT  " ON UNIT  50 AT TIME STEP  1, STRESS PERIOD   1



 STREAM LISTING     PERIOD      1   STEP        1

 LAYER ROW COL. STREAM  RCH.  FLOW INTO     FLOW TO   FLOW OUT OF   OVRLND.     DIRECT     STREAM       STREAM     STREAM     STREAM   STREAMBED  STREAMBED
                SEG.NO.  NO.  STRM. RCH.    AQUIFER    STRM. RCH.    RUNOFF     PRECIP       ET          HEAD       DEPTH      WIDTH   CONDCTNC.   GRADIENT

   1   13    1     1     1    1.0000E+05 -6.1046E+03   1.0610E+05  0.000E+00  0.000E+00  0.000E+00  4.84086E+01  1.473E-01  2.000E+01  2.000E+04 -3.052E-01
   1   13    2     1     2    1.0610E+05 -7.5735E+03   1.1368E+05  0.000E+00  0.000E+00  0.000E+00  4.79372E+01  1.531E-01  2.000E+01  2.000E+04 -3.787E-01
   1   14    3     1     3    1.1368E+05 -2.1979E+03   1.1588E+05  0.000E+00  0.000E+00  0.000E+00  4.74639E+01  1.571E-01  2.000E+01  2.000E+04 -1.099E-01
   1   15    4     1     4    1.1588E+05 -2.2695E+03   1.1815E+05  0.000E+00  0.000E+00  0.000E+00  4.69885E+01  1.589E-01  2.000E+01  2.000E+04 -1.135E-01
   1   16    5     1     5    1.1815E+05 -7.1804E+03   1.2533E+05  0.000E+00  0.000E+00  0.000E+00  4.65150E+01  1.628E-01  2.000E+01  2.000E+04 -3.590E-01
   1   16    6     1     6    1.2533E+05 -4.2992E+03   1.2963E+05  0.000E+00  0.000E+00  0.000E+00  4.60423E+01  1.673E-01  2.000E+01  2.000E+04 -2.150E-01
   1   16    7     1     7    1.2963E+05 -4.1322E+03   1.3376E+05  0.000E+00  0.000E+00  0.000E+00  4.55684E+01  1.706E-01  2.000E+01  2.000E+04 -2.066E-01
   1   16    8     1     8    1.3376E+05 -4.0882E+03   1.3785E+05  0.000E+00  0.000E+00  0.000E+00  4.50943E+01  1.738E-01  2.000E+01  2.000E+04 -2.044E-01
   1   16    9     1     9    1.3785E+05 -4.0721E+03   1.4192E+05  0.000E+00  0.000E+00  0.000E+00  4.46201E+01  1.769E-01  2.000E+01  2.000E+04 -2.036E-01
   1   16   10     1    10    1.4192E+05 -4.0597E+03   1.4598E+05  0.000E+00  0.000E+00  0.000E+00  4.41459E+01  1.800E-01  2.000E+01  2.000E+04 -2.030E-01
   1   16   11     1    11    1.4598E+05 -4.0732E+03   1.5005E+05  0.000E+00  0.000E+00  0.000E+00  4.36717E+01  1.830E-01  2.000E+01  2.000E+04 -2.037E-01
   1   16   12     1    12    1.5005E+05 -6.7807E+03   1.5683E+05  0.000E+00  0.000E+00  0.000E+00  4.31984E+01  1.870E-01  2.000E+01  2.000E+04 -3.390E-01
   1   15   13     1    13    1.5683E+05 -6.8569E+03   1.6369E+05  0.000E+00  0.000E+00  0.000E+00  4.27261E+01  1.920E-01  2.000E+01  2.000E+04 -3.428E-01
   1   14   14     1    14    1.6369E+05 -6.7645E+03   1.7045E+05  0.000E+00  0.000E+00  0.000E+00  4.22536E+01  1.968E-01  2.000E+01  2.000E+04 -3.382E-01
   1   13   15     1    15    1.7045E+05 -6.4179E+03   1.7687E+05  0.000E+00  0.000E+00  0.000E+00  4.17810E+01  2.014E-01  2.000E+01  2.000E+04 -3.209E-01
   1   12   16     1    16    1.7687E+05 -7.4306E+03   1.8430E+05  0.000E+00  0.000E+00  0.000E+00  4.13085E+01  2.062E-01  2.000E+01  2.000E+04 -3.715E-01
   1   12   17     1    17    1.8430E+05 -4.2279E+03   1.8853E+05  0.000E+00  0.000E+00  0.000E+00  4.08352E+01  2.102E-01  2.000E+01  2.000E+04 -2.114E-01
   1   12   18     1    18    1.8853E+05 -4.5211E+03   1.9305E+05  0.000E+00  0.000E+00  0.000E+00  4.03609E+01  2.131E-01  2.000E+01  2.000E+04 -2.261E-01
   1   12   19     1    19    1.9305E+05 -5.9136E+03   1.9896E+05  0.000E+00  0.000E+00  0.000E+00  3.98871E+01  2.166E-01  2.000E+01  2.000E+04 -2.957E-01
   1   13   20     1    20    1.9896E+05 -5.0909E+03   2.0405E+05  0.000E+00  0.000E+00  0.000E+00  3.94134E+01  2.202E-01  2.000E+01  2.000E+04 -2.545E-01
   1   14   21     1    21    2.0405E+05 -5.4715E+03   2.0953E+05  0.000E+00  0.000E+00  0.000E+00  3.89396E+01  2.237E-01  2.000E+01  2.000E+04 -2.736E-01
   1   14   22     1    22    2.0953E+05  3.8825E+03   2.0564E+05  0.000E+00  0.000E+00  0.000E+00  3.84628E+01  2.242E-01  2.000E+01  2.000E+04  1.941E-01
   1    9   30     2     1    5.0000E+04 -4.7282E+03   5.4728E+04  0.000E+00  0.000E+00  0.000E+00  4.02441E+01  1.191E-01  2.000E+01  2.000E+04 -2.364E-01
   1    9   29     2     2    5.4728E+04 -4.9943E+03   5.9722E+04  0.000E+00  0.000E+00  0.000E+00  4.00006E+01  1.256E-01  2.000E+01  2.000E+04 -2.497E-01
   1    9   28     2     3    5.9722E+04 -5.1949E+03   6.4917E+04  0.000E+00  0.000E+00  0.000E+00  3.97572E+01  1.322E-01  2.000E+01  2.000E+04 -2.597E-01
   1    9   27     2     4    6.4917E+04 -7.4220E+03   7.2339E+04  0.000E+00  0.000E+00  0.000E+00  3.95151E+01  1.401E-01  2.000E+01  2.000E+04 -3.711E-01
   1   10   26     2     5    7.2339E+04 -5.8323E+03   7.8172E+04  0.000E+00  0.000E+00  0.000E+00  3.92731E+01  1.481E-01  2.000E+01  2.000E+04 -2.916E-01
   1   11   25     2     6    7.8172E+04 -4.4633E+03   8.2635E+04  0.000E+00  0.000E+00  0.000E+00  3.90291E+01  1.541E-01  2.000E+01  2.000E+04 -2.232E-01
   1   12   24     2     7    8.2635E+04 -3.7299E+03   8.6365E+04  0.000E+00  0.000E+00  0.000E+00  3.87837E+01  1.587E-01  2.000E+01  2.000E+04 -1.865E-01
   1   13   23     2     8    8.6365E+04 -1.3223E+03   8.7687E+04  0.000E+00  0.000E+00  0.000E+00  3.85366E+01  1.616E-01  2.000E+01  2.000E+04 -6.611E-02
   1   14   22     2     9    8.7687E+04  3.6776E+02   8.7319E+04  0.000E+00  0.000E+00  0.000E+00  3.82871E+01  1.621E-01  2.000E+01  2.000E+04  1.839E-02
   1   14   22     3     1    2.9296E+05 -9.6428E+03   3.0261E+05  0.000E+00  0.000E+00  0.000E+00  3.77866E+01  2.310E-01  2.000E+01  2.000E+04 -4.821E-01
   1   15   23     3     2    3.0261E+05 -1.9471E+03   3.0455E+05  0.000E+00  0.000E+00  0.000E+00  3.69004E+01  2.337E-01  2.000E+01  2.000E+04 -9.735E-02
   1   15   24     3     3    3.0455E+05 -1.5241E+03   3.0608E+05  0.000E+00  0.000E+00  0.000E+00  3.60123E+01  2.345E-01  2.000E+01  2.000E+04 -7.621E-02
   1   15   25     3     4    3.0608E+05 -1.5767E+03   3.0765E+05  0.000E+00  0.000E+00  0.000E+00  3.51241E+01  2.352E-01  2.000E+01  2.000E+04 -7.883E-02
   1   15   26     3     5    3.0765E+05 -1.8813E+03   3.0953E+05  0.000E+00  0.000E+00  0.000E+00  3.42360E+01  2.360E-01  2.000E+01  2.000E+04 -9.407E-02
   1   16   27     3     6    3.0953E+05 -2.1630E+03   3.1170E+05  0.000E+00  0.000E+00  0.000E+00  3.33480E+01  2.369E-01  2.000E+01  2.000E+04 -1.082E-01
   1   17   28     3     7    3.1170E+05 -6.5736E+03   3.1827E+05  0.000E+00  0.000E+00  0.000E+00  3.24612E+01  2.389E-01  2.000E+01  2.000E+04 -3.287E-01
   1   18   29     3     8    3.1827E+05 -7.9825E+03   3.2625E+05  0.000E+00  0.000E+00  0.000E+00  3.15756E+01  2.422E-01  2.000E+01  2.000E+04 -3.991E-01
   1   18   30     3     9    3.2625E+05 -7.1677E+03   3.3342E+05  0.000E+00  0.000E+00  0.000E+00  3.06901E+01  2.456E-01  2.000E+01  2.000E+04 -3.584E-01



1
              HEAD IN LAYER   1 AT END OF TIME STEP   1 IN STRESS PERIOD    1
  ---------------------------------------------------------------------------

          1      2      3      4      5      6      7      8      9     10
         11     12     13     14     15     16     17     18     19     20
         21     22     23     24     25     26     27     28     29     30
 .........................................................................
   1  ****** ****** ****** ****** ****** ****** ****** ****** ****** ******
      ****** ****** ****** ****** ****** ****** ****** ****** ****** ******
      ****** ****** ****** ****** ****** ****** ****** ****** ****** ******
   2  ****** ****** ****** ****** ****** ****** ****** ****** ****** ******
      ****** ****** ****** ****** ****** ****** ****** ****** ****** ******
      ****** ****** ****** ****** ****** ****** ****** ****** ****** ******
   3  ****** ****** ****** ****** ****** ****** ****** ****** ****** ******
      ****** ****** ****** ****** ****** ****** ****** ****** ****** ******
      ****** ****** ****** ****** ****** ****** ****** ****** ****** ******
   4  ****** ****** ****** ****** ****** ****** ****** ****** ****** ******
      ****** ****** ****** ****** ****** ****** ****** ****** ****** ******
      ****** ****** ****** ****** ****** ****** ****** ****** ****** ******
   5  ****** ****** ****** ****** ****** ****** ****** ****** ****** ******
      ****** ****** ****** ****** ****** ****** ****** ****** ****** ******
      ****** ****** ****** ****** ****** ****** ****** ****** ****** ******
   6  ****** ****** ****** ****** ****** ****** ****** ****** ****** ******
      ****** ****** ****** ****** ****** ****** ****** ****** ****** ******
      ****** ****** ****** ****** ****** ****** ****** ****** ****** ******
   7  ****** ****** ****** ****** ****** ****** ****** ****** ****** ******
      ****** ****** ****** ****** ****** ****** ****** ****** ****** ******
      ****** ****** ****** ****** ****** ****** ****** ****** ****** ******
   8  ****** ****** ****** ****** ****** ****** ****** ****** ****** ******
      ****** ****** ****** ****** ****** ****** ****** ****** ****** ******
      ****** ****** ****** ****** ****** ****** ****** ****** ****** ******
   9  ****** ****** ****** ****** ****** ****** ****** ****** ****** ******
      ****** ****** ****** ****** ****** ****** ****** ****** ****** ******
      ****** ****** ****** ****** ****** ****** ****** ****** ****** ******
  10  ****** ****** ****** ****** ****** ****** ****** ****** ****** ******
      ****** ****** ****** ****** ****** ****** ****** ****** ****** ******
      ****** ****** ****** ****** ****** ****** ****** ****** ****** ******
  11  ****** ****** ****** ****** ****** ****** ****** ****** ****** ******
      ****** ****** ****** ****** ****** ****** ****** ****** ****** ******
      ****** ****** ****** ****** ****** ****** ****** ****** ****** ******
  12  ****** ****** ****** ****** ****** ****** ****** ****** ****** ******
      ****** ****** ****** ****** ****** ****** ****** ****** ****** ******
      ****** ****** ****** ****** ****** ****** ****** ****** ****** ******
  13  ****** ****** ****** ****** ****** ****** ****** ****** ****** ******
      ****** ****** ****** ****** ****** ****** ****** ****** ****** ******
      ****** ****** ****** ****** ****** ****** ****** ****** ****** ******
  14  ****** ****** ****** ****** ****** ****** ****** ****** ****** ******
      ****** ****** ****** ****** ****** ****** ****** ****** ****** ******
      ****** ****** ****** ****** ****** ****** ****** ****** ****** ******
  15  ****** ****** ****** ****** ****** ****** ****** ****** ****** ******
      ****** ****** ****** ****** ****** ****** ****** ****** ****** ******
      ****** ****** ****** ****** ****** ****** ****** ****** ****** ******
  16  ****** ****** ****** ****** ****** ****** ****** ****** ****** ******
      ****** ****** ****** ****** ****** ****** ****** ****** ****** ******
      ****** ****** ****** ****** ****** ****** ****** ****** ****** ******
  17  ****** ****** ****** ****** ****** ****** ****** ****** ****** ******
      ****** ****** ****** ****** ****** ****** ****** ****** ****** ******
      ****** ****** ****** ****** ****** ****** ****** ****** ****** ******
  18  ****** ****** ****** ****** ****** ****** ****** ****** ****** ******
      ****** ****** ****** ****** ****** ****** ****** ****** ****** ******
      ****** ****** ****** ****** ****** ****** ****** ****** ****** ******
  19  ****** ****** ****** ****** ****** ****** ****** ****** ****** ******
      ****** ****** ****** ****** ****** ****** ****** ****** ****** ******
      ****** ****** ****** ****** ****** ****** ****** ****** ****** ******
  20  ****** ****** ****** ****** ****** ****** ****** ****** ****** ******
      ****** ****** ****** ****** ****** ****** ****** ****** ****** ******
      ****** ****** ****** ****** ****** ****** ****** ****** ****** ******
  21  ****** ****** ****** ****** ****** ****** ****** ****** ****** ******
      ****** ****** ****** ****** ****** ****** ****** ****** ****** ******
      ****** ****** ****** ****** ****** ****** ****** ****** ****** ******
  22  ****** ****** ****** ****** ****** ****** ****** ****** ****** ******
      ****** ****** ****** ****** ****** ****** ****** ****** ****** ******
      ****** ****** ****** ****** ****** ****** ****** ****** ****** ******
  23  ****** ****** ****** ****** ****** ****** ****** ****** ****** ******
      ****** ****** ****** ****** ****** ****** ****** ****** ****** ******
      ****** ****** ****** ****** ****** ****** ****** ****** ****** ******
  24  ****** ****** ****** ****** ****** ****** ****** ****** ****** ******
      ****** ****** ****** ****** ****** ****** ****** ****** ****** ******
      ****** ****** ****** ****** ****** ****** ****** ****** ****** ******
  25  ****** ****** ****** ****** ****** ****** ****** ****** ****** ******
      ****** ****** ****** ****** ****** ****** ****** ****** ****** ******
      ****** ****** ****** ****** ****** ****** ****** ****** ****** ******

 HEAD WILL BE SAVED ON UNIT   51 AT END OF TIME STEP    1, STRESS PERIOD    1
1
  VOLUMETRIC BUDGET FOR ENTIRE MODEL AT END OF TIME STEP    1, STRESS PERIOD   1
  ------------------------------------------------------------------------------

     CUMULATIVE VOLUMES      L**3       RATES FOR THIS TIME STEP      L**3/T
     ------------------                 ------------------------

           IN:                                      IN:
           ---                                      ---
             STORAGE =    18013802.6594               STORAGE =      195802.2028
       CONSTANT HEAD =     1183277.8779         CONSTANT HEAD =       12861.7161
               WELLS =           0.0000                 WELLS =           0.0000
            RECHARGE =     1269600.0000              RECHARGE =       13800.0000
      STREAM LEAKAGE =      391026.0911        STREAM LEAKAGE =        4250.2836

            TOTAL IN =    20857706.6285              TOTAL IN =      226714.2025

          OUT:                                     OUT:
          ----                                     ----
             STORAGE =           0.0000               STORAGE =           0.0000
       CONSTANT HEAD =           0.0000         CONSTANT HEAD =           0.0000
               WELLS =     3591869.4998                 WELLS =       39042.0598
            RECHARGE =           0.0000              RECHARGE =           0.0000
      STREAM LEAKAGE =    17265837.4296        STREAM LEAKAGE =      187672.1460

           TOTAL OUT =    20857706.9295             TOTAL OUT =      226714.2058

            IN - OUT =          -0.3010              IN - OUT =      -3.2716E-03

 PERCENT DISCREPANCY =          -0.00     PERCENT DISCREPANCY =          -0.00






         TIME SUMMARY AT END OF TIME STEP    1 IN STRESS PERIOD    1
                    SECONDS     MINUTES      HOURS       DAYS        YEARS
                    -----------------------------------------------------------
   TIME STEP LENGTH 7.94880E+06 1.32480E+05  2208.0      92.000     0.25188    
 STRESS PERIOD TIME 7.94880E+06 1.32480E+05  2208.0      92.000     0.25188    
         TOTAL TIME 7.94880E+06 1.32480E+05  2208.0      92.000     0.25188    
1
1
                            STRESS PERIOD NO.    2, LENGTH =   91.00000    
                            -----------------------------------------------

                              NUMBER OF TIME STEPS =     1

                               MULTIPLIER FOR DELT =     1.500

                            INITIAL TIME STEP SIZE =   91.00000    

 WELL NO.  LAYER   ROW   COL   STRESS RATE         
 --------------------------------------------------
      1      1      8     21      -8122.    
      2      1      4     14      -6617.    
      3      1     10     23     -0.1245E+05
      4      1     14     17     -0.1185E+05

      4 WELLS

                 RECHARGE =  2.000000E-03

 REUSING STREAM SEGMENT DATA FROM LAST STRESS PERIOD
 
 SOLVING FOR HEAD 


     7 CALLS TO PCG ROUTINE FOR TIME STEP   1 IN STRESS PERIOD    2
    27 TOTAL ITERATIONS

 OUTPUT CONTROL FOR STRESS PERIOD    2   TIME STEP    1
    SAVE BUDGET
    SAVE HEAD FOR ALL LAYERS
    PRINT HEAD FOR ALL LAYERS
 UBDSV2 SAVING "STREAMFLOW OUT  " ON UNIT  50 AT TIME STEP  1, STRESS PERIOD   2



 STREAM LISTING     PERIOD      2   STEP        1

 LAYER ROW COL. STREAM  RCH.  FLOW INTO     FLOW TO   FLOW OUT OF   OVRLND.     DIRECT     STREAM       STREAM     STREAM     STREAM   STREAMBED  STREAMBED
                SEG.NO.  NO.  STRM. RCH.    AQUIFER    STRM. RCH.    RUNOFF     PRECIP       ET          HEAD       DEPTH      WIDTH   CONDCTNC.   GRADIENT

   1   13    1     1     1    1.0000E+05 -3.9596E+03   1.0396E+05  0.000E+00  0.000E+00  0.000E+00  4.84077E+01  1.464E-01  2.000E+01  2.000E+04 -1.980E-01
   1   13    2     1     2    1.0396E+05 -5.2191E+03   1.0918E+05  0.000E+00  0.000E+00  0.000E+00  4.79344E+01  1.503E-01  2.000E+01  2.000E+04 -2.610E-01
   1   14    3     1     3    1.0918E+05 -1.1130E+03   1.1029E+05  0.000E+00  0.000E+00  0.000E+00  4.74598E+01  1.529E-01  2.000E+01  2.000E+04 -5.565E-02
   1   15    4     1     4    1.1029E+05 -1.1417E+03   1.1143E+05  0.000E+00  0.000E+00  0.000E+00  4.69834E+01  1.539E-01  2.000E+01  2.000E+04 -5.709E-02
   1   16    5     1     5    1.1143E+05 -4.2447E+03   1.1568E+05  0.000E+00  0.000E+00  0.000E+00  4.65084E+01  1.561E-01  2.000E+01  2.000E+04 -2.122E-01
   1   16    6     1     6    1.1568E+05 -2.4991E+03   1.1818E+05  0.000E+00  0.000E+00  0.000E+00  4.60339E+01  1.589E-01  2.000E+01  2.000E+04 -1.250E-01
   1   16    7     1     7    1.1818E+05 -2.4016E+03   1.2058E+05  0.000E+00  0.000E+00  0.000E+00  4.55586E+01  1.609E-01  2.000E+01  2.000E+04 -1.201E-01
   1   16    8     1     8    1.2058E+05 -2.3672E+03   1.2295E+05  0.000E+00  0.000E+00  0.000E+00  4.50832E+01  1.628E-01  2.000E+01  2.000E+04 -1.184E-01
   1   16    9     1     9    1.2295E+05 -2.3380E+03   1.2528E+05  0.000E+00  0.000E+00  0.000E+00  4.46079E+01  1.647E-01  2.000E+01  2.000E+04 -1.169E-01
   1   16   10     1    10    1.2528E+05 -2.2991E+03   1.2758E+05  0.000E+00  0.000E+00  0.000E+00  4.41324E+01  1.665E-01  2.000E+01  2.000E+04 -1.150E-01
   1   16   11     1    11    1.2758E+05 -2.2743E+03   1.2986E+05  0.000E+00  0.000E+00  0.000E+00  4.36569E+01  1.683E-01  2.000E+01  2.000E+04 -1.137E-01
   1   16   12     1    12    1.2986E+05 -3.8171E+03   1.3367E+05  0.000E+00  0.000E+00  0.000E+00  4.31821E+01  1.707E-01  2.000E+01  2.000E+04 -1.909E-01
   1   15   13     1    13    1.3367E+05 -3.4913E+03   1.3717E+05  0.000E+00  0.000E+00  0.000E+00  4.27076E+01  1.735E-01  2.000E+01  2.000E+04 -1.746E-01
   1   14   14     1    14    1.3717E+05 -3.2026E+03   1.4037E+05  0.000E+00  0.000E+00  0.000E+00  4.22329E+01  1.761E-01  2.000E+01  2.000E+04 -1.601E-01
   1   13   15     1    15    1.4037E+05 -2.7814E+03   1.4315E+05  0.000E+00  0.000E+00  0.000E+00  4.17579E+01  1.783E-01  2.000E+01  2.000E+04 -1.391E-01
   1   12   16     1    16    1.4315E+05 -3.9223E+03   1.4707E+05  0.000E+00  0.000E+00  0.000E+00  4.12831E+01  1.809E-01  2.000E+01  2.000E+04 -1.961E-01
   1   12   17     1    17    1.4707E+05 -1.4121E+03   1.4848E+05  0.000E+00  0.000E+00  0.000E+00  4.08078E+01  1.828E-01  2.000E+01  2.000E+04 -7.060E-02
   1   12   18     1    18    1.4848E+05 -1.6923E+03   1.5018E+05  0.000E+00  0.000E+00  0.000E+00  4.03317E+01  1.840E-01  2.000E+01  2.000E+04 -8.461E-02
   1   12   19     1    19    1.5018E+05 -2.3204E+03   1.5250E+05  0.000E+00  0.000E+00  0.000E+00  3.98559E+01  1.855E-01  2.000E+01  2.000E+04 -1.160E-01
   1   13   20     1    20    1.5250E+05 -1.6268E+03   1.5412E+05  0.000E+00  0.000E+00  0.000E+00  3.93801E+01  1.869E-01  2.000E+01  2.000E+04 -8.134E-02
   1   14   21     1    21    1.5412E+05 -2.5451E+03   1.5667E+05  0.000E+00  0.000E+00  0.000E+00  3.89044E+01  1.884E-01  2.000E+01  2.000E+04 -1.273E-01
   1   14   22     1    22    1.5667E+05  4.7001E+03   1.5197E+05  0.000E+00  0.000E+00  0.000E+00  3.84263E+01  1.877E-01  2.000E+01  2.000E+04  2.350E-01
   1    9   30     2     1    5.0000E+04 -1.9212E+03   5.1921E+04  0.000E+00  0.000E+00  0.000E+00  4.02422E+01  1.172E-01  2.000E+01  2.000E+04 -9.606E-02
   1    9   29     2     2    5.1921E+04 -2.1891E+03   5.4110E+04  0.000E+00  0.000E+00  0.000E+00  3.99950E+01  1.200E-01  2.000E+01  2.000E+04 -1.095E-01
   1    9   28     2     3    5.4110E+04 -2.3753E+03   5.6486E+04  0.000E+00  0.000E+00  0.000E+00  3.97481E+01  1.231E-01  2.000E+01  2.000E+04 -1.188E-01
   1    9   27     2     4    5.6486E+04 -3.6247E+03   6.0110E+04  0.000E+00  0.000E+00  0.000E+00  3.95020E+01  1.270E-01  2.000E+01  2.000E+04 -1.812E-01
   1   10   26     2     5    6.0110E+04 -1.8739E+03   6.1984E+04  0.000E+00  0.000E+00  0.000E+00  3.92556E+01  1.306E-01  2.000E+01  2.000E+04 -9.370E-02
   1   11   25     2     6    6.1984E+04 -6.1312E+02   6.2597E+04  0.000E+00  0.000E+00  0.000E+00  3.90072E+01  1.322E-01  2.000E+01  2.000E+04 -3.066E-02
   1   12   24     2     7    6.2597E+04 -2.1088E+02   6.2808E+04  0.000E+00  0.000E+00  0.000E+00  3.87577E+01  1.327E-01  2.000E+01  2.000E+04 -1.054E-02
   1   13   23     2     8    6.2808E+04 -2.1545E+02   6.3024E+04  0.000E+00  0.000E+00  0.000E+00  3.85080E+01  1.330E-01  2.000E+01  2.000E+04 -1.077E-02
   1   14   22     2     9    6.3024E+04  1.3200E+03   6.1704E+04  0.000E+00  0.000E+00  0.000E+00  3.82573E+01  1.323E-01  2.000E+01  2.000E+04  6.600E-02
   1   14   22     3     1    2.1367E+05 -8.8817E+03   2.2255E+05  0.000E+00  0.000E+00  0.000E+00  3.77472E+01  1.917E-01  2.000E+01  2.000E+04 -4.441E-01
   1   15   23     3     2    2.2255E+05 -9.9286E+02   2.2355E+05  0.000E+00  0.000E+00  0.000E+00  3.68609E+01  1.942E-01  2.000E+01  2.000E+04 -4.964E-02
   1   15   24     3     3    2.2355E+05 -6.5446E+02   2.2420E+05  0.000E+00  0.000E+00  0.000E+00  3.59724E+01  1.947E-01  2.000E+01  2.000E+04 -3.272E-02
   1   15   25     3     4    2.2420E+05 -6.6551E+02   2.2487E+05  0.000E+00  0.000E+00  0.000E+00  3.50839E+01  1.950E-01  2.000E+01  2.000E+04 -3.328E-02
   1   15   26     3     5    2.2487E+05 -7.6957E+02   2.2564E+05  0.000E+00  0.000E+00  0.000E+00  3.41954E+01  1.954E-01  2.000E+01  2.000E+04 -3.848E-02
   1   16   27     3     6    2.2564E+05 -8.9470E+02   2.2653E+05  0.000E+00  0.000E+00  0.000E+00  3.33069E+01  1.958E-01  2.000E+01  2.000E+04 -4.474E-02
   1   17   28     3     7    2.2653E+05 -3.2432E+03   2.2977E+05  0.000E+00  0.000E+00  0.000E+00  3.24191E+01  1.969E-01  2.000E+01  2.000E+04 -1.622E-01
   1   18   29     3     8    2.2977E+05 -5.0275E+03   2.3480E+05  0.000E+00  0.000E+00  0.000E+00  3.15324E+01  1.990E-01  2.000E+01  2.000E+04 -2.514E-01
   1   18   30     3     9    2.3480E+05 -4.6678E+03   2.3947E+05  0.000E+00  0.000E+00  0.000E+00  3.06460E+01  2.015E-01  2.000E+01  2.000E+04 -2.334E-01



1
              HEAD IN LAYER   1 AT END OF TIME STEP   1 IN STRESS PERIOD    2
  ---------------------------------------------------------------------------

          1      2      3      4      5      6      7      8      9     10
         11     12     13     14     15     16     17     18     19     20
         21     22     23     24     25     26     27     28     29     30
 .........................................................................
   1  ****** ****** ****** ****** ****** ****** ****** ****** ****** ******
      ****** ****** ****** ****** ****** ****** ****** ****** ****** ******
      ****** ****** ****** ****** ****** ****** ****** ****** ****** ******
   2  ****** ****** ****** ****** ****** ****** ****** ****** ****** ******
      ****** ****** ****** ****** ****** ****** ****** ****** ****** ******
      ****** ****** ****** ****** ****** ****** ****** ****** ****** ******
   3  ****** ****** ****** ****** ****** ****** ****** ****** ****** ******
      ****** ****** ****** ****** ****** ****** ****** ****** ****** ******
      ****** ****** ****** ****** ****** ****** ****** ****** ****** ******
   4  ****** ****** ****** ****** ****** ****** ****** ****** ****** ******
      ****** ****** ****** ****** ****** ****** ****** ****** ****** ******
      ****** ****** ****** ****** ****** ****** ****** ****** ****** ******
   5  ****** ****** ****** ****** ****** ****** ****** ****** ****** ******
      ****** ****** ****** ****** ****** ****** ****** ****** ****** ******
      ****** ****** ****** ****** ****** ****** ****** ****** ****** ******
   6  ****** ****** ****** ****** ****** ****** ****** ****** ****** ******
      ****** ****** ****** ****** ****** ****** ****** ****** ****** ******
      ****** ****** ****** ****** ****** ****** ****** ****** ****** ******
   7  ****** ****** ****** ****** ****** ****** ****** ****** ****** ******
      ****** ****** ****** ****** ****** ****** ****** ****** ****** ******
      ****** ****** ****** ****** ****** ****** ****** ****** ****** ******
   8  ****** ****** ****** ****** ****** ****** ****** ****** ****** ******
      ****** ****** ****** ****** ****** ****** ****** ****** ****** ******
      ****** ****** ****** ****** ****** ****** ****** ****** ****** ******
   9  ****** ****** ****** ****** ****** ****** ****** ****** ****** ******
      ****** ****** ****** ****** ****** ****** ****** ****** ****** ******
      ****** ****** ****** ****** ****** ****** ****** ****** ****** ******
  10  ****** ****** ****** ****** ****** ****** ****** ****** ****** ******
      ****** ****** ****** ****** ****** ****** ****** ****** ****** ******
      ****** ****** ****** ****** ****** ****** ****** ****** ****** ******
  11  ****** ****** ****** ****** ****** ****** ****** ****** ****** ******
      ****** ****** ****** ****** ****** ****** ****** ****** ****** ******
      ****** ****** ****** ****** ****** ****** ****** ****** ****** ******
  12  ****** ****** ****** ****** ****** ****** ****** ****** ****** ******
      ****** ****** ****** ****** ****** ****** ****** ****** ****** ******
      ****** ****** ****** ****** ****** ****** ****** ****** ****** ******
  13  ****** ****** ****** ****** ****** ****** ****** ****** ****** ******
      ****** ****** ****** ****** ****** ****** ****** ****** ****** ******
      ****** ****** ****** ****** ****** ****** ****** ****** ****** ******
  14  ****** ****** ****** ****** ****** ****** ****** ****** ****** ******
      ****** ****** ****** ****** ****** ****** ****** ****** ****** ******
      ****** ****** ****** ****** ****** ****** ****** ****** ****** ******
  15  ****** ****** ****** ****** ****** ****** ****** ****** ****** ******
      ****** ****** ****** ****** ****** ****** ****** ****** ****** ******
      ****** ****** ****** ****** ****** ****** ****** ****** ****** ******
  16  ****** ****** ****** ****** ****** ****** ****** ****** ****** ******
      ****** ****** ****** ****** ****** ****** ****** ****** ****** ******
      ****** ****** ****** ****** ****** ****** ****** ****** ****** ******
  17  ****** ****** ****** ****** ****** ****** ****** ****** ****** ******
      ****** ****** ****** ****** ****** ****** ****** ****** ****** ******
      ****** ****** ****** ****** ****** ****** ****** ****** ****** ******
  18  ****** ****** ****** ****** ****** ****** ****** ****** ****** ******
      ****** ****** ****** ****** ****** ****** ****** ****** ****** ******
      ****** ****** ****** ****** ****** ****** ****** ****** ****** ******
  19  ****** ****** ****** ****** ****** ****** ****** ****** ****** ******
      ****** ****** ****** ****** ****** ****** ****** ****** ****** ******
      ****** ****** ****** ****** ****** ****** ****** ****** ****** ******
  20  ****** ****** ****** ****** ****** ****** ****** ****** ****** ******
      ****** ****** ****** ****** ****** ****** ****** ****** ****** ******
      ****** ****** ****** ****** ****** ****** ****** ****** ****** ******
  21  ****** ****** ****** ****** ****** ****** ****** ****** ****** ******
      ****** ****** ****** ****** ****** ****** ****** ****** ****** ******
      ****** ****** ****** ****** ****** ****** ****** ****** ****** ******
  22  ****** ****** ****** ****** ****** ****** ****** ****** ****** ******
      ****** ****** ****** ****** ****** ****** ****** ****** ****** ******
      ****** ****** ****** ****** ****** ****** ****** ****** ****** ******
  23  ****** ****** ****** ****** ****** ****** ****** ****** ****** ******
      ****** ****** ****** ****** ****** ****** ****** ****** ****** ******
      ****** ****** ****** ****** ****** ****** ****** ****** ****** ******
  24  ****** ****** ****** ****** ****** ****** ****** ****** ****** ******
      ****** ****** ****** ****** ****** ****** ****** ****** ****** ******
      ****** ****** ****** ****** ****** ****** ****** ****** ****** ******
  25  ****** ****** ****** ****** ****** ****** ****** ****** ****** ******
      ****** ****** ****** ****** ****** ****** ****** ****** ****** ******
      ****** ****** ****** ****** ****** ****** ****** ****** ****** ******

 HEAD WILL BE SAVED ON UNIT   51 AT END OF TIME STEP    1, STRESS PERIOD    2
1
  VOLUMETRIC BUDGET FOR ENTIRE MODEL AT END OF TIME STEP    1, STRESS PERIOD   2
  ------------------------------------------------------------------------------

     CUMULATIVE VOLUMES      L**3       RATES FOR THIS TIME STEP      L**3/T
     ------------------                 ------------------------

           IN:                                      IN:
           ---                                      ---
             STORAGE =    23078920.0291               STORAGE =       55660.6304
       CONSTANT HEAD =     2789524.1164         CONSTANT HEAD =       17651.0576
               WELLS =           0.0000                 WELLS =           0.0000
            RECHARGE =     6292800.0000              RECHARGE =       55200.0000
      STREAM LEAKAGE =      938857.4915        STREAM LEAKAGE =        6020.1253

            TOTAL IN =    33100101.6369              TOTAL IN =      134531.8133

          OUT:                                     OUT:
          ----                                     ----
             STORAGE =           0.0000               STORAGE =           0.0000
       CONSTANT HEAD =           0.0000         CONSTANT HEAD =           0.0000
               WELLS =     7144696.9399                 WELLS =       39042.0598
            RECHARGE =           0.0000              RECHARGE =           0.0000
      STREAM LEAKAGE =    25955405.9336        STREAM LEAKAGE =       95489.7638

           TOTAL OUT =    33100102.8735             TOTAL OUT =      134531.8236

            IN - OUT =          -1.2366              IN - OUT =      -1.0281E-02

 PERCENT DISCREPANCY =          -0.00     PERCENT DISCREPANCY =          -0.00






         TIME SUMMARY AT END OF TIME STEP    1 IN STRESS PERIOD    2
                    SECONDS     MINUTES      HOURS       DAYS        YEARS
                    -----------------------------------------------------------
   TIME STEP LENGTH 7.86240E+06 1.31040E+05  2184.0      91.000     0.24914    
 STRESS PERIOD TIME 7.86240E+06 1.31040E+05  2184.0      91.000     0.24914    
         TOTAL TIME 1.58112E+07 2.63520E+05  4392.0      183.00     0.50103    
1
1
                            STRESS PERIOD NO.    3, LENGTH =   91.00000    
                            -----------------------------------------------

                              NUMBER OF TIME STEPS =     1

                               MULTIPLIER FOR DELT =     1.500

                            INITIAL TIME STEP SIZE =   91.00000    

 WELL NO.  LAYER   ROW   COL   STRESS RATE         
 --------------------------------------------------
      1      1      8     21      -8122.    
      2      1      4     14      -6617.    
      3      1     10     23     -0.1245E+05
      4      1     14     17     -0.1185E+05

      4 WELLS

                 RECHARGE =   0.00000    

 REUSING STREAM SEGMENT DATA FROM LAST STRESS PERIOD
 
 SOLVING FOR HEAD 


     7 CALLS TO PCG ROUTINE FOR TIME STEP   1 IN STRESS PERIOD    3
    27 TOTAL ITERATIONS

 OUTPUT CONTROL FOR STRESS PERIOD    3   TIME STEP    1
    SAVE BUDGET
    SAVE HEAD FOR ALL LAYERS
    PRINT HEAD FOR ALL LAYERS
 UBDSV2 SAVING "STREAMFLOW OUT  " ON UNIT  50 AT TIME STEP  1, STRESS PERIOD   3



 STREAM LISTING     PERIOD      3   STEP        1

 LAYER ROW COL. STREAM  RCH.  FLOW INTO     FLOW TO   FLOW OUT OF   OVRLND.     DIRECT     STREAM       STREAM     STREAM     STREAM   STREAMBED  STREAMBED
                SEG.NO.  NO.  STRM. RCH.    AQUIFER    STRM. RCH.    RUNOFF     PRECIP       ET          HEAD       DEPTH      WIDTH   CONDCTNC.   GRADIENT

   1   13    1     1     1    1.0000E+05 -2.6798E+03   1.0268E+05  0.000E+00  0.000E+00  0.000E+00  4.84072E+01  1.458E-01  2.000E+01  2.000E+04 -1.340E-01
   1   13    2     1     2    1.0268E+05 -3.7832E+03   1.0646E+05  0.000E+00  0.000E+00  0.000E+00  4.79327E+01  1.486E-01  2.000E+01  2.000E+04 -1.892E-01
   1   14    3     1     3    1.0646E+05 -6.4975E+02   1.0711E+05  0.000E+00  0.000E+00  0.000E+00  4.74573E+01  1.505E-01  2.000E+01  2.000E+04 -3.249E-02
   1   15    4     1     4    1.0711E+05 -6.3506E+02   1.0775E+05  0.000E+00  0.000E+00  0.000E+00  4.69806E+01  1.510E-01  2.000E+01  2.000E+04 -3.175E-02
   1   16    5     1     5    1.0775E+05 -2.4482E+03   1.1020E+05  0.000E+00  0.000E+00  0.000E+00  4.65046E+01  1.523E-01  2.000E+01  2.000E+04 -1.224E-01
   1   16    6     1     6    1.1020E+05 -1.4940E+03   1.1169E+05  0.000E+00  0.000E+00  0.000E+00  4.60290E+01  1.540E-01  2.000E+01  2.000E+04 -7.470E-02
   1   16    7     1     7    1.1169E+05 -1.4538E+03   1.1314E+05  0.000E+00  0.000E+00  0.000E+00  4.55529E+01  1.552E-01  2.000E+01  2.000E+04 -7.269E-02
   1   16    8     1     8    1.1314E+05 -1.4364E+03   1.1458E+05  0.000E+00  0.000E+00  0.000E+00  4.50768E+01  1.564E-01  2.000E+01  2.000E+04 -7.182E-02
   1   16    9     1     9    1.1458E+05 -1.4103E+03   1.1599E+05  0.000E+00  0.000E+00  0.000E+00  4.46007E+01  1.575E-01  2.000E+01  2.000E+04 -7.052E-02
   1   16   10     1    10    1.1599E+05 -1.3703E+03   1.1736E+05  0.000E+00  0.000E+00  0.000E+00  4.41246E+01  1.587E-01  2.000E+01  2.000E+04 -6.851E-02
   1   16   11     1    11    1.1736E+05 -1.3372E+03   1.1870E+05  0.000E+00  0.000E+00  0.000E+00  4.36484E+01  1.598E-01  2.000E+01  2.000E+04 -6.686E-02
   1   16   12     1    12    1.1870E+05 -2.1754E+03   1.2087E+05  0.000E+00  0.000E+00  0.000E+00  4.31726E+01  1.612E-01  2.000E+01  2.000E+04 -1.088E-01
   1   15   13     1    13    1.2087E+05 -1.7859E+03   1.2266E+05  0.000E+00  0.000E+00  0.000E+00  4.26969E+01  1.628E-01  2.000E+01  2.000E+04 -8.929E-02
   1   14   14     1    14    1.2266E+05 -1.4241E+03   1.2408E+05  0.000E+00  0.000E+00  0.000E+00  4.22209E+01  1.641E-01  2.000E+01  2.000E+04 -7.120E-02
   1   13   15     1    15    1.2408E+05 -9.6911E+02   1.2505E+05  0.000E+00  0.000E+00  0.000E+00  4.17446E+01  1.650E-01  2.000E+01  2.000E+04 -4.846E-02
   1   12   16     1    16    1.2505E+05 -1.9917E+03   1.2704E+05  0.000E+00  0.000E+00  0.000E+00  4.12685E+01  1.662E-01  2.000E+01  2.000E+04 -9.958E-02
   1   12   17     1    17    1.2704E+05 -2.3454E+01   1.2707E+05  0.000E+00  0.000E+00  0.000E+00  4.07920E+01  1.670E-01  2.000E+01  2.000E+04 -1.173E-03
   1   12   18     1    18    1.2707E+05 -3.2271E+02   1.2739E+05  0.000E+00  0.000E+00  0.000E+00  4.03149E+01  1.671E-01  2.000E+01  2.000E+04 -1.614E-02
   1   12   19     1    19    1.2739E+05 -5.7900E+02   1.2797E+05  0.000E+00  0.000E+00  0.000E+00  3.98379E+01  1.675E-01  2.000E+01  2.000E+04 -2.895E-02
   1   13   20     1    20    1.2797E+05 -8.5192E+01   1.2805E+05  0.000E+00  0.000E+00  0.000E+00  3.93609E+01  1.678E-01  2.000E+01  2.000E+04 -4.260E-03
   1   14   21     1    21    1.2805E+05 -1.0279E+03   1.2908E+05  0.000E+00  0.000E+00  0.000E+00  3.88841E+01  1.682E-01  2.000E+01  2.000E+04 -5.140E-02
   1   14   22     1    22    1.2908E+05  5.0715E+03   1.2401E+05  0.000E+00  0.000E+00  0.000E+00  3.84052E+01  1.666E-01  2.000E+01  2.000E+04  2.536E-01
   1    9   30     2     1    5.0000E+04 -6.7217E+02   5.0672E+04  0.000E+00  0.000E+00  0.000E+00  4.02413E+01  1.163E-01  2.000E+01  2.000E+04 -3.361E-02
   1    9   29     2     2    5.0672E+04 -9.3727E+02   5.1609E+04  0.000E+00  0.000E+00  0.000E+00  3.99924E+01  1.174E-01  2.000E+01  2.000E+04 -4.686E-02
   1    9   28     2     3    5.1609E+04 -1.0987E+03   5.2708E+04  0.000E+00  0.000E+00  0.000E+00  3.97438E+01  1.188E-01  2.000E+01  2.000E+04 -5.493E-02
   1    9   27     2     4    5.2708E+04 -1.7398E+03   5.4448E+04  0.000E+00  0.000E+00  0.000E+00  3.94958E+01  1.208E-01  2.000E+01  2.000E+04 -8.699E-02
   1   10   26     2     5    5.4448E+04 -1.2526E+02   5.4573E+04  0.000E+00  0.000E+00  0.000E+00  3.92470E+01  1.220E-01  2.000E+01  2.000E+04 -6.263E-03
   1   11   25     2     6    5.4573E+04  1.0187E+03   5.3554E+04  0.000E+00  0.000E+00  0.000E+00  3.89964E+01  1.214E-01  2.000E+01  2.000E+04  5.093E-02
   1   12   24     2     7    5.3554E+04  1.2591E+03   5.2295E+04  0.000E+00  0.000E+00  0.000E+00  3.87449E+01  1.199E-01  2.000E+01  2.000E+04  6.295E-02
   1   13   23     2     8    5.2295E+04  1.3799E+02   5.2157E+04  0.000E+00  0.000E+00  0.000E+00  3.84939E+01  1.189E-01  2.000E+01  2.000E+04  6.900E-03
   1   14   22     2     9    5.2157E+04  1.8187E+03   5.0339E+04  0.000E+00  0.000E+00  0.000E+00  3.82426E+01  1.176E-01  2.000E+01  2.000E+04  9.093E-02
   1   14   22     3     1    1.7435E+05 -8.5221E+03   1.8287E+05  0.000E+00  0.000E+00  0.000E+00  3.77256E+01  1.700E-01  2.000E+01  2.000E+04 -4.261E-01
   1   15   23     3     2    1.8287E+05 -5.9837E+02   1.8347E+05  0.000E+00  0.000E+00  0.000E+00  3.68393E+01  1.726E-01  2.000E+01  2.000E+04 -2.992E-02
   1   15   24     3     3    1.8347E+05 -3.3134E+02   1.8380E+05  0.000E+00  0.000E+00  0.000E+00  3.59506E+01  1.729E-01  2.000E+01  2.000E+04 -1.657E-02
   1   15   25     3     4    1.8380E+05 -3.2621E+02   1.8413E+05  0.000E+00  0.000E+00  0.000E+00  3.50619E+01  1.730E-01  2.000E+01  2.000E+04 -1.631E-02
   1   15   26     3     5    1.8413E+05 -3.6562E+02   1.8449E+05  0.000E+00  0.000E+00  0.000E+00  3.41732E+01  1.732E-01  2.000E+01  2.000E+04 -1.828E-02
   1   16   27     3     6    1.8449E+05 -4.2910E+02   1.8492E+05  0.000E+00  0.000E+00  0.000E+00  3.32846E+01  1.735E-01  2.000E+01  2.000E+04 -2.146E-02
   1   17   28     3     7    1.8492E+05 -1.8308E+03   1.8675E+05  0.000E+00  0.000E+00  0.000E+00  3.23963E+01  1.741E-01  2.000E+01  2.000E+04 -9.154E-02
   1   18   29     3     8    1.8675E+05 -3.5093E+03   1.9026E+05  0.000E+00  0.000E+00  0.000E+00  3.15089E+01  1.756E-01  2.000E+01  2.000E+04 -1.755E-01
   1   18   30     3     9    1.9026E+05 -3.5306E+03   1.9379E+05  0.000E+00  0.000E+00  0.000E+00  3.06220E+01  1.775E-01  2.000E+01  2.000E+04 -1.765E-01



1
              HEAD IN LAYER   1 AT END OF TIME STEP   1 IN STRESS PERIOD    3
  ---------------------------------------------------------------------------

          1      2      3      4      5      6      7      8      9     10
         11     12     13     14     15     16     17     18     19     20
         21     22     23     24     25     26     27     28     29     30
 .........................................................................
   1  ****** ****** ****** ****** ****** ****** ****** ****** ****** ******
      ****** ****** ****** ****** ****** ****** ****** ****** ****** ******
      ****** ****** ****** ****** ****** ****** ****** ****** ****** ******
   2  ****** ****** ****** ****** ****** ****** ****** ****** ****** ******
      ****** ****** ****** ****** ****** ****** ****** ****** ****** ******
      ****** ****** ****** ****** ****** ****** ****** ****** ****** ******
   3  ****** ****** ****** ****** ****** ****** ****** ****** ****** ******
      ****** ****** ****** ****** ****** ****** ****** ****** ****** ******
      ****** ****** ****** ****** ****** ****** ****** ****** ****** ******
   4  ****** ****** ****** ****** ****** ****** ****** ****** ****** ******
      ****** ****** ****** ****** ****** ****** ****** ****** ****** ******
      ****** ****** ****** ****** ****** ****** ****** ****** ****** ******
   5  ****** ****** ****** ****** ****** ****** ****** ****** ****** ******
      ****** ****** ****** ****** ****** ****** ****** ****** ****** ******
      ****** ****** ****** ****** ****** ****** ****** ****** ****** ******
   6  ****** ****** ****** ****** ****** ****** ****** ****** ****** ******
      ****** ****** ****** ****** ****** ****** ****** ****** ****** ******
      ****** ****** ****** ****** ****** ****** ****** ****** ****** ******
   7  ****** ****** ****** ****** ****** ****** ****** ****** ****** ******
      ****** ****** ****** ****** ****** ****** ****** ****** ****** ******
      ****** ****** ****** ****** ****** ****** ****** ****** ****** ******
   8  ****** ****** ****** ****** ****** ****** ****** ****** ****** ******
      ****** ****** ****** ****** ****** ****** ****** ****** ****** ******
      ****** ****** ****** ****** ****** ****** ****** ****** ****** ******
   9  ****** ****** ****** ****** ****** ****** ****** ****** ****** ******
      ****** ****** ****** ****** ****** ****** ****** ****** ****** ******
      ****** ****** ****** ****** ****** ****** ****** ****** ****** ******
  10  ****** ****** ****** ****** ****** ****** ****** ****** ****** ******
      ****** ****** ****** ****** ****** ****** ****** ****** ****** ******
      ****** ****** ****** ****** ****** ****** ****** ****** ****** ******
  11  ****** ****** ****** ****** ****** ****** ****** ****** ****** ******
      ****** ****** ****** ****** ****** ****** ****** ****** ****** ******
      ****** ****** ****** ****** ****** ****** ****** ****** ****** ******
  12  ****** ****** ****** ****** ****** ****** ****** ****** ****** ******
      ****** ****** ****** ****** ****** ****** ****** ****** ****** ******
      ****** ****** ****** ****** ****** ****** ****** ****** ****** ******
  13  ****** ****** ****** ****** ****** ****** ****** ****** ****** ******
      ****** ****** ****** ****** ****** ****** ****** ****** ****** ******
      ****** ****** ****** ****** ****** ****** ****** ****** ****** ******
  14  ****** ****** ****** ****** ****** ****** ****** ****** ****** ******
      ****** ****** ****** ****** ****** ****** ****** ****** ****** ******
      ****** ****** ****** ****** ****** ****** ****** ****** ****** ******
  15  ****** ****** ****** ****** ****** ****** ****** ****** ****** ******
      ****** ****** ****** ****** ****** ****** ****** ****** ****** ******
      ****** ****** ****** ****** ****** ****** ****** ****** ****** ******
  16  ****** ****** ****** ****** ****** ****** ****** ****** ****** ******
      ****** ****** ****** ****** ****** ****** ****** ****** ****** ******
      ****** ****** ****** ****** ****** ****** ****** ****** ****** ******
  17  ****** ****** ****** ****** ****** ****** ****** ****** ****** ******
      ****** ****** ****** ****** ****** ****** ****** ****** ****** ******
      ****** ****** ****** ****** ****** ****** ****** ****** ****** ******
  18  ****** ****** ****** ****** ****** ****** ****** ****** ****** ******
      ****** ****** ****** ****** ****** ****** ****** ****** ****** ******
      ****** ****** ****** ****** ****** ****** ****** ****** ****** ******
  19  ****** ****** ****** ****** ****** ****** ****** ****** ****** ******
      ****** ****** ****** ****** ****** ****** ****** ****** ****** ******
      ****** ****** ****** ****** ****** ****** ****** ****** ****** ******
  20  ****** ****** ****** ****** ****** ****** ****** ****** ****** ******
      ****** ****** ****** ****** ****** ****** ****** ****** ****** ******
      ****** ****** ****** ****** ****** ****** ****** ****** ****** ******
  21  ****** ****** ****** ****** ****** ****** ****** ****** ****** ******
      ****** ****** ****** ****** ****** ****** ****** ****** ****** ******
      ****** ****** ****** ****** ****** ****** ****** ****** ****** ******
  22  ****** ****** ****** ****** ****** ****** ****** ****** ****** ******
      ****** ****** ****** ****** ****** ****** ****** ****** ****** ******
      ****** ****** ****** ****** ****** ****** ****** ****** ****** ******
  23  ****** ****** ****** ****** ****** ****** ****** ****** ****** ******
      ****** ****** ****** ****** ****** ****** ****** ****** ****** ******
      ****** ****** ****** ****** ****** ****** ****** ****** ****** ******
  24  ****** ****** ****** ****** ****** ****** ****** ****** ****** ******
      ****** ****** ****** ****** ****** ****** ****** ****** ****** ******
      ****** ****** ****** ****** ****** ****** ****** ****** ****** ******
  25  ****** ****** ****** ****** ****** ****** ****** ****** ****** ******
      ****** ****** ****** ****** ****** ****** ****** ****** ****** ******
      ****** ****** ****** ****** ****** ****** ****** ****** ****** ******

 HEAD WILL BE SAVED ON UNIT   51 AT END OF TIME STEP    1, STRESS PERIOD    3
1
  VOLUMETRIC BUDGET FOR ENTIRE MODEL AT END OF TIME STEP    1, STRESS PERIOD   3
  ------------------------------------------------------------------------------

     CUMULATIVE VOLUMES      L**3       RATES FOR THIS TIME STEP      L**3/T
     ------------------                 ------------------------

           IN:                                      IN:
           ---                                      ---
             STORAGE =    28213894.9238               STORAGE =       56428.2955
       CONSTANT HEAD =     5192549.8829         CONSTANT HEAD =       26406.8766
               WELLS =           0.0000                 WELLS =           0.0000
            RECHARGE =     6292800.0000              RECHARGE =           0.0000
      STREAM LEAKAGE =     1785698.5804        STREAM LEAKAGE =        9305.9460

            TOTAL IN =    41484943.3871              TOTAL IN =       92141.1181

          OUT:                                     OUT:
          ----                                     ----
             STORAGE =           0.0000               STORAGE =           0.0000
       CONSTANT HEAD =           0.0000         CONSTANT HEAD =           0.0000
               WELLS =    10697524.3800                 WELLS =       39042.0598
            RECHARGE =           0.0000              RECHARGE =           0.0000
      STREAM LEAKAGE =    30787420.9482        STREAM LEAKAGE =       53099.0661

           TOTAL OUT =    41484945.3281             TOTAL OUT =       92141.1259

            IN - OUT =          -1.9411              IN - OUT =      -7.7413E-03

 PERCENT DISCREPANCY =          -0.00     PERCENT DISCREPANCY =          -0.00






         TIME SUMMARY AT END OF TIME STEP    1 IN STRESS PERIOD    3
                    SECONDS     MINUTES      HOURS       DAYS        YEARS
                    -----------------------------------------------------------
   TIME STEP LENGTH 7.86240E+06 1.31040E+05  2184.0      91.000     0.24914    
 STRESS PERIOD TIME 7.86240E+06 1.31040E+05  2184.0      91.000     0.24914    
         TOTAL TIME 2.36736E+07 3.94560E+05  6576.0      274.00     0.75017    
1
1
                            STRESS PERIOD NO.    4, LENGTH =   91.00000    
                            -----------------------------------------------

                              NUMBER OF TIME STEPS =     1

                               MULTIPLIER FOR DELT =     1.500

                            INITIAL TIME STEP SIZE =   91.00000    

 WELL NO.  LAYER   ROW   COL   STRESS RATE         
 --------------------------------------------------
      1      1      8     21      -8122.    
      2      1      4     14      -6617.    
      3      1     10     23     -0.1245E+05
      4      1     14     17     -0.1185E+05

      4 WELLS

                 RECHARGE =  1.000000E-03

 REUSING STREAM SEGMENT DATA FROM LAST STRESS PERIOD
 
 SOLVING FOR HEAD 


     6 CALLS TO PCG ROUTINE FOR TIME STEP   1 IN STRESS PERIOD    4
    23 TOTAL ITERATIONS

 OUTPUT CONTROL FOR STRESS PERIOD    4   TIME STEP    1
    SAVE BUDGET
    SAVE HEAD FOR ALL LAYERS
    PRINT HEAD FOR ALL LAYERS
 UBDSV2 SAVING "STREAMFLOW OUT  " ON UNIT  50 AT TIME STEP  1, STRESS PERIOD   4



 STREAM LISTING     PERIOD      4   STEP        1

 LAYER ROW COL. STREAM  RCH.  FLOW INTO     FLOW TO   FLOW OUT OF   OVRLND.     DIRECT     STREAM       STREAM     STREAM     STREAM   STREAMBED  STREAMBED
                SEG.NO.  NO.  STRM. RCH.    AQUIFER    STRM. RCH.    RUNOFF     PRECIP       ET          HEAD       DEPTH      WIDTH   CONDCTNC.   GRADIENT

   1   13    1     1     1    1.0000E+05 -2.4184E+03   1.0242E+05  0.000E+00  0.000E+00  0.000E+00  4.84071E+01  1.457E-01  2.000E+01  2.000E+04 -1.209E-01
   1   13    2     1     2    1.0242E+05 -3.4809E+03   1.0590E+05  0.000E+00  0.000E+00  0.000E+00  4.79323E+01  1.482E-01  2.000E+01  2.000E+04 -1.740E-01
   1   14    3     1     3    1.0590E+05 -6.1878E+02   1.0652E+05  0.000E+00  0.000E+00  0.000E+00  4.74568E+01  1.500E-01  2.000E+01  2.000E+04 -3.094E-02
   1   15    4     1     4    1.0652E+05 -5.9520E+02   1.0711E+05  0.000E+00  0.000E+00  0.000E+00  4.69800E+01  1.505E-01  2.000E+01  2.000E+04 -2.976E-02
   1   16    5     1     5    1.0711E+05 -2.1472E+03   1.0926E+05  0.000E+00  0.000E+00  0.000E+00  4.65039E+01  1.516E-01  2.000E+01  2.000E+04 -1.074E-01
   1   16    6     1     6    1.0926E+05 -1.3451E+03   1.1061E+05  0.000E+00  0.000E+00  0.000E+00  4.60281E+01  1.531E-01  2.000E+01  2.000E+04 -6.725E-02
   1   16    7     1     7    1.1061E+05 -1.3158E+03   1.1192E+05  0.000E+00  0.000E+00  0.000E+00  4.55519E+01  1.542E-01  2.000E+01  2.000E+04 -6.579E-02
   1   16    8     1     8    1.1192E+05 -1.3025E+03   1.1322E+05  0.000E+00  0.000E+00  0.000E+00  4.50758E+01  1.553E-01  2.000E+01  2.000E+04 -6.512E-02
   1   16    9     1     9    1.1322E+05 -1.2792E+03   1.1450E+05  0.000E+00  0.000E+00  0.000E+00  4.45996E+01  1.564E-01  2.000E+01  2.000E+04 -6.396E-02
   1   16   10     1    10    1.1450E+05 -1.2427E+03   1.1575E+05  0.000E+00  0.000E+00  0.000E+00  4.41233E+01  1.574E-01  2.000E+01  2.000E+04 -6.214E-02
   1   16   11     1    11    1.1575E+05 -1.2100E+03   1.1696E+05  0.000E+00  0.000E+00  0.000E+00  4.36470E+01  1.584E-01  2.000E+01  2.000E+04 -6.050E-02
   1   16   12     1    12    1.1696E+05 -1.9041E+03   1.1886E+05  0.000E+00  0.000E+00  0.000E+00  4.31710E+01  1.597E-01  2.000E+01  2.000E+04 -9.521E-02
   1   15   13     1    13    1.1886E+05 -1.5187E+03   1.2038E+05  0.000E+00  0.000E+00  0.000E+00  4.26952E+01  1.611E-01  2.000E+01  2.000E+04 -7.593E-02
   1   14   14     1    14    1.2038E+05 -1.1210E+03   1.2150E+05  0.000E+00  0.000E+00  0.000E+00  4.22189E+01  1.621E-01  2.000E+01  2.000E+04 -5.605E-02
   1   13   15     1    15    1.2150E+05 -6.2576E+02   1.2213E+05  0.000E+00  0.000E+00  0.000E+00  4.17424E+01  1.628E-01  2.000E+01  2.000E+04 -3.129E-02
   1   12   16     1    16    1.2213E+05 -1.5211E+03   1.2365E+05  0.000E+00  0.000E+00  0.000E+00  4.12660E+01  1.637E-01  2.000E+01  2.000E+04 -7.605E-02
   1   12   17     1    17    1.2365E+05  2.5761E+02   1.2339E+05  0.000E+00  0.000E+00  0.000E+00  4.07892E+01  1.642E-01  2.000E+01  2.000E+04  1.288E-02
   1   12   18     1    18    1.2339E+05 -6.0864E+01   1.2345E+05  0.000E+00  0.000E+00  0.000E+00  4.03118E+01  1.641E-01  2.000E+01  2.000E+04 -3.043E-03
   1   12   19     1    19    1.2345E+05 -2.4595E+02   1.2370E+05  0.000E+00  0.000E+00  0.000E+00  3.98347E+01  1.642E-01  2.000E+01  2.000E+04 -1.230E-02
   1   13   20     1    20    1.2370E+05  1.1487E+02   1.2358E+05  0.000E+00  0.000E+00  0.000E+00  3.93575E+01  1.643E-01  2.000E+01  2.000E+04  5.744E-03
   1   14   21     1    21    1.2358E+05 -7.9121E+02   1.2437E+05  0.000E+00  0.000E+00  0.000E+00  3.88805E+01  1.646E-01  2.000E+01  2.000E+04 -3.956E-02
   1   14   22     1    22    1.2437E+05  5.1102E+03   1.1926E+05  0.000E+00  0.000E+00  0.000E+00  3.84015E+01  1.628E-01  2.000E+01  2.000E+04  2.555E-01
   1    9   30     2     1    5.0000E+04 -5.5863E+02   5.0559E+04  0.000E+00  0.000E+00  0.000E+00  4.02413E+01  1.163E-01  2.000E+01  2.000E+04 -2.793E-02
   1    9   29     2     2    5.0559E+04 -8.1483E+02   5.1373E+04  0.000E+00  0.000E+00  0.000E+00  3.99922E+01  1.172E-01  2.000E+01  2.000E+04 -4.074E-02
   1    9   28     2     3    5.1373E+04 -9.5098E+02   5.2324E+04  0.000E+00  0.000E+00  0.000E+00  3.97434E+01  1.184E-01  2.000E+01  2.000E+04 -4.755E-02
   1    9   27     2     4    5.2324E+04 -1.4080E+03   5.3732E+04  0.000E+00  0.000E+00  0.000E+00  3.94950E+01  1.200E-01  2.000E+01  2.000E+04 -7.040E-02
   1   10   26     2     5    5.3732E+04  8.2365E+01   5.3650E+04  0.000E+00  0.000E+00  0.000E+00  3.92459E+01  1.209E-01  2.000E+01  2.000E+04  4.118E-03
   1   11   25     2     6    5.3650E+04  1.1813E+03   5.2469E+04  0.000E+00  0.000E+00  0.000E+00  3.89951E+01  1.201E-01  2.000E+01  2.000E+04  5.906E-02
   1   12   24     2     7    5.2469E+04  1.4026E+03   5.1066E+04  0.000E+00  0.000E+00  0.000E+00  3.87433E+01  1.183E-01  2.000E+01  2.000E+04  7.013E-02
   1   13   23     2     8    5.1066E+04  1.1931E+02   5.0947E+04  0.000E+00  0.000E+00  0.000E+00  3.84923E+01  1.173E-01  2.000E+01  2.000E+04  5.966E-03
   1   14   22     2     9    5.0947E+04  1.8980E+03   4.9049E+04  0.000E+00  0.000E+00  0.000E+00  3.82409E+01  1.159E-01  2.000E+01  2.000E+04  9.490E-02
   1   14   22     3     1    1.6831E+05 -8.4779E+03   1.7679E+05  0.000E+00  0.000E+00  0.000E+00  3.77221E+01  1.665E-01  2.000E+01  2.000E+04 -4.239E-01
   1   15   23     3     2    1.7679E+05 -5.7572E+02   1.7736E+05  0.000E+00  0.000E+00  0.000E+00  3.68358E+01  1.691E-01  2.000E+01  2.000E+04 -2.879E-02
   1   15   24     3     3    1.7736E+05 -3.3116E+02   1.7770E+05  0.000E+00  0.000E+00  0.000E+00  3.59472E+01  1.694E-01  2.000E+01  2.000E+04 -1.656E-02
   1   15   25     3     4    1.7770E+05 -3.2590E+02   1.7802E+05  0.000E+00  0.000E+00  0.000E+00  3.50585E+01  1.696E-01  2.000E+01  2.000E+04 -1.629E-02
   1   15   26     3     5    1.7802E+05 -3.7499E+02   1.7840E+05  0.000E+00  0.000E+00  0.000E+00  3.41698E+01  1.698E-01  2.000E+01  2.000E+04 -1.875E-02
   1   16   27     3     6    1.7840E+05 -4.3004E+02   1.7883E+05  0.000E+00  0.000E+00  0.000E+00  3.32811E+01  1.700E-01  2.000E+01  2.000E+04 -2.150E-02
   1   17   28     3     7    1.7883E+05 -1.7696E+03   1.8060E+05  0.000E+00  0.000E+00  0.000E+00  3.23928E+01  1.706E-01  2.000E+01  2.000E+04 -8.848E-02
   1   18   29     3     8    1.8060E+05 -3.2971E+03   1.8389E+05  0.000E+00  0.000E+00  0.000E+00  3.15054E+01  1.721E-01  2.000E+01  2.000E+04 -1.649E-01
   1   18   30     3     9    1.8389E+05 -3.4259E+03   1.8732E+05  0.000E+00  0.000E+00  0.000E+00  3.06184E+01  1.740E-01  2.000E+01  2.000E+04 -1.713E-01



1
              HEAD IN LAYER   1 AT END OF TIME STEP   1 IN STRESS PERIOD    4
  ---------------------------------------------------------------------------

          1      2      3      4      5      6      7      8      9     10
         11     12     13     14     15     16     17     18     19     20
         21     22     23     24     25     26     27     28     29     30
 .........................................................................
   1  ****** ****** ****** ****** ****** ****** ****** ****** ****** ******
      ****** ****** ****** ****** ****** ****** ****** ****** ****** ******
      ****** ****** ****** ****** ****** ****** ****** ****** ****** ******
   2  ****** ****** ****** ****** ****** ****** ****** ****** ****** ******
      ****** ****** ****** ****** ****** ****** ****** ****** ****** ******
      ****** ****** ****** ****** ****** ****** ****** ****** ****** ******
   3  ****** ****** ****** ****** ****** ****** ****** ****** ****** ******
      ****** ****** ****** ****** ****** ****** ****** ****** ****** ******
      ****** ****** ****** ****** ****** ****** ****** ****** ****** ******
   4  ****** ****** ****** ****** ****** ****** ****** ****** ****** ******
      ****** ****** ****** ****** ****** ****** ****** ****** ****** ******
      ****** ****** ****** ****** ****** ****** ****** ****** ****** ******
   5  ****** ****** ****** ****** ****** ****** ****** ****** ****** ******
      ****** ****** ****** ****** ****** ****** ****** ****** ****** ******
      ****** ****** ****** ****** ****** ****** ****** ****** ****** ******
   6  ****** ****** ****** ****** ****** ****** ****** ****** ****** ******
      ****** ****** ****** ****** ****** ****** ****** ****** ****** ******
      ****** ****** ****** ****** ****** ****** ****** ****** ****** ******
   7  ****** ****** ****** ****** ****** ****** ****** ****** ****** ******
      ****** ****** ****** ****** ****** ****** ****** ****** ****** ******
      ****** ****** ****** ****** ****** ****** ****** ****** ****** ******
   8  ****** ****** ****** ****** ****** ****** ****** ****** ****** ******
      ****** ****** ****** ****** ****** ****** ****** ****** ****** ******
      ****** ****** ****** ****** ****** ****** ****** ****** ****** ******
   9  ****** ****** ****** ****** ****** ****** ****** ****** ****** ******
      ****** ****** ****** ****** ****** ****** ****** ****** ****** ******
      ****** ****** ****** ****** ****** ****** ****** ****** ****** ******
  10  ****** ****** ****** ****** ****** ****** ****** ****** ****** ******
      ****** ****** ****** ****** ****** ****** ****** ****** ****** ******
      ****** ****** ****** ****** ****** ****** ****** ****** ****** ******
  11  ****** ****** ****** ****** ****** ****** ****** ****** ****** ******
      ****** ****** ****** ****** ****** ****** ****** ****** ****** ******
      ****** ****** ****** ****** ****** ****** ****** ****** ****** ******
  12  ****** ****** ****** ****** ****** ****** ****** ****** ****** ******
      ****** ****** ****** ****** ****** ****** ****** ****** ****** ******
      ****** ****** ****** ****** ****** ****** ****** ****** ****** ******
  13  ****** ****** ****** ****** ****** ****** ****** ****** ****** ******
      ****** ****** ****** ****** ****** ****** ****** ****** ****** ******
      ****** ****** ****** ****** ****** ****** ****** ****** ****** ******
  14  ****** ****** ****** ****** ****** ****** ****** ****** ****** ******
      ****** ****** ****** ****** ****** ****** ****** ****** ****** ******
      ****** ****** ****** ****** ****** ****** ****** ****** ****** ******
  15  ****** ****** ****** ****** ****** ****** ****** ****** ****** ******
      ****** ****** ****** ****** ****** ****** ****** ****** ****** ******
      ****** ****** ****** ****** ****** ****** ****** ****** ****** ******
  16  ****** ****** ****** ****** ****** ****** ****** ****** ****** ******
      ****** ****** ****** ****** ****** ****** ****** ****** ****** ******
      ****** ****** ****** ****** ****** ****** ****** ****** ****** ******
  17  ****** ****** ****** ****** ****** ****** ****** ****** ****** ******
      ****** ****** ****** ****** ****** ****** ****** ****** ****** ******
      ****** ****** ****** ****** ****** ****** ****** ****** ****** ******
  18  ****** ****** ****** ****** ****** ****** ****** ****** ****** ******
      ****** ****** ****** ****** ****** ****** ****** ****** ****** ******
      ****** ****** ****** ****** ****** ****** ****** ****** ****** ******
  19  ****** ****** ****** ****** ****** ****** ****** ****** ****** ******
      ****** ****** ****** ****** ****** ****** ****** ****** ****** ******
      ****** ****** ****** ****** ****** ****** ****** ****** ****** ******
  20  ****** ****** ****** ****** ****** ****** ****** ****** ****** ******
      ****** ****** ****** ****** ****** ****** ****** ****** ****** ******
      ****** ****** ****** ****** ****** ****** ****** ****** ****** ******
  21  ****** ****** ****** ****** ****** ****** ****** ****** ****** ******
      ****** ****** ****** ****** ****** ****** ****** ****** ****** ******
      ****** ****** ****** ****** ****** ****** ****** ****** ****** ******
  22  ****** ****** ****** ****** ****** ****** ****** ****** ****** ******
      ****** ****** ****** ****** ****** ****** ****** ****** ****** ******
      ****** ****** ****** ****** ****** ****** ****** ****** ****** ******
  23  ****** ****** ****** ****** ****** ****** ****** ****** ****** ******
      ****** ****** ****** ****** ****** ****** ****** ****** ****** ******
      ****** ****** ****** ****** ****** ****** ****** ****** ****** ******
  24  ****** ****** ****** ****** ****** ****** ****** ****** ****** ******
      ****** ****** ****** ****** ****** ****** ****** ****** ****** ******
      ****** ****** ****** ****** ****** ****** ****** ****** ****** ******
  25  ****** ****** ****** ****** ****** ****** ****** ****** ****** ******
      ****** ****** ****** ****** ****** ****** ****** ****** ****** ******
      ****** ****** ****** ****** ****** ****** ****** ****** ****** ******

 HEAD WILL BE SAVED ON UNIT   51 AT END OF TIME STEP    1, STRESS PERIOD    4
1
  VOLUMETRIC BUDGET FOR ENTIRE MODEL AT END OF TIME STEP    1, STRESS PERIOD   4
  ------------------------------------------------------------------------------

     CUMULATIVE VOLUMES      L**3       RATES FOR THIS TIME STEP      L**3/T
     ------------------                 ------------------------

           IN:                                      IN:
           ---                                      ---
             STORAGE =    29998858.7822               STORAGE =       19614.9875
       CONSTANT HEAD =     7845967.7198         CONSTANT HEAD =       29158.4378
               WELLS =           0.0000                 WELLS =           0.0000
            RECHARGE =     8804400.0000              RECHARGE =       27600.0000
      STREAM LEAKAGE =     2710819.8404        STREAM LEAKAGE =       10166.1677

            TOTAL IN =    49360046.3424              TOTAL IN =       86539.5929

          OUT:                                     OUT:
          ----                                     ----
             STORAGE =        1138.3834               STORAGE =          12.5097
       CONSTANT HEAD =           0.0000         CONSTANT HEAD =           0.0000
               WELLS =    14250351.8200                 WELLS =       39042.0598
            RECHARGE =           0.0000              RECHARGE =           0.0000
      STREAM LEAKAGE =    35108558.1591        STREAM LEAKAGE =       47485.0243

           TOTAL OUT =    49360048.3626             TOTAL OUT =       86539.5938

            IN - OUT =          -2.0201              IN - OUT =      -8.6916E-04

 PERCENT DISCREPANCY =          -0.00     PERCENT DISCREPANCY =          -0.00






         TIME SUMMARY AT END OF TIME STEP    1 IN STRESS PERIOD    4
                    SECONDS     MINUTES      HOURS       DAYS        YEARS
                    -----------------------------------------------------------
   TIME STEP LENGTH 7.86240E+06 1.31040E+05  2184.0      91.000     0.24914    
 STRESS PERIOD TIME 7.86240E+06 1.31040E+05  2184.0      91.000     0.24914    
         TOTAL TIME 3.15360E+07 5.25600E+05  8760.0      365.00     0.99932    
1
1
                            STRESS PERIOD NO.    5, LENGTH =   92.00000    
                            -----------------------------------------------

                              NUMBER OF TIME STEPS =     1

                               MULTIPLIER FOR DELT =     1.500

                            INITIAL TIME STEP SIZE =   92.00000    

 WELL NO.  LAYER   ROW   COL   STRESS RATE         
 --------------------------------------------------
      1      1      8     21      -8122.    
      2      1      4     14      -6617.    
      3      1     10     23     -0.1245E+05
      4      1     14     17     -0.1185E+05

      4 WELLS

                 RECHARGE =  5.000000E-04

 REUSING STREAM SEGMENT DATA FROM LAST STRESS PERIOD
 
 SOLVING FOR HEAD 


     7 CALLS TO PCG ROUTINE FOR TIME STEP   1 IN STRESS PERIOD    5
    26 TOTAL ITERATIONS

 OUTPUT CONTROL FOR STRESS PERIOD    5   TIME STEP    1
    SAVE BUDGET
    SAVE HEAD FOR ALL LAYERS
    PRINT HEAD FOR ALL LAYERS
 UBDSV2 SAVING "STREAMFLOW OUT  " ON UNIT  50 AT TIME STEP  1, STRESS PERIOD   5



 STREAM LISTING     PERIOD      5   STEP        1

 LAYER ROW COL. STREAM  RCH.  FLOW INTO     FLOW TO   FLOW OUT OF   OVRLND.     DIRECT     STREAM       STREAM     STREAM     STREAM   STREAMBED  STREAMBED
                SEG.NO.  NO.  STRM. RCH.    AQUIFER    STRM. RCH.    RUNOFF     PRECIP       ET          HEAD       DEPTH      WIDTH   CONDCTNC.   GRADIENT

   1   13    1     1     1    1.0000E+05 -1.9814E+03   1.0198E+05  0.000E+00  0.000E+00  0.000E+00  4.84069E+01  1.455E-01  2.000E+01  2.000E+04 -9.907E-02
   1   13    2     1     2    1.0198E+05 -2.9872E+03   1.0497E+05  0.000E+00  0.000E+00  0.000E+00  4.79317E+01  1.476E-01  2.000E+01  2.000E+04 -1.494E-01
   1   14    3     1     3    1.0497E+05 -4.9414E+02   1.0546E+05  0.000E+00  0.000E+00  0.000E+00  4.74560E+01  1.491E-01  2.000E+01  2.000E+04 -2.471E-02
   1   15    4     1     4    1.0546E+05 -4.6485E+02   1.0593E+05  0.000E+00  0.000E+00  0.000E+00  4.69791E+01  1.495E-01  2.000E+01  2.000E+04 -2.324E-02
   1   16    5     1     5    1.0593E+05 -1.7173E+03   1.0764E+05  0.000E+00  0.000E+00  0.000E+00  4.65027E+01  1.505E-01  2.000E+01  2.000E+04 -8.586E-02
   1   16    6     1     6    1.0764E+05 -1.0925E+03   1.0874E+05  0.000E+00  0.000E+00  0.000E+00  4.60266E+01  1.516E-01  2.000E+01  2.000E+04 -5.462E-02
   1   16    7     1     7    1.0874E+05 -1.0734E+03   1.0981E+05  0.000E+00  0.000E+00  0.000E+00  4.55503E+01  1.526E-01  2.000E+01  2.000E+04 -5.367E-02
   1   16    8     1     8    1.0981E+05 -1.0636E+03   1.1087E+05  0.000E+00  0.000E+00  0.000E+00  4.50739E+01  1.535E-01  2.000E+01  2.000E+04 -5.318E-02
   1   16    9     1     9    1.1087E+05 -1.0435E+03   1.1192E+05  0.000E+00  0.000E+00  0.000E+00  4.45975E+01  1.543E-01  2.000E+01  2.000E+04 -5.217E-02
   1   16   10     1    10    1.1192E+05 -1.0108E+03   1.1293E+05  0.000E+00  0.000E+00  0.000E+00  4.41211E+01  1.552E-01  2.000E+01  2.000E+04 -5.054E-02
   1   16   11     1    11    1.1293E+05 -9.7837E+02   1.1391E+05  0.000E+00  0.000E+00  0.000E+00  4.36446E+01  1.560E-01  2.000E+01  2.000E+04 -4.892E-02
   1   16   12     1    12    1.1391E+05 -1.4874E+03   1.1539E+05  0.000E+00  0.000E+00  0.000E+00  4.31684E+01  1.570E-01  2.000E+01  2.000E+04 -7.437E-02
   1   15   13     1    13    1.1539E+05 -1.0700E+03   1.1646E+05  0.000E+00  0.000E+00  0.000E+00  4.26922E+01  1.581E-01  2.000E+01  2.000E+04 -5.350E-02
   1   14   14     1    14    1.1646E+05 -6.3621E+02   1.1710E+05  0.000E+00  0.000E+00  0.000E+00  4.22156E+01  1.588E-01  2.000E+01  2.000E+04 -3.181E-02
   1   13   15     1    15    1.1710E+05 -1.1478E+02   1.1722E+05  0.000E+00  0.000E+00  0.000E+00  4.17386E+01  1.591E-01  2.000E+01  2.000E+04 -5.739E-03
   1   12   16     1    16    1.1722E+05 -9.4665E+02   1.1816E+05  0.000E+00  0.000E+00  0.000E+00  4.12618E+01  1.595E-01  2.000E+01  2.000E+04 -4.733E-02
   1   12   17     1    17    1.1816E+05  6.3790E+02   1.1752E+05  0.000E+00  0.000E+00  0.000E+00  4.07846E+01  1.596E-01  2.000E+01  2.000E+04  3.190E-02
   1   12   18     1    18    1.1752E+05  3.0002E+02   1.1722E+05  0.000E+00  0.000E+00  0.000E+00  4.03070E+01  1.592E-01  2.000E+01  2.000E+04  1.500E-02
   1   12   19     1    19    1.1722E+05  1.9516E+02   1.1703E+05  0.000E+00  0.000E+00  0.000E+00  3.98295E+01  1.590E-01  2.000E+01  2.000E+04  9.758E-03
   1   13   20     1    20    1.1703E+05  4.8334E+02   1.1655E+05  0.000E+00  0.000E+00  0.000E+00  3.93519E+01  1.588E-01  2.000E+01  2.000E+04  2.417E-02
   1   14   21     1    21    1.1655E+05 -4.1131E+02   1.1696E+05  0.000E+00  0.000E+00  0.000E+00  3.88746E+01  1.587E-01  2.000E+01  2.000E+04 -2.057E-02
   1   14   22     1    22    1.1696E+05  5.1906E+03   1.1177E+05  0.000E+00  0.000E+00  0.000E+00  3.83954E+01  1.568E-01  2.000E+01  2.000E+04  2.595E-01
   1    9   30     2     1    5.0000E+04 -3.1439E+02   5.0314E+04  0.000E+00  0.000E+00  0.000E+00  4.02411E+01  1.161E-01  2.000E+01  2.000E+04 -1.572E-02
   1    9   29     2     2    5.0314E+04 -5.6620E+02   5.0881E+04  0.000E+00  0.000E+00  0.000E+00  3.99917E+01  1.167E-01  2.000E+01  2.000E+04 -2.831E-02
   1    9   28     2     3    5.0881E+04 -6.8821E+02   5.1569E+04  0.000E+00  0.000E+00  0.000E+00  3.97426E+01  1.176E-01  2.000E+01  2.000E+04 -3.441E-02
   1    9   27     2     4    5.1569E+04 -9.8719E+02   5.2556E+04  0.000E+00  0.000E+00  0.000E+00  3.94937E+01  1.187E-01  2.000E+01  2.000E+04 -4.936E-02
   1   10   26     2     5    5.2556E+04  4.4684E+02   5.2109E+04  0.000E+00  0.000E+00  0.000E+00  3.92441E+01  1.191E-01  2.000E+01  2.000E+04  2.234E-02
   1   11   25     2     6    5.2109E+04  1.5152E+03   5.0594E+04  0.000E+00  0.000E+00  0.000E+00  3.89927E+01  1.177E-01  2.000E+01  2.000E+04  7.576E-02
   1   12   24     2     7    5.0594E+04  1.7085E+03   4.8885E+04  0.000E+00  0.000E+00  0.000E+00  3.87405E+01  1.155E-01  2.000E+01  2.000E+04  8.543E-02
   1   13   23     2     8    4.8885E+04  1.9104E+02   4.8694E+04  0.000E+00  0.000E+00  0.000E+00  3.84892E+01  1.142E-01  2.000E+01  2.000E+04  9.552E-03
   1   14   22     2     9    4.8694E+04  2.0344E+03   4.6660E+04  0.000E+00  0.000E+00  0.000E+00  3.82376E+01  1.126E-01  2.000E+01  2.000E+04  1.017E-01
   1   14   22     3     1    1.5843E+05 -8.3927E+03   1.6682E+05  0.000E+00  0.000E+00  0.000E+00  3.77163E+01  1.607E-01  2.000E+01  2.000E+04 -4.196E-01
   1   15   23     3     2    1.6682E+05 -4.7768E+02   1.6730E+05  0.000E+00  0.000E+00  0.000E+00  3.68300E+01  1.633E-01  2.000E+01  2.000E+04 -2.388E-02
   1   15   24     3     3    1.6730E+05 -2.5923E+02   1.6756E+05  0.000E+00  0.000E+00  0.000E+00  3.59413E+01  1.635E-01  2.000E+01  2.000E+04 -1.296E-02
   1   15   25     3     4    1.6756E+05 -2.5458E+02   1.6781E+05  0.000E+00  0.000E+00  0.000E+00  3.50526E+01  1.637E-01  2.000E+01  2.000E+04 -1.273E-02
   1   15   26     3     5    1.6781E+05 -3.0286E+02   1.6811E+05  0.000E+00  0.000E+00  0.000E+00  3.41638E+01  1.638E-01  2.000E+01  2.000E+04 -1.514E-02
   1   16   27     3     6    1.6811E+05 -3.3951E+02   1.6845E+05  0.000E+00  0.000E+00  0.000E+00  3.32751E+01  1.640E-01  2.000E+01  2.000E+04 -1.698E-02
   1   17   28     3     7    1.6845E+05 -1.5017E+03   1.6995E+05  0.000E+00  0.000E+00  0.000E+00  3.23868E+01  1.646E-01  2.000E+01  2.000E+04 -7.509E-02
   1   18   29     3     8    1.6995E+05 -2.9232E+03   1.7288E+05  0.000E+00  0.000E+00  0.000E+00  3.14992E+01  1.659E-01  2.000E+01  2.000E+04 -1.462E-01
   1   18   30     3     9    1.7288E+05 -3.1685E+03   1.7605E+05  0.000E+00  0.000E+00  0.000E+00  3.06121E+01  1.676E-01  2.000E+01  2.000E+04 -1.584E-01



1
              HEAD IN LAYER   1 AT END OF TIME STEP   1 IN STRESS PERIOD    5
  ---------------------------------------------------------------------------

          1      2      3      4      5      6      7      8      9     10
         11     12     13     14     15     16     17     18     19     20
         21     22     23     24     25     26     27     28     29     30
 .........................................................................
   1  ****** ****** ****** ****** ****** ****** ****** ****** ****** ******
      ****** ****** ****** ****** ****** ****** ****** ****** ****** ******
      ****** ****** ****** ****** ****** ****** ****** ****** ****** ******
   2  ****** ****** ****** ****** ****** ****** ****** ****** ****** ******
      ****** ****** ****** ****** ****** ****** ****** ****** ****** ******
      ****** ****** ****** ****** ****** ****** ****** ****** ****** ******
   3  ****** ****** ****** ****** ****** ****** ****** ****** ****** ******
      ****** ****** ****** ****** ****** ****** ****** ****** ****** ******
      ****** ****** ****** ****** ****** ****** ****** ****** ****** ******
   4  ****** ****** ****** ****** ****** ****** ****** ****** ****** ******
      ****** ****** ****** ****** ****** ****** ****** ****** ****** ******
      ****** ****** ****** ****** ****** ****** ****** ****** ****** ******
   5  ****** ****** ****** ****** ****** ****** ****** ****** ****** ******
      ****** ****** ****** ****** ****** ****** ****** ****** ****** ******
      ****** ****** ****** ****** ****** ****** ****** ****** ****** ******
   6  ****** ****** ****** ****** ****** ****** ****** ****** ****** ******
      ****** ****** ****** ****** ****** ****** ****** ****** ****** ******
      ****** ****** ****** ****** ****** ****** ****** ****** ****** ******
   7  ****** ****** ****** ****** ****** ****** ****** ****** ****** ******
      ****** ****** ****** ****** ****** ****** ****** ****** ****** ******
      ****** ****** ****** ****** ****** ****** ****** ****** ****** ******
   8  ****** ****** ****** ****** ****** ****** ****** ****** ****** ******
      ****** ****** ****** ****** ****** ****** ****** ****** ****** ******
      ****** ****** ****** ****** ****** ****** ****** ****** ****** ******
   9  ****** ****** ****** ****** ****** ****** ****** ****** ****** ******
      ****** ****** ****** ****** ****** ****** ****** ****** ****** ******
      ****** ****** ****** ****** ****** ****** ****** ****** ****** ******
  10  ****** ****** ****** ****** ****** ****** ****** ****** ****** ******
      ****** ****** ****** ****** ****** ****** ****** ****** ****** ******
      ****** ****** ****** ****** ****** ****** ****** ****** ****** ******
  11  ****** ****** ****** ****** ****** ****** ****** ****** ****** ******
      ****** ****** ****** ****** ****** ****** ****** ****** ****** ******
      ****** ****** ****** ****** ****** ****** ****** ****** ****** ******
  12  ****** ****** ****** ****** ****** ****** ****** ****** ****** ******
      ****** ****** ****** ****** ****** ****** ****** ****** ****** ******
      ****** ****** ****** ****** ****** ****** ****** ****** ****** ******
  13  ****** ****** ****** ****** ****** ****** ****** ****** ****** ******
      ****** ****** ****** ****** ****** ****** ****** ****** ****** ******
      ****** ****** ****** ****** ****** ****** ****** ****** ****** ******
  14  ****** ****** ****** ****** ****** ****** ****** ****** ****** ******
      ****** ****** ****** ****** ****** ****** ****** ****** ****** ******
      ****** ****** ****** ****** ****** ****** ****** ****** ****** ******
  15  ****** ****** ****** ****** ****** ****** ****** ****** ****** ******
      ****** ****** ****** ****** ****** ****** ****** ****** ****** ******
      ****** ****** ****** ****** ****** ****** ****** ****** ****** ******
  16  ****** ****** ****** ****** ****** ****** ****** ****** ****** ******
      ****** ****** ****** ****** ****** ****** ****** ****** ****** ******
      ****** ****** ****** ****** ****** ****** ****** ****** ****** ******
  17  ****** ****** ****** ****** ****** ****** ****** ****** ****** ******
      ****** ****** ****** ****** ****** ****** ****** ****** ****** ******
      ****** ****** ****** ****** ****** ****** ****** ****** ****** ******
  18  ****** ****** ****** ****** ****** ****** ****** ****** ****** ******
      ****** ****** ****** ****** ****** ****** ****** ****** ****** ******
      ****** ****** ****** ****** ****** ****** ****** ****** ****** ******
  19  ****** ****** ****** ****** ****** ****** ****** ****** ****** ******
      ****** ****** ****** ****** ****** ****** ****** ****** ****** ******
      ****** ****** ****** ****** ****** ****** ****** ****** ****** ******
  20  ****** ****** ****** ****** ****** ****** ****** ****** ****** ******
      ****** ****** ****** ****** ****** ****** ****** ****** ****** ******
      ****** ****** ****** ****** ****** ****** ****** ****** ****** ******
  21  ****** ****** ****** ****** ****** ****** ****** ****** ****** ******
      ****** ****** ****** ****** ****** ****** ****** ****** ****** ******
      ****** ****** ****** ****** ****** ****** ****** ****** ****** ******
  22  ****** ****** ****** ****** ****** ****** ****** ****** ****** ******
      ****** ****** ****** ****** ****** ****** ****** ****** ****** ******
      ****** ****** ****** ****** ****** ****** ****** ****** ****** ******
  23  ****** ****** ****** ****** ****** ****** ****** ****** ****** ******
      ****** ****** ****** ****** ****** ****** ****** ****** ****** ******
      ****** ****** ****** ****** ****** ****** ****** ****** ****** ******
  24  ****** ****** ****** ****** ****** ****** ****** ****** ****** ******
      ****** ****** ****** ****** ****** ****** ****** ****** ****** ******
      ****** ****** ****** ****** ****** ****** ****** ****** ****** ******
  25  ****** ****** ****** ****** ****** ****** ****** ****** ****** ******
      ****** ****** ****** ****** ****** ****** ****** ****** ****** ******
      ****** ****** ****** ****** ****** ****** ****** ****** ****** ******

 HEAD WILL BE SAVED ON UNIT   51 AT END OF TIME STEP    1, STRESS PERIOD    5
1
  VOLUMETRIC BUDGET FOR ENTIRE MODEL AT END OF TIME STEP    1, STRESS PERIOD   5
  ------------------------------------------------------------------------------

     CUMULATIVE VOLUMES      L**3       RATES FOR THIS TIME STEP      L**3/T
     ------------------                 ------------------------

           IN:                                      IN:
           ---                                      ---
             STORAGE =    31756202.8546               STORAGE =       19101.5660
       CONSTANT HEAD =    10807138.6621         CONSTANT HEAD =       32186.6407
               WELLS =           0.0000                 WELLS =           0.0000
            RECHARGE =    10074000.0000              RECHARGE =       13800.0000
      STREAM LEAKAGE =     3879496.8443        STREAM LEAKAGE =       12703.0109

            TOTAL IN =    56516838.3610              TOTAL IN =       77791.2176

          OUT:                                     OUT:
          ----                                     ----
             STORAGE =        1138.3834               STORAGE =           0.0000
       CONSTANT HEAD =           0.0000         CONSTANT HEAD =           0.0000
               WELLS =    17842221.3199                 WELLS =       39042.0598
            RECHARGE =           0.0000              RECHARGE =           0.0000
      STREAM LEAKAGE =    38673480.9817        STREAM LEAKAGE =       38749.1611

           TOTAL OUT =    56516840.6850             TOTAL OUT =       77791.2209

            IN - OUT =          -2.3240              IN - OUT =      -3.3032E-03

 PERCENT DISCREPANCY =          -0.00     PERCENT DISCREPANCY =          -0.00






         TIME SUMMARY AT END OF TIME STEP    1 IN STRESS PERIOD    5
                    SECONDS     MINUTES      HOURS       DAYS        YEARS
                    -----------------------------------------------------------
   TIME STEP LENGTH 7.94880E+06 1.32480E+05  2208.0      92.000     0.25188    
 STRESS PERIOD TIME 7.94880E+06 1.32480E+05  2208.0      92.000     0.25188    
         TOTAL TIME 3.94848E+07 6.58080E+05  10968.      457.00      1.2512    
1
1
                            STRESS PERIOD NO.    6, LENGTH =   91.00000    
                            -----------------------------------------------

                              NUMBER OF TIME STEPS =     1

                               MULTIPLIER FOR DELT =     1.500

                            INITIAL TIME STEP SIZE =   91.00000    

 WELL NO.  LAYER   ROW   COL   STRESS RATE         
 --------------------------------------------------
      1      1      8     21      -8122.    
      2      1      4     14      -6617.    
      3      1     10     23     -0.1245E+05
      4      1     14     17     -0.1185E+05

      4 WELLS

                 RECHARGE =  2.000000E-03

 REUSING STREAM SEGMENT DATA FROM LAST STRESS PERIOD
 
 SOLVING FOR HEAD 


     7 CALLS TO PCG ROUTINE FOR TIME STEP   1 IN STRESS PERIOD    6
    26 TOTAL ITERATIONS

 OUTPUT CONTROL FOR STRESS PERIOD    6   TIME STEP    1
    SAVE BUDGET
    SAVE HEAD FOR ALL LAYERS
    PRINT HEAD FOR ALL LAYERS
 UBDSV2 SAVING "STREAMFLOW OUT  " ON UNIT  50 AT TIME STEP  1, STRESS PERIOD   6



 STREAM LISTING     PERIOD      6   STEP        1

 LAYER ROW COL. STREAM  RCH.  FLOW INTO     FLOW TO   FLOW OUT OF   OVRLND.     DIRECT     STREAM       STREAM     STREAM     STREAM   STREAMBED  STREAMBED
                SEG.NO.  NO.  STRM. RCH.    AQUIFER    STRM. RCH.    RUNOFF     PRECIP       ET          HEAD       DEPTH      WIDTH   CONDCTNC.   GRADIENT

   1   13    1     1     1    1.0000E+05 -2.2793E+03   1.0228E+05  0.000E+00  0.000E+00  0.000E+00  4.84070E+01  1.456E-01  2.000E+01  2.000E+04 -1.140E-01
   1   13    2     1     2    1.0228E+05 -3.3126E+03   1.0559E+05  0.000E+00  0.000E+00  0.000E+00  4.79321E+01  1.480E-01  2.000E+01  2.000E+04 -1.656E-01
   1   14    3     1     3    1.0559E+05 -6.4693E+02   1.0624E+05  0.000E+00  0.000E+00  0.000E+00  4.74565E+01  1.497E-01  2.000E+01  2.000E+04 -3.235E-02
   1   15    4     1     4    1.0624E+05 -6.2975E+02   1.0687E+05  0.000E+00  0.000E+00  0.000E+00  4.69798E+01  1.503E-01  2.000E+01  2.000E+04 -3.149E-02
   1   16    5     1     5    1.0687E+05 -2.2142E+03   1.0908E+05  0.000E+00  0.000E+00  0.000E+00  4.65037E+01  1.515E-01  2.000E+01  2.000E+04 -1.107E-01
   1   16    6     1     6    1.0908E+05 -1.3831E+03   1.1047E+05  0.000E+00  0.000E+00  0.000E+00  4.60280E+01  1.530E-01  2.000E+01  2.000E+04 -6.916E-02
   1   16    7     1     7    1.1047E+05 -1.3485E+03   1.1181E+05  0.000E+00  0.000E+00  0.000E+00  4.55518E+01  1.541E-01  2.000E+01  2.000E+04 -6.743E-02
   1   16    8     1     8    1.1181E+05 -1.3342E+03   1.1315E+05  0.000E+00  0.000E+00  0.000E+00  4.50757E+01  1.552E-01  2.000E+01  2.000E+04 -6.671E-02
   1   16    9     1     9    1.1315E+05 -1.3138E+03   1.1446E+05  0.000E+00  0.000E+00  0.000E+00  4.45995E+01  1.563E-01  2.000E+01  2.000E+04 -6.569E-02
   1   16   10     1    10    1.1446E+05 -1.2832E+03   1.1575E+05  0.000E+00  0.000E+00  0.000E+00  4.41233E+01  1.574E-01  2.000E+01  2.000E+04 -6.416E-02
   1   16   11     1    11    1.1575E+05 -1.2546E+03   1.1700E+05  0.000E+00  0.000E+00  0.000E+00  4.36471E+01  1.584E-01  2.000E+01  2.000E+04 -6.273E-02
   1   16   12     1    12    1.1700E+05 -1.9324E+03   1.1893E+05  0.000E+00  0.000E+00  0.000E+00  4.31711E+01  1.597E-01  2.000E+01  2.000E+04 -9.662E-02
   1   15   13     1    13    1.1893E+05 -1.5185E+03   1.2045E+05  0.000E+00  0.000E+00  0.000E+00  4.26952E+01  1.611E-01  2.000E+01  2.000E+04 -7.592E-02
   1   14   14     1    14    1.2045E+05 -1.0746E+03   1.2153E+05  0.000E+00  0.000E+00  0.000E+00  4.22190E+01  1.622E-01  2.000E+01  2.000E+04 -5.373E-02
   1   13   15     1    15    1.2153E+05 -5.2853E+02   1.2205E+05  0.000E+00  0.000E+00  0.000E+00  4.17424E+01  1.628E-01  2.000E+01  2.000E+04 -2.643E-02
   1   12   16     1    16    1.2205E+05 -1.3044E+03   1.2336E+05  0.000E+00  0.000E+00  0.000E+00  4.12658E+01  1.635E-01  2.000E+01  2.000E+04 -6.522E-02
   1   12   17     1    17    1.2336E+05  3.3859E+02   1.2302E+05  0.000E+00  0.000E+00  0.000E+00  4.07889E+01  1.639E-01  2.000E+01  2.000E+04  1.693E-02
   1   12   18     1    18    1.2302E+05 -4.7014E+00   1.2302E+05  0.000E+00  0.000E+00  0.000E+00  4.03115E+01  1.638E-01  2.000E+01  2.000E+04 -2.351E-04
   1   12   19     1    19    1.2302E+05 -1.8223E+02   1.2321E+05  0.000E+00  0.000E+00  0.000E+00  3.98343E+01  1.639E-01  2.000E+01  2.000E+04 -9.112E-03
   1   13   20     1    20    1.2321E+05  6.7488E+01   1.2314E+05  0.000E+00  0.000E+00  0.000E+00  3.93571E+01  1.639E-01  2.000E+01  2.000E+04  3.374E-03
   1   14   21     1    21    1.2314E+05 -8.2373E+02   1.2396E+05  0.000E+00  0.000E+00  0.000E+00  3.88801E+01  1.642E-01  2.000E+01  2.000E+04 -4.119E-02
   1   14   22     1    22    1.2396E+05  5.0829E+03   1.1888E+05  0.000E+00  0.000E+00  0.000E+00  3.84012E+01  1.625E-01  2.000E+01  2.000E+04  2.541E-01
   1    9   30     2     1    5.0000E+04 -6.7168E+02   5.0672E+04  0.000E+00  0.000E+00  0.000E+00  4.02413E+01  1.163E-01  2.000E+01  2.000E+04 -3.358E-02
   1    9   29     2     2    5.0672E+04 -9.1871E+02   5.1590E+04  0.000E+00  0.000E+00  0.000E+00  3.99924E+01  1.174E-01  2.000E+01  2.000E+04 -4.594E-02
   1    9   28     2     3    5.1590E+04 -1.0329E+03   5.2623E+04  0.000E+00  0.000E+00  0.000E+00  3.97438E+01  1.188E-01  2.000E+01  2.000E+04 -5.164E-02
   1    9   27     2     4    5.2623E+04 -1.4172E+03   5.4040E+04  0.000E+00  0.000E+00  0.000E+00  3.94954E+01  1.204E-01  2.000E+01  2.000E+04 -7.086E-02
   1   10   26     2     5    5.4040E+04 -1.0776E+01   5.4051E+04  0.000E+00  0.000E+00  0.000E+00  3.92464E+01  1.214E-01  2.000E+01  2.000E+04 -5.388E-04
   1   11   25     2     6    5.4051E+04  1.0709E+03   5.2980E+04  0.000E+00  0.000E+00  0.000E+00  3.89957E+01  1.207E-01  2.000E+01  2.000E+04  5.355E-02
   1   12   24     2     7    5.2980E+04  1.3087E+03   5.1672E+04  0.000E+00  0.000E+00  0.000E+00  3.87441E+01  1.191E-01  2.000E+01  2.000E+04  6.543E-02
   1   13   23     2     8    5.1672E+04  5.4727E+01   5.1617E+04  0.000E+00  0.000E+00  0.000E+00  3.84931E+01  1.181E-01  2.000E+01  2.000E+04  2.736E-03
   1   14   22     2     9    5.1617E+04  1.8957E+03   4.9721E+04  0.000E+00  0.000E+00  0.000E+00  3.82418E+01  1.168E-01  2.000E+01  2.000E+04  9.478E-02
   1   14   22     3     1    1.6860E+05 -8.4954E+03   1.7710E+05  0.000E+00  0.000E+00  0.000E+00  3.77222E+01  1.667E-01  2.000E+01  2.000E+04 -4.248E-01
   1   15   23     3     2    1.7710E+05 -6.1577E+02   1.7771E+05  0.000E+00  0.000E+00  0.000E+00  3.68360E+01  1.693E-01  2.000E+01  2.000E+04 -3.079E-02
   1   15   24     3     3    1.7771E+05 -3.8162E+02   1.7809E+05  0.000E+00  0.000E+00  0.000E+00  3.59474E+01  1.696E-01  2.000E+01  2.000E+04 -1.908E-02
   1   15   25     3     4    1.7809E+05 -3.8140E+02   1.7848E+05  0.000E+00  0.000E+00  0.000E+00  3.50587E+01  1.698E-01  2.000E+01  2.000E+04 -1.907E-02
   1   15   26     3     5    1.7848E+05 -4.5451E+02   1.7893E+05  0.000E+00  0.000E+00  0.000E+00  3.41701E+01  1.701E-01  2.000E+01  2.000E+04 -2.273E-02
   1   16   27     3     6    1.7893E+05 -5.0873E+02   1.7944E+05  0.000E+00  0.000E+00  0.000E+00  3.32814E+01  1.703E-01  2.000E+01  2.000E+04 -2.544E-02
   1   17   28     3     7    1.7944E+05 -1.9665E+03   1.8141E+05  0.000E+00  0.000E+00  0.000E+00  3.23933E+01  1.710E-01  2.000E+01  2.000E+04 -9.832E-02
   1   18   29     3     8    1.8141E+05 -3.3673E+03   1.8477E+05  0.000E+00  0.000E+00  0.000E+00  3.15059E+01  1.725E-01  2.000E+01  2.000E+04 -1.684E-01
   1   18   30     3     9    1.8477E+05 -3.5275E+03   1.8830E+05  0.000E+00  0.000E+00  0.000E+00  3.06189E+01  1.745E-01  2.000E+01  2.000E+04 -1.764E-01



1
              HEAD IN LAYER   1 AT END OF TIME STEP   1 IN STRESS PERIOD    6
  ---------------------------------------------------------------------------

          1      2      3      4      5      6      7      8      9     10
         11     12     13     14     15     16     17     18     19     20
         21     22     23     24     25     26     27     28     29     30
 .........................................................................
   1  ****** ****** ****** ****** ****** ****** ****** ****** ****** ******
      ****** ****** ****** ****** ****** ****** ****** ****** ****** ******
      ****** ****** ****** ****** ****** ****** ****** ****** ****** ******
   2  ****** ****** ****** ****** ****** ****** ****** ****** ****** ******
      ****** ****** ****** ****** ****** ****** ****** ****** ****** ******
      ****** ****** ****** ****** ****** ****** ****** ****** ****** ******
   3  ****** ****** ****** ****** ****** ****** ****** ****** ****** ******
      ****** ****** ****** ****** ****** ****** ****** ****** ****** ******
      ****** ****** ****** ****** ****** ****** ****** ****** ****** ******
   4  ****** ****** ****** ****** ****** ****** ****** ****** ****** ******
      ****** ****** ****** ****** ****** ****** ****** ****** ****** ******
      ****** ****** ****** ****** ****** ****** ****** ****** ****** ******
   5  ****** ****** ****** ****** ****** ****** ****** ****** ****** ******
      ****** ****** ****** ****** ****** ****** ****** ****** ****** ******
      ****** ****** ****** ****** ****** ****** ****** ****** ****** ******
   6  ****** ****** ****** ****** ****** ****** ****** ****** ****** ******
      ****** ****** ****** ****** ****** ****** ****** ****** ****** ******
      ****** ****** ****** ****** ****** ****** ****** ****** ****** ******
   7  ****** ****** ****** ****** ****** ****** ****** ****** ****** ******
      ****** ****** ****** ****** ****** ****** ****** ****** ****** ******
      ****** ****** ****** ****** ****** ****** ****** ****** ****** ******
   8  ****** ****** ****** ****** ****** ****** ****** ****** ****** ******
      ****** ****** ****** ****** ****** ****** ****** ****** ****** ******
      ****** ****** ****** ****** ****** ****** ****** ****** ****** ******
   9  ****** ****** ****** ****** ****** ****** ****** ****** ****** ******
      ****** ****** ****** ****** ****** ****** ****** ****** ****** ******
      ****** ****** ****** ****** ****** ****** ****** ****** ****** ******
  10  ****** ****** ****** ****** ****** ****** ****** ****** ****** ******
      ****** ****** ****** ****** ****** ****** ****** ****** ****** ******
      ****** ****** ****** ****** ****** ****** ****** ****** ****** ******
  11  ****** ****** ****** ****** ****** ****** ****** ****** ****** ******
      ****** ****** ****** ****** ****** ****** ****** ****** ****** ******
      ****** ****** ****** ****** ****** ****** ****** ****** ****** ******
  12  ****** ****** ****** ****** ****** ****** ****** ****** ****** ******
      ****** ****** ****** ****** ****** ****** ****** ****** ****** ******
      ****** ****** ****** ****** ****** ****** ****** ****** ****** ******
  13  ****** ****** ****** ****** ****** ****** ****** ****** ****** ******
      ****** ****** ****** ****** ****** ****** ****** ****** ****** ******
      ****** ****** ****** ****** ****** ****** ****** ****** ****** ******
  14  ****** ****** ****** ****** ****** ****** ****** ****** ****** ******
      ****** ****** ****** ****** ****** ****** ****** ****** ****** ******
      ****** ****** ****** ****** ****** ****** ****** ****** ****** ******
  15  ****** ****** ****** ****** ****** ****** ****** ****** ****** ******
      ****** ****** ****** ****** ****** ****** ****** ****** ****** ******
      ****** ****** ****** ****** ****** ****** ****** ****** ****** ******
  16  ****** ****** ****** ****** ****** ****** ****** ****** ****** ******
      ****** ****** ****** ****** ****** ****** ****** ****** ****** ******
      ****** ****** ****** ****** ****** ****** ****** ****** ****** ******
  17  ****** ****** ****** ****** ****** ****** ****** ****** ****** ******
      ****** ****** ****** ****** ****** ****** ****** ****** ****** ******
      ****** ****** ****** ****** ****** ****** ****** ****** ****** ******
  18  ****** ****** ****** ****** ****** ****** ****** ****** ****** ******
      ****** ****** ****** ****** ****** ****** ****** ****** ****** ******
      ****** ****** ****** ****** ****** ****** ****** ****** ****** ******
  19  ****** ****** ****** ****** ****** ****** ****** ****** ****** ******
      ****** ****** ****** ****** ****** ****** ****** ****** ****** ******
      ****** ****** ****** ****** ****** ****** ****** ****** ****** ******
  20  ****** ****** ****** ****** ****** ****** ****** ****** ****** ******
      ****** ****** ****** ****** ****** ****** ****** ****** ****** ******
      ****** ****** ****** ****** ****** ****** ****** ****** ****** ******
  21  ****** ****** ****** ****** ****** ****** ****** ****** ****** ******
      ****** ****** ****** ****** ****** ****** ****** ****** ****** ******
      ****** ****** ****** ****** ****** ****** ****** ****** ****** ******
  22  ****** ****** ****** ****** ****** ****** ****** ****** ****** ******
      ****** ****** ****** ****** ****** ****** ****** ****** ****** ******
      ****** ****** ****** ****** ****** ****** ****** ****** ****** ******
  23  ****** ****** ****** ****** ****** ****** ****** ****** ****** ******
      ****** ****** ****** ****** ****** ****** ****** ****** ****** ******
      ****** ****** ****** ****** ****** ****** ****** ****** ****** ******
  24  ****** ****** ****** ****** ****** ****** ****** ****** ****** ******
      ****** ****** ****** ****** ****** ****** ****** ****** ****** ******
      ****** ****** ****** ****** ****** ****** ****** ****** ****** ******
  25  ****** ****** ****** ****** ****** ****** ****** ****** ****** ******
      ****** ****** ****** ****** ****** ****** ****** ****** ****** ******
      ****** ****** ****** ****** ****** ****** ****** ****** ****** ******

 HEAD WILL BE SAVED ON UNIT   51 AT END OF TIME STEP    1, STRESS PERIOD    6
1
  VOLUMETRIC BUDGET FOR ENTIRE MODEL AT END OF TIME STEP    1, STRESS PERIOD   6
  ------------------------------------------------------------------------------

     CUMULATIVE VOLUMES      L**3       RATES FOR THIS TIME STEP      L**3/T
     ------------------                 ------------------------

           IN:                                      IN:
           ---                                      ---
             STORAGE =    31756865.6680               STORAGE =           7.2837
       CONSTANT HEAD =    13569134.8758         CONSTANT HEAD =       30351.6067
               WELLS =           0.0000                 WELLS =           0.0000
            RECHARGE =    15097200.0000              RECHARGE =       55200.0000
      STREAM LEAKAGE =     4773022.8158        STREAM LEAKAGE =        9818.9667

            TOTAL IN =    65196223.3596              TOTAL IN =       95377.8571

          OUT:                                     OUT:
          ----                                     ----
             STORAGE =      748846.3808               STORAGE =        8216.5714
       CONSTANT HEAD =           0.0000         CONSTANT HEAD =           0.0000
               WELLS =    21395048.7600                 WELLS =       39042.0598
            RECHARGE =           0.0000              RECHARGE =           0.0000
      STREAM LEAKAGE =    43052330.2779        STREAM LEAKAGE =       48119.2230

           TOTAL OUT =    65196225.4187             TOTAL OUT =       95377.8542

            IN - OUT =          -2.0592              IN - OUT =       2.9109E-03

 PERCENT DISCREPANCY =          -0.00     PERCENT DISCREPANCY =           0.00






         TIME SUMMARY AT END OF TIME STEP    1 IN STRESS PERIOD    6
                    SECONDS     MINUTES      HOURS       DAYS        YEARS
                    -----------------------------------------------------------
   TIME STEP LENGTH 7.86240E+06 1.31040E+05  2184.0      91.000     0.24914    
 STRESS PERIOD TIME 7.86240E+06 1.31040E+05  2184.0      91.000     0.24914    
         TOTAL TIME 4.73472E+07 7.89120E+05  13152.      548.00      1.5003    
1
1
                            STRESS PERIOD NO.    7, LENGTH =   91.00000    
                            -----------------------------------------------

                              NUMBER OF TIME STEPS =     1

                               MULTIPLIER FOR DELT =     1.500

                            INITIAL TIME STEP SIZE =   91.00000    

 WELL NO.  LAYER   ROW   COL   STRESS RATE         
 --------------------------------------------------
      1      1      8     21      -8122.    
      2      1      4     14      -6617.    
      3      1     10     23     -0.1245E+05
      4      1     14     17     -0.1185E+05

      4 WELLS

                 RECHARGE =   0.00000    

 REUSING STREAM SEGMENT DATA FROM LAST STRESS PERIOD
 
 SOLVING FOR HEAD 


     7 CALLS TO PCG ROUTINE FOR TIME STEP   1 IN STRESS PERIOD    7
    26 TOTAL ITERATIONS

 OUTPUT CONTROL FOR STRESS PERIOD    7   TIME STEP    1
    SAVE BUDGET
    SAVE HEAD FOR ALL LAYERS
    PRINT HEAD FOR ALL LAYERS
 UBDSV2 SAVING "STREAMFLOW OUT  " ON UNIT  50 AT TIME STEP  1, STRESS PERIOD   7



 STREAM LISTING     PERIOD      7   STEP        1

 LAYER ROW COL. STREAM  RCH.  FLOW INTO     FLOW TO   FLOW OUT OF   OVRLND.     DIRECT     STREAM       STREAM     STREAM     STREAM   STREAMBED  STREAMBED
                SEG.NO.  NO.  STRM. RCH.    AQUIFER    STRM. RCH.    RUNOFF     PRECIP       ET          HEAD       DEPTH      WIDTH   CONDCTNC.   GRADIENT

   1   13    1     1     1    1.0000E+05 -1.6007E+03   1.0160E+05  0.000E+00  0.000E+00  0.000E+00  4.84067E+01  1.453E-01  2.000E+01  2.000E+04 -8.003E-02
   1   13    2     1     2    1.0160E+05 -2.5530E+03   1.0415E+05  0.000E+00  0.000E+00  0.000E+00  4.79312E+01  1.471E-01  2.000E+01  2.000E+04 -1.276E-01
   1   14    3     1     3    1.0415E+05 -3.9324E+02   1.0455E+05  0.000E+00  0.000E+00  0.000E+00  4.74552E+01  1.484E-01  2.000E+01  2.000E+04 -1.966E-02
   1   15    4     1     4    1.0455E+05 -3.6579E+02   1.0491E+05  0.000E+00  0.000E+00  0.000E+00  4.69783E+01  1.487E-01  2.000E+01  2.000E+04 -1.829E-02
   1   16    5     1     5    1.0491E+05 -1.4610E+03   1.0637E+05  0.000E+00  0.000E+00  0.000E+00  4.65018E+01  1.495E-01  2.000E+01  2.000E+04 -7.305E-02
   1   16    6     1     6    1.0637E+05 -9.2803E+02   1.0730E+05  0.000E+00  0.000E+00  0.000E+00  4.60255E+01  1.505E-01  2.000E+01  2.000E+04 -4.640E-02
   1   16    7     1     7    1.0730E+05 -9.1166E+02   1.0821E+05  0.000E+00  0.000E+00  0.000E+00  4.55490E+01  1.513E-01  2.000E+01  2.000E+04 -4.558E-02
   1   16    8     1     8    1.0821E+05 -9.0328E+02   1.0912E+05  0.000E+00  0.000E+00  0.000E+00  4.50725E+01  1.520E-01  2.000E+01  2.000E+04 -4.516E-02
   1   16    9     1     9    1.0912E+05 -8.8616E+02   1.1000E+05  0.000E+00  0.000E+00  0.000E+00  4.45960E+01  1.528E-01  2.000E+01  2.000E+04 -4.431E-02
   1   16   10     1    10    1.1000E+05 -8.5828E+02   1.1086E+05  0.000E+00  0.000E+00  0.000E+00  4.41194E+01  1.535E-01  2.000E+01  2.000E+04 -4.291E-02
   1   16   11     1    11    1.1086E+05 -8.2896E+02   1.1169E+05  0.000E+00  0.000E+00  0.000E+00  4.36429E+01  1.542E-01  2.000E+01  2.000E+04 -4.145E-02
   1   16   12     1    12    1.1169E+05 -1.2163E+03   1.1291E+05  0.000E+00  0.000E+00  0.000E+00  4.31664E+01  1.551E-01  2.000E+01  2.000E+04 -6.081E-02
   1   15   13     1    13    1.1291E+05 -7.4620E+02   1.1365E+05  0.000E+00  0.000E+00  0.000E+00  4.26900E+01  1.559E-01  2.000E+01  2.000E+04 -3.731E-02
   1   14   14     1    14    1.1365E+05 -2.7137E+02   1.1392E+05  0.000E+00  0.000E+00  0.000E+00  4.22131E+01  1.563E-01  2.000E+01  2.000E+04 -1.357E-02
   1   13   15     1    15    1.1392E+05  2.7968E+02   1.1364E+05  0.000E+00  0.000E+00  0.000E+00  4.17359E+01  1.563E-01  2.000E+01  2.000E+04  1.398E-02
   1   12   16     1    16    1.1364E+05 -4.9687E+02   1.1414E+05  0.000E+00  0.000E+00  0.000E+00  4.12587E+01  1.564E-01  2.000E+01  2.000E+04 -2.484E-02
   1   12   17     1    17    1.1414E+05  9.2263E+02   1.1322E+05  0.000E+00  0.000E+00  0.000E+00  4.07812E+01  1.562E-01  2.000E+01  2.000E+04  4.613E-02
   1   12   18     1    18    1.1322E+05  5.6425E+02   1.1265E+05  0.000E+00  0.000E+00  0.000E+00  4.03033E+01  1.556E-01  2.000E+01  2.000E+04  2.821E-02
   1   12   19     1    19    1.1265E+05  5.1351E+02   1.1214E+05  0.000E+00  0.000E+00  0.000E+00  3.98256E+01  1.552E-01  2.000E+01  2.000E+04  2.568E-02
   1   13   20     1    20    1.1214E+05  7.3951E+02   1.1140E+05  0.000E+00  0.000E+00  0.000E+00  3.93478E+01  1.546E-01  2.000E+01  2.000E+04  3.698E-02
   1   14   21     1    21    1.1140E+05 -1.6423E+02   1.1157E+05  0.000E+00  0.000E+00  0.000E+00  3.88703E+01  1.544E-01  2.000E+01  2.000E+04 -8.212E-03
   1   14   22     1    22    1.1157E+05  5.2413E+03   1.0632E+05  0.000E+00  0.000E+00  0.000E+00  3.83909E+01  1.523E-01  2.000E+01  2.000E+04  2.621E-01
   1    9   30     2     1    5.0000E+04 -1.5471E+02   5.0155E+04  0.000E+00  0.000E+00  0.000E+00  4.02410E+01  1.160E-01  2.000E+01  2.000E+04 -7.735E-03
   1    9   29     2     2    5.0155E+04 -4.0330E+02   5.0558E+04  0.000E+00  0.000E+00  0.000E+00  3.99914E+01  1.164E-01  2.000E+01  2.000E+04 -2.017E-02
   1    9   28     2     3    5.0558E+04 -5.1551E+02   5.1074E+04  0.000E+00  0.000E+00  0.000E+00  3.97420E+01  1.170E-01  2.000E+01  2.000E+04 -2.578E-02
   1    9   27     2     4    5.1074E+04 -7.1168E+02   5.1785E+04  0.000E+00  0.000E+00  0.000E+00  3.94928E+01  1.178E-01  2.000E+01  2.000E+04 -3.558E-02
   1   10   26     2     5    5.1785E+04  6.9487E+02   5.1090E+04  0.000E+00  0.000E+00  0.000E+00  3.92429E+01  1.179E-01  2.000E+01  2.000E+04  3.474E-02
   1   11   25     2     6    5.1090E+04  1.7472E+03   4.9343E+04  0.000E+00  0.000E+00  0.000E+00  3.89912E+01  1.162E-01  2.000E+01  2.000E+04  8.736E-02
   1   12   24     2     7    4.9343E+04  1.9254E+03   4.7418E+04  0.000E+00  0.000E+00  0.000E+00  3.87386E+01  1.136E-01  2.000E+01  2.000E+04  9.627E-02
   1   13   23     2     8    4.7418E+04  2.4738E+02   4.7170E+04  0.000E+00  0.000E+00  0.000E+00  3.84871E+01  1.121E-01  2.000E+01  2.000E+04  1.237E-02
   1   14   22     2     9    4.7170E+04  2.1301E+03   4.5040E+04  0.000E+00  0.000E+00  0.000E+00  3.82354E+01  1.104E-01  2.000E+01  2.000E+04  1.065E-01
   1   14   22     3     1    1.5136E+05 -8.3369E+03   1.5970E+05  0.000E+00  0.000E+00  0.000E+00  3.77120E+01  1.565E-01  2.000E+01  2.000E+04 -4.168E-01
   1   15   23     3     2    1.5970E+05 -4.1028E+02   1.6011E+05  0.000E+00  0.000E+00  0.000E+00  3.68257E+01  1.591E-01  2.000E+01  2.000E+04 -2.051E-02
   1   15   24     3     3    1.6011E+05 -2.0855E+02   1.6032E+05  0.000E+00  0.000E+00  0.000E+00  3.59370E+01  1.593E-01  2.000E+01  2.000E+04 -1.043E-02
   1   15   25     3     4    1.6032E+05 -2.0521E+02   1.6053E+05  0.000E+00  0.000E+00  0.000E+00  3.50483E+01  1.594E-01  2.000E+01  2.000E+04 -1.026E-02
   1   15   26     3     5    1.6053E+05 -2.5367E+02   1.6078E+05  0.000E+00  0.000E+00  0.000E+00  3.41595E+01  1.595E-01  2.000E+01  2.000E+04 -1.268E-02
   1   16   27     3     6    1.6078E+05 -2.7703E+02   1.6106E+05  0.000E+00  0.000E+00  0.000E+00  3.32708E+01  1.597E-01  2.000E+01  2.000E+04 -1.385E-02
   1   17   28     3     7    1.6106E+05 -1.3272E+03   1.6238E+05  0.000E+00  0.000E+00  0.000E+00  3.23824E+01  1.602E-01  2.000E+01  2.000E+04 -6.636E-02
   1   18   29     3     8    1.6238E+05 -2.6858E+03   1.6507E+05  0.000E+00  0.000E+00  0.000E+00  3.14947E+01  1.614E-01  2.000E+01  2.000E+04 -1.343E-01
   1   18   30     3     9    1.6507E+05 -3.0018E+03   1.6807E+05  0.000E+00  0.000E+00  0.000E+00  3.06075E+01  1.630E-01  2.000E+01  2.000E+04 -1.501E-01



1
              HEAD IN LAYER   1 AT END OF TIME STEP   1 IN STRESS PERIOD    7
  ---------------------------------------------------------------------------

          1      2      3      4      5      6      7      8      9     10
         11     12     13     14     15     16     17     18     19     20
         21     22     23     24     25     26     27     28     29     30
 .........................................................................
   1  ****** ****** ****** ****** ****** ****** ****** ****** ****** ******
      ****** ****** ****** ****** ****** ****** ****** ****** ****** ******
      ****** ****** ****** ****** ****** ****** ****** ****** ****** ******
   2  ****** ****** ****** ****** ****** ****** ****** ****** ****** ******
      ****** ****** ****** ****** ****** ****** ****** ****** ****** ******
      ****** ****** ****** ****** ****** ****** ****** ****** ****** ******
   3  ****** ****** ****** ****** ****** ****** ****** ****** ****** ******
      ****** ****** ****** ****** ****** ****** ****** ****** ****** ******
      ****** ****** ****** ****** ****** ****** ****** ****** ****** ******
   4  ****** ****** ****** ****** ****** ****** ****** ****** ****** ******
      ****** ****** ****** ****** ****** ****** ****** ****** ****** ******
      ****** ****** ****** ****** ****** ****** ****** ****** ****** ******
   5  ****** ****** ****** ****** ****** ****** ****** ****** ****** ******
      ****** ****** ****** ****** ****** ****** ****** ****** ****** ******
      ****** ****** ****** ****** ****** ****** ****** ****** ****** ******
   6  ****** ****** ****** ****** ****** ****** ****** ****** ****** ******
      ****** ****** ****** ****** ****** ****** ****** ****** ****** ******
      ****** ****** ****** ****** ****** ****** ****** ****** ****** ******
   7  ****** ****** ****** ****** ****** ****** ****** ****** ****** ******
      ****** ****** ****** ****** ****** ****** ****** ****** ****** ******
      ****** ****** ****** ****** ****** ****** ****** ****** ****** ******
   8  ****** ****** ****** ****** ****** ****** ****** ****** ****** ******
      ****** ****** ****** ****** ****** ****** ****** ****** ****** ******
      ****** ****** ****** ****** ****** ****** ****** ****** ****** ******
   9  ****** ****** ****** ****** ****** ****** ****** ****** ****** ******
      ****** ****** ****** ****** ****** ****** ****** ****** ****** ******
      ****** ****** ****** ****** ****** ****** ****** ****** ****** ******
  10  ****** ****** ****** ****** ****** ****** ****** ****** ****** ******
      ****** ****** ****** ****** ****** ****** ****** ****** ****** ******
      ****** ****** ****** ****** ****** ****** ****** ****** ****** ******
  11  ****** ****** ****** ****** ****** ****** ****** ****** ****** ******
      ****** ****** ****** ****** ****** ****** ****** ****** ****** ******
      ****** ****** ****** ****** ****** ****** ****** ****** ****** ******
  12  ****** ****** ****** ****** ****** ****** ****** ****** ****** ******
      ****** ****** ****** ****** ****** ****** ****** ****** ****** ******
      ****** ****** ****** ****** ****** ****** ****** ****** ****** ******
  13  ****** ****** ****** ****** ****** ****** ****** ****** ****** ******
      ****** ****** ****** ****** ****** ****** ****** ****** ****** ******
      ****** ****** ****** ****** ****** ****** ****** ****** ****** ******
  14  ****** ****** ****** ****** ****** ****** ****** ****** ****** ******
      ****** ****** ****** ****** ****** ****** ****** ****** ****** ******
      ****** ****** ****** ****** ****** ****** ****** ****** ****** ******
  15  ****** ****** ****** ****** ****** ****** ****** ****** ****** ******
      ****** ****** ****** ****** ****** ****** ****** ****** ****** ******
      ****** ****** ****** ****** ****** ****** ****** ****** ****** ******
  16  ****** ****** ****** ****** ****** ****** ****** ****** ****** ******
      ****** ****** ****** ****** ****** ****** ****** ****** ****** ******
      ****** ****** ****** ****** ****** ****** ****** ****** ****** ******
  17  ****** ****** ****** ****** ****** ****** ****** ****** ****** ******
      ****** ****** ****** ****** ****** ****** ****** ****** ****** ******
      ****** ****** ****** ****** ****** ****** ****** ****** ****** ******
  18  ****** ****** ****** ****** ****** ****** ****** ****** ****** ******
      ****** ****** ****** ****** ****** ****** ****** ****** ****** ******
      ****** ****** ****** ****** ****** ****** ****** ****** ****** ******
  19  ****** ****** ****** ****** ****** ****** ****** ****** ****** ******
      ****** ****** ****** ****** ****** ****** ****** ****** ****** ******
      ****** ****** ****** ****** ****** ****** ****** ****** ****** ******
  20  ****** ****** ****** ****** ****** ****** ****** ****** ****** ******
      ****** ****** ****** ****** ****** ****** ****** ****** ****** ******
      ****** ****** ****** ****** ****** ****** ****** ****** ****** ******
  21  ****** ****** ****** ****** ****** ****** ****** ****** ****** ******
      ****** ****** ****** ****** ****** ****** ****** ****** ****** ******
      ****** ****** ****** ****** ****** ****** ****** ****** ****** ******
  22  ****** ****** ****** ****** ****** ****** ****** ****** ****** ******
      ****** ****** ****** ****** ****** ****** ****** ****** ****** ******
      ****** ****** ****** ****** ****** ****** ****** ****** ****** ******
  23  ****** ****** ****** ****** ****** ****** ****** ****** ****** ******
      ****** ****** ****** ****** ****** ****** ****** ****** ****** ******
      ****** ****** ****** ****** ****** ****** ****** ****** ****** ******
  24  ****** ****** ****** ****** ****** ****** ****** ****** ****** ******
      ****** ****** ****** ****** ****** ****** ****** ****** ****** ******
      ****** ****** ****** ****** ****** ****** ****** ****** ****** ******
  25  ****** ****** ****** ****** ****** ****** ****** ****** ****** ******
      ****** ****** ****** ****** ****** ****** ****** ****** ****** ******
      ****** ****** ****** ****** ****** ****** ****** ****** ****** ******

 HEAD WILL BE SAVED ON UNIT   51 AT END OF TIME STEP    1, STRESS PERIOD    7
1
  VOLUMETRIC BUDGET FOR ENTIRE MODEL AT END OF TIME STEP    1, STRESS PERIOD   7
  ------------------------------------------------------------------------------

     CUMULATIVE VOLUMES      L**3       RATES FOR THIS TIME STEP      L**3/T
     ------------------                 ------------------------

           IN:                                      IN:
           ---                                      ---
             STORAGE =    33830304.9776               STORAGE =       22785.0474
       CONSTANT HEAD =    16692957.0384         CONSTANT HEAD =       34327.7161
               WELLS =           0.0000                 WELLS =           0.0000
            RECHARGE =    15097200.0000              RECHARGE =           0.0000
      STREAM LEAKAGE =     6138556.8022        STREAM LEAKAGE =       15005.8680

            TOTAL IN =    71759018.8182              TOTAL IN =       72118.6314

          OUT:                                     OUT:
          ----                                     ----
             STORAGE =      748846.3808               STORAGE =           0.0000
       CONSTANT HEAD =           0.0000         CONSTANT HEAD =           0.0000
               WELLS =    24947876.2000                 WELLS =       39042.0598
            RECHARGE =           0.0000              RECHARGE =           0.0000
      STREAM LEAKAGE =    46062298.8123        STREAM LEAKAGE =       33076.5773

           TOTAL OUT =    71759021.3932             TOTAL OUT =       72118.6371

            IN - OUT =          -2.5750              IN - OUT =      -5.6687E-03

 PERCENT DISCREPANCY =          -0.00     PERCENT DISCREPANCY =          -0.00






         TIME SUMMARY AT END OF TIME STEP    1 IN STRESS PERIOD    7
                    SECONDS     MINUTES      HOURS       DAYS        YEARS
                    -----------------------------------------------------------
   TIME STEP LENGTH 7.86240E+06 1.31040E+05  2184.0      91.000     0.24914    
 STRESS PERIOD TIME 7.86240E+06 1.31040E+05  2184.0      91.000     0.24914    
         TOTAL TIME 5.52096E+07 9.20160E+05  15336.      639.00      1.7495    
1
1
                            STRESS PERIOD NO.    8, LENGTH =   91.00000    
                            -----------------------------------------------

                              NUMBER OF TIME STEPS =     1

                               MULTIPLIER FOR DELT =     1.500

                            INITIAL TIME STEP SIZE =   91.00000    

 WELL NO.  LAYER   ROW   COL   STRESS RATE         
 --------------------------------------------------
      1      1      8     21      -8122.    
      2      1      4     14      -6617.    
      3      1     10     23     -0.1245E+05
      4      1     14     17     -0.1185E+05

      4 WELLS

                 RECHARGE =  1.000000E-03

 REUSING STREAM SEGMENT DATA FROM LAST STRESS PERIOD
 
 SOLVING FOR HEAD 


     6 CALLS TO PCG ROUTINE FOR TIME STEP   1 IN STRESS PERIOD    8
    22 TOTAL ITERATIONS

 OUTPUT CONTROL FOR STRESS PERIOD    8   TIME STEP    1
    SAVE BUDGET
    SAVE HEAD FOR ALL LAYERS
    PRINT HEAD FOR ALL LAYERS
 UBDSV2 SAVING "STREAMFLOW OUT  " ON UNIT  50 AT TIME STEP  1, STRESS PERIOD   8



 STREAM LISTING     PERIOD      8   STEP        1

 LAYER ROW COL. STREAM  RCH.  FLOW INTO     FLOW TO   FLOW OUT OF   OVRLND.     DIRECT     STREAM       STREAM     STREAM     STREAM   STREAMBED  STREAMBED
                SEG.NO.  NO.  STRM. RCH.    AQUIFER    STRM. RCH.    RUNOFF     PRECIP       ET          HEAD       DEPTH      WIDTH   CONDCTNC.   GRADIENT

   1   13    1     1     1    1.0000E+05 -1.6648E+03   1.0166E+05  0.000E+00  0.000E+00  0.000E+00  4.84067E+01  1.454E-01  2.000E+01  2.000E+04 -8.324E-02
   1   13    2     1     2    1.0166E+05 -2.6151E+03   1.0428E+05  0.000E+00  0.000E+00  0.000E+00  4.79313E+01  1.472E-01  2.000E+01  2.000E+04 -1.308E-01
   1   14    3     1     3    1.0428E+05 -4.5585E+02   1.0474E+05  0.000E+00  0.000E+00  0.000E+00  4.74553E+01  1.485E-01  2.000E+01  2.000E+04 -2.279E-02
   1   15    4     1     4    1.0474E+05 -4.3339E+02   1.0517E+05  0.000E+00  0.000E+00  0.000E+00  4.69785E+01  1.489E-01  2.000E+01  2.000E+04 -2.167E-02
   1   16    5     1     5    1.0517E+05 -1.6347E+03   1.0680E+05  0.000E+00  0.000E+00  0.000E+00  4.65021E+01  1.498E-01  2.000E+01  2.000E+04 -8.173E-02
   1   16    6     1     6    1.0680E+05 -1.0343E+03   1.0784E+05  0.000E+00  0.000E+00  0.000E+00  4.60259E+01  1.509E-01  2.000E+01  2.000E+04 -5.171E-02
   1   16    7     1     7    1.0784E+05 -1.0128E+03   1.0885E+05  0.000E+00  0.000E+00  0.000E+00  4.55495E+01  1.518E-01  2.000E+01  2.000E+04 -5.064E-02
   1   16    8     1     8    1.0885E+05 -1.0036E+03   1.0985E+05  0.000E+00  0.000E+00  0.000E+00  4.50731E+01  1.526E-01  2.000E+01  2.000E+04 -5.018E-02
   1   16    9     1     9    1.0985E+05 -9.8776E+02   1.1084E+05  0.000E+00  0.000E+00  0.000E+00  4.45966E+01  1.535E-01  2.000E+01  2.000E+04 -4.939E-02
   1   16   10     1    10    1.1084E+05 -9.6267E+02   1.1180E+05  0.000E+00  0.000E+00  0.000E+00  4.41202E+01  1.543E-01  2.000E+01  2.000E+04 -4.813E-02
   1   16   11     1    11    1.1180E+05 -9.3683E+02   1.1274E+05  0.000E+00  0.000E+00  0.000E+00  4.36437E+01  1.551E-01  2.000E+01  2.000E+04 -4.684E-02
   1   16   12     1    12    1.1274E+05 -1.3771E+03   1.1412E+05  0.000E+00  0.000E+00  0.000E+00  4.31674E+01  1.560E-01  2.000E+01  2.000E+04 -6.886E-02
   1   15   13     1    13    1.1412E+05 -9.1088E+02   1.1503E+05  0.000E+00  0.000E+00  0.000E+00  4.26910E+01  1.570E-01  2.000E+01  2.000E+04 -4.554E-02
   1   14   14     1    14    1.1503E+05 -4.2675E+02   1.1546E+05  0.000E+00  0.000E+00  0.000E+00  4.22143E+01  1.575E-01  2.000E+01  2.000E+04 -2.134E-02
   1   13   15     1    15    1.1546E+05  1.3935E+02   1.1532E+05  0.000E+00  0.000E+00  0.000E+00  4.17372E+01  1.576E-01  2.000E+01  2.000E+04  6.967E-03
   1   12   16     1    16    1.1532E+05 -5.9518E+02   1.1591E+05  0.000E+00  0.000E+00  0.000E+00  4.12601E+01  1.578E-01  2.000E+01  2.000E+04 -2.976E-02
   1   12   17     1    17    1.1591E+05  8.1793E+02   1.1509E+05  0.000E+00  0.000E+00  0.000E+00  4.07827E+01  1.577E-01  2.000E+01  2.000E+04  4.090E-02
   1   12   18     1    18    1.1509E+05  4.5186E+02   1.1464E+05  0.000E+00  0.000E+00  0.000E+00  4.03049E+01  1.572E-01  2.000E+01  2.000E+04  2.259E-02
   1   12   19     1    19    1.1464E+05  3.7181E+02   1.1427E+05  0.000E+00  0.000E+00  0.000E+00  3.98273E+01  1.569E-01  2.000E+01  2.000E+04  1.859E-02
   1   13   20     1    20    1.1427E+05  5.6393E+02   1.1371E+05  0.000E+00  0.000E+00  0.000E+00  3.93497E+01  1.565E-01  2.000E+01  2.000E+04  2.820E-02
   1   14   21     1    21    1.1371E+05 -3.2307E+02   1.1403E+05  0.000E+00  0.000E+00  0.000E+00  3.88723E+01  1.564E-01  2.000E+01  2.000E+04 -1.615E-02
   1   14   22     1    22    1.1403E+05  5.1929E+03   1.0884E+05  0.000E+00  0.000E+00  0.000E+00  3.83930E+01  1.544E-01  2.000E+01  2.000E+04  2.596E-01
   1    9   30     2     1    5.0000E+04 -3.1561E+02   5.0316E+04  0.000E+00  0.000E+00  0.000E+00  4.02411E+01  1.161E-01  2.000E+01  2.000E+04 -1.578E-02
   1    9   29     2     2    5.0316E+04 -5.6125E+02   5.0877E+04  0.000E+00  0.000E+00  0.000E+00  3.99917E+01  1.167E-01  2.000E+01  2.000E+04 -2.806E-02
   1    9   28     2     3    5.0877E+04 -6.6748E+02   5.1544E+04  0.000E+00  0.000E+00  0.000E+00  3.97425E+01  1.175E-01  2.000E+01  2.000E+04 -3.337E-02
   1    9   27     2     4    5.1544E+04 -8.8389E+02   5.2428E+04  0.000E+00  0.000E+00  0.000E+00  3.94936E+01  1.186E-01  2.000E+01  2.000E+04 -4.419E-02
   1   10   26     2     5    5.2428E+04  4.9442E+02   5.1934E+04  0.000E+00  0.000E+00  0.000E+00  3.92439E+01  1.189E-01  2.000E+01  2.000E+04  2.472E-02
   1   11   25     2     6    5.1934E+04  1.5479E+03   5.0386E+04  0.000E+00  0.000E+00  0.000E+00  3.89925E+01  1.175E-01  2.000E+01  2.000E+04  7.739E-02
   1   12   24     2     7    5.0386E+04  1.7448E+03   4.8641E+04  0.000E+00  0.000E+00  0.000E+00  3.87402E+01  1.152E-01  2.000E+01  2.000E+04  8.724E-02
   1   13   23     2     8    4.8641E+04  1.7378E+02   4.8467E+04  0.000E+00  0.000E+00  0.000E+00  3.84888E+01  1.138E-01  2.000E+01  2.000E+04  8.689E-03
   1   14   22     2     9    4.8467E+04  2.0780E+03   4.6389E+04  0.000E+00  0.000E+00  0.000E+00  3.82373E+01  1.123E-01  2.000E+01  2.000E+04  1.039E-01
   1   14   22     3     1    1.5523E+05 -8.3801E+03   1.6361E+05  0.000E+00  0.000E+00  0.000E+00  3.77143E+01  1.588E-01  2.000E+01  2.000E+04 -4.190E-01
   1   15   23     3     2    1.6361E+05 -4.7483E+02   1.6408E+05  0.000E+00  0.000E+00  0.000E+00  3.68281E+01  1.614E-01  2.000E+01  2.000E+04 -2.374E-02
   1   15   24     3     3    1.6408E+05 -2.6926E+02   1.6435E+05  0.000E+00  0.000E+00  0.000E+00  3.59394E+01  1.616E-01  2.000E+01  2.000E+04 -1.346E-02
   1   15   25     3     4    1.6435E+05 -2.6762E+02   1.6462E+05  0.000E+00  0.000E+00  0.000E+00  3.50507E+01  1.618E-01  2.000E+01  2.000E+04 -1.338E-02
   1   15   26     3     5    1.6462E+05 -3.2843E+02   1.6495E+05  0.000E+00  0.000E+00  0.000E+00  3.41620E+01  1.620E-01  2.000E+01  2.000E+04 -1.642E-02
   1   16   27     3     6    1.6495E+05 -3.5907E+02   1.6531E+05  0.000E+00  0.000E+00  0.000E+00  3.32733E+01  1.622E-01  2.000E+01  2.000E+04 -1.795E-02
   1   17   28     3     7    1.6531E+05 -1.5317E+03   1.6684E+05  0.000E+00  0.000E+00  0.000E+00  3.23850E+01  1.627E-01  2.000E+01  2.000E+04 -7.659E-02
   1   18   29     3     8    1.6684E+05 -2.8529E+03   1.6969E+05  0.000E+00  0.000E+00  0.000E+00  3.14974E+01  1.640E-01  2.000E+01  2.000E+04 -1.426E-01
   1   18   30     3     9    1.6969E+05 -3.1495E+03   1.7284E+05  0.000E+00  0.000E+00  0.000E+00  3.06102E+01  1.658E-01  2.000E+01  2.000E+04 -1.575E-01



1
              HEAD IN LAYER   1 AT END OF TIME STEP   1 IN STRESS PERIOD    8
  ---------------------------------------------------------------------------

          1      2      3      4      5      6      7      8      9     10
         11     12     13     14     15     16     17     18     19     20
         21     22     23     24     25     26     27     28     29     30
 .........................................................................
   1  ****** ****** ****** ****** ****** ****** ****** ****** ****** ******
      ****** ****** ****** ****** ****** ****** ****** ****** ****** ******
      ****** ****** ****** ****** ****** ****** ****** ****** ****** ******
   2  ****** ****** ****** ****** ****** ****** ****** ****** ****** ******
      ****** ****** ****** ****** ****** ****** ****** ****** ****** ******
      ****** ****** ****** ****** ****** ****** ****** ****** ****** ******
   3  ****** ****** ****** ****** ****** ****** ****** ****** ****** ******
      ****** ****** ****** ****** ****** ****** ****** ****** ****** ******
      ****** ****** ****** ****** ****** ****** ****** ****** ****** ******
   4  ****** ****** ****** ****** ****** ****** ****** ****** ****** ******
      ****** ****** ****** ****** ****** ****** ****** ****** ****** ******
      ****** ****** ****** ****** ****** ****** ****** ****** ****** ******
   5  ****** ****** ****** ****** ****** ****** ****** ****** ****** ******
      ****** ****** ****** ****** ****** ****** ****** ****** ****** ******
      ****** ****** ****** ****** ****** ****** ****** ****** ****** ******
   6  ****** ****** ****** ****** ****** ****** ****** ****** ****** ******
      ****** ****** ****** ****** ****** ****** ****** ****** ****** ******
      ****** ****** ****** ****** ****** ****** ****** ****** ****** ******
   7  ****** ****** ****** ****** ****** ****** ****** ****** ****** ******
      ****** ****** ****** ****** ****** ****** ****** ****** ****** ******
      ****** ****** ****** ****** ****** ****** ****** ****** ****** ******
   8  ****** ****** ****** ****** ****** ****** ****** ****** ****** ******
      ****** ****** ****** ****** ****** ****** ****** ****** ****** ******
      ****** ****** ****** ****** ****** ****** ****** ****** ****** ******
   9  ****** ****** ****** ****** ****** ****** ****** ****** ****** ******
      ****** ****** ****** ****** ****** ****** ****** ****** ****** ******
      ****** ****** ****** ****** ****** ****** ****** ****** ****** ******
  10  ****** ****** ****** ****** ****** ****** ****** ****** ****** ******
      ****** ****** ****** ****** ****** ****** ****** ****** ****** ******
      ****** ****** ****** ****** ****** ****** ****** ****** ****** ******
  11  ****** ****** ****** ****** ****** ****** ****** ****** ****** ******
      ****** ****** ****** ****** ****** ****** ****** ****** ****** ******
      ****** ****** ****** ****** ****** ****** ****** ****** ****** ******
  12  ****** ****** ****** ****** ****** ****** ****** ****** ****** ******
      ****** ****** ****** ****** ****** ****** ****** ****** ****** ******
      ****** ****** ****** ****** ****** ****** ****** ****** ****** ******
  13  ****** ****** ****** ****** ****** ****** ****** ****** ****** ******
      ****** ****** ****** ****** ****** ****** ****** ****** ****** ******
      ****** ****** ****** ****** ****** ****** ****** ****** ****** ******
  14  ****** ****** ****** ****** ****** ****** ****** ****** ****** ******
      ****** ****** ****** ****** ****** ****** ****** ****** ****** ******
      ****** ****** ****** ****** ****** ****** ****** ****** ****** ******
  15  ****** ****** ****** ****** ****** ****** ****** ****** ****** ******
      ****** ****** ****** ****** ****** ****** ****** ****** ****** ******
      ****** ****** ****** ****** ****** ****** ****** ****** ****** ******
  16  ****** ****** ****** ****** ****** ****** ****** ****** ****** ******
      ****** ****** ****** ****** ****** ****** ****** ****** ****** ******
      ****** ****** ****** ****** ****** ****** ****** ****** ****** ******
  17  ****** ****** ****** ****** ****** ****** ****** ****** ****** ******
      ****** ****** ****** ****** ****** ****** ****** ****** ****** ******
      ****** ****** ****** ****** ****** ****** ****** ****** ****** ******
  18  ****** ****** ****** ****** ****** ****** ****** ****** ****** ******
      ****** ****** ****** ****** ****** ****** ****** ****** ****** ******
      ****** ****** ****** ****** ****** ****** ****** ****** ****** ******
  19  ****** ****** ****** ****** ****** ****** ****** ****** ****** ******
      ****** ****** ****** ****** ****** ****** ****** ****** ****** ******
      ****** ****** ****** ****** ****** ****** ****** ****** ****** ******
  20  ****** ****** ****** ****** ****** ****** ****** ****** ****** ******
      ****** ****** ****** ****** ****** ****** ****** ****** ****** ******
      ****** ****** ****** ****** ****** ****** ****** ****** ****** ******
  21  ****** ****** ****** ****** ****** ****** ****** ****** ****** ******
      ****** ****** ****** ****** ****** ****** ****** ****** ****** ******
      ****** ****** ****** ****** ****** ****** ****** ****** ****** ******
  22  ****** ****** ****** ****** ****** ****** ****** ****** ****** ******
      ****** ****** ****** ****** ****** ****** ****** ****** ****** ******
      ****** ****** ****** ****** ****** ****** ****** ****** ****** ******
  23  ****** ****** ****** ****** ****** ****** ****** ****** ****** ******
      ****** ****** ****** ****** ****** ****** ****** ****** ****** ******
      ****** ****** ****** ****** ****** ****** ****** ****** ****** ******
  24  ****** ****** ****** ****** ****** ****** ****** ****** ****** ******
      ****** ****** ****** ****** ****** ****** ****** ****** ****** ******
      ****** ****** ****** ****** ****** ****** ****** ****** ****** ******
  25  ****** ****** ****** ****** ****** ****** ****** ****** ****** ******
      ****** ****** ****** ****** ****** ****** ****** ****** ****** ******
      ****** ****** ****** ****** ****** ****** ****** ****** ****** ******

 HEAD WILL BE SAVED ON UNIT   51 AT END OF TIME STEP    1, STRESS PERIOD    8
1
  VOLUMETRIC BUDGET FOR ENTIRE MODEL AT END OF TIME STEP    1, STRESS PERIOD   8
  ------------------------------------------------------------------------------

     CUMULATIVE VOLUMES      L**3       RATES FOR THIS TIME STEP      L**3/T
     ------------------                 ------------------------

           IN:                                      IN:
           ---                                      ---
             STORAGE =    33990441.9243               STORAGE =        1759.7467
       CONSTANT HEAD =    19793113.5567         CONSTANT HEAD =       34067.6540
               WELLS =           0.0000                 WELLS =           0.0000
            RECHARGE =    17608800.0000              RECHARGE =       27600.0000
      STREAM LEAKAGE =     7374033.5879        STREAM LEAKAGE =       13576.6680

            TOTAL IN =    78766389.0689              TOTAL IN =       77004.0687

          OUT:                                     OUT:
          ----                                     ----
             STORAGE =      889489.1768               STORAGE =        1545.5252
       CONSTANT HEAD =           0.0000         CONSTANT HEAD =           0.0000
               WELLS =    28500703.6401                 WELLS =       39042.0598
            RECHARGE =           0.0000              RECHARGE =           0.0000
      STREAM LEAKAGE =    49376198.0884        STREAM LEAKAGE =       36416.4756

           TOTAL OUT =    78766390.9053             TOTAL OUT =       77004.0606

            IN - OUT =          -1.8364              IN - OUT =       8.1166E-03

 PERCENT DISCREPANCY =          -0.00     PERCENT DISCREPANCY =           0.00






         TIME SUMMARY AT END OF TIME STEP    1 IN STRESS PERIOD    8
                    SECONDS     MINUTES      HOURS       DAYS        YEARS
                    -----------------------------------------------------------
   TIME STEP LENGTH 7.86240E+06 1.31040E+05  2184.0      91.000     0.24914    
 STRESS PERIOD TIME 7.86240E+06 1.31040E+05  2184.0      91.000     0.24914    
         TOTAL TIME 6.30720E+07 1.05120E+06  17520.      730.00      1.9986    
1
1
                            STRESS PERIOD NO.    9, LENGTH =   92.00000    
                            -----------------------------------------------

                              NUMBER OF TIME STEPS =     1

                               MULTIPLIER FOR DELT =     1.500

                            INITIAL TIME STEP SIZE =   92.00000    

 WELL NO.  LAYER   ROW   COL   STRESS RATE         
 --------------------------------------------------
      1      1      8     21      -8122.    
      2      1      4     14      -6617.    
      3      1     10     23     -0.1245E+05
      4      1     14     17     -0.1185E+05

      4 WELLS

                 RECHARGE =  5.000000E-04

 REUSING STREAM SEGMENT DATA FROM LAST STRESS PERIOD
 
 SOLVING FOR HEAD 


     6 CALLS TO PCG ROUTINE FOR TIME STEP   1 IN STRESS PERIOD    9
    23 TOTAL ITERATIONS

 OUTPUT CONTROL FOR STRESS PERIOD    9   TIME STEP    1
    SAVE BUDGET
    SAVE HEAD FOR ALL LAYERS
    PRINT HEAD FOR ALL LAYERS
 UBDSV2 SAVING "STREAMFLOW OUT  " ON UNIT  50 AT TIME STEP  1, STRESS PERIOD   9



 STREAM LISTING     PERIOD      9   STEP        1

 LAYER ROW COL. STREAM  RCH.  FLOW INTO     FLOW TO   FLOW OUT OF   OVRLND.     DIRECT     STREAM       STREAM     STREAM     STREAM   STREAMBED  STREAMBED
                SEG.NO.  NO.  STRM. RCH.    AQUIFER    STRM. RCH.    RUNOFF     PRECIP       ET          HEAD       DEPTH      WIDTH   CONDCTNC.   GRADIENT

   1   13    1     1     1    1.0000E+05 -1.4433E+03   1.0144E+05  0.000E+00  0.000E+00  0.000E+00  4.84066E+01  1.453E-01  2.000E+01  2.000E+04 -7.216E-02
   1   13    2     1     2    1.0144E+05 -2.3641E+03   1.0381E+05  0.000E+00  0.000E+00  0.000E+00  4.79310E+01  1.469E-01  2.000E+01  2.000E+04 -1.182E-01
   1   14    3     1     3    1.0381E+05 -3.8389E+02   1.0419E+05  0.000E+00  0.000E+00  0.000E+00  4.74549E+01  1.481E-01  2.000E+01  2.000E+04 -1.919E-02
   1   15    4     1     4    1.0419E+05 -3.6069E+02   1.0455E+05  0.000E+00  0.000E+00  0.000E+00  4.69780E+01  1.484E-01  2.000E+01  2.000E+04 -1.803E-02
   1   16    5     1     5    1.0455E+05 -1.4421E+03   1.0599E+05  0.000E+00  0.000E+00  0.000E+00  4.65015E+01  1.492E-01  2.000E+01  2.000E+04 -7.211E-02
   1   16    6     1     6    1.0599E+05 -9.1374E+02   1.0691E+05  0.000E+00  0.000E+00  0.000E+00  4.60252E+01  1.502E-01  2.000E+01  2.000E+04 -4.569E-02
   1   16    7     1     7    1.0691E+05 -8.9585E+02   1.0780E+05  0.000E+00  0.000E+00  0.000E+00  4.55487E+01  1.509E-01  2.000E+01  2.000E+04 -4.479E-02
   1   16    8     1     8    1.0780E+05 -8.8820E+02   1.0869E+05  0.000E+00  0.000E+00  0.000E+00  4.50722E+01  1.517E-01  2.000E+01  2.000E+04 -4.441E-02
   1   16    9     1     9    1.0869E+05 -8.7412E+02   1.0957E+05  0.000E+00  0.000E+00  0.000E+00  4.45956E+01  1.524E-01  2.000E+01  2.000E+04 -4.371E-02
   1   16   10     1    10    1.0957E+05 -8.5126E+02   1.1042E+05  0.000E+00  0.000E+00  0.000E+00  4.41191E+01  1.532E-01  2.000E+01  2.000E+04 -4.256E-02
   1   16   11     1    11    1.1042E+05 -8.2672E+02   1.1124E+05  0.000E+00  0.000E+00  0.000E+00  4.36425E+01  1.539E-01  2.000E+01  2.000E+04 -4.134E-02
   1   16   12     1    12    1.1124E+05 -1.1884E+03   1.1243E+05  0.000E+00  0.000E+00  0.000E+00  4.31661E+01  1.547E-01  2.000E+01  2.000E+04 -5.942E-02
   1   15   13     1    13    1.1243E+05 -6.9890E+02   1.1313E+05  0.000E+00  0.000E+00  0.000E+00  4.26896E+01  1.555E-01  2.000E+01  2.000E+04 -3.495E-02
   1   14   14     1    14    1.1313E+05 -1.9992E+02   1.1333E+05  0.000E+00  0.000E+00  0.000E+00  4.22127E+01  1.558E-01  2.000E+01  2.000E+04 -9.996E-03
   1   13   15     1    15    1.1333E+05  3.7328E+02   1.1296E+05  0.000E+00  0.000E+00  0.000E+00  4.17353E+01  1.558E-01  2.000E+01  2.000E+04  1.866E-02
   1   12   16     1    16    1.1296E+05 -3.5075E+02   1.1331E+05  0.000E+00  0.000E+00  0.000E+00  4.12580E+01  1.558E-01  2.000E+01  2.000E+04 -1.754E-02
   1   12   17     1    17    1.1331E+05  9.8437E+02   1.1232E+05  0.000E+00  0.000E+00  0.000E+00  4.07805E+01  1.555E-01  2.000E+01  2.000E+04  4.922E-02
   1   12   18     1    18    1.1232E+05  6.1021E+02   1.1171E+05  0.000E+00  0.000E+00  0.000E+00  4.03026E+01  1.548E-01  2.000E+01  2.000E+04  3.051E-02
   1   12   19     1    19    1.1171E+05  5.6258E+02   1.1115E+05  0.000E+00  0.000E+00  0.000E+00  3.98248E+01  1.544E-01  2.000E+01  2.000E+04  2.813E-02
   1   13   20     1    20    1.1115E+05  7.3867E+02   1.1041E+05  0.000E+00  0.000E+00  0.000E+00  3.93470E+01  1.538E-01  2.000E+01  2.000E+04  3.693E-02
   1   14   21     1    21    1.1041E+05 -1.5192E+02   1.1056E+05  0.000E+00  0.000E+00  0.000E+00  3.88695E+01  1.536E-01  2.000E+01  2.000E+04 -7.596E-03
   1   14   22     1    22    1.1056E+05  5.2311E+03   1.0533E+05  0.000E+00  0.000E+00  0.000E+00  3.83901E+01  1.514E-01  2.000E+01  2.000E+04  2.616E-01
   1    9   30     2     1    5.0000E+04 -1.9111E+02   5.0191E+04  0.000E+00  0.000E+00  0.000E+00  4.02410E+01  1.160E-01  2.000E+01  2.000E+04 -9.556E-03
   1    9   29     2     2    5.0191E+04 -4.3645E+02   5.0628E+04  0.000E+00  0.000E+00  0.000E+00  3.99914E+01  1.164E-01  2.000E+01  2.000E+04 -2.182E-02
   1    9   28     2     3    5.0628E+04 -5.4055E+02   5.1168E+04  0.000E+00  0.000E+00  0.000E+00  3.97421E+01  1.171E-01  2.000E+01  2.000E+04 -2.703E-02
   1    9   27     2     4    5.1168E+04 -7.0434E+02   5.1872E+04  0.000E+00  0.000E+00  0.000E+00  3.94930E+01  1.180E-01  2.000E+01  2.000E+04 -3.522E-02
   1   10   26     2     5    5.1872E+04  6.7053E+02   5.1202E+04  0.000E+00  0.000E+00  0.000E+00  3.92430E+01  1.180E-01  2.000E+01  2.000E+04  3.353E-02
   1   11   25     2     6    5.1202E+04  1.7163E+03   4.9486E+04  0.000E+00  0.000E+00  0.000E+00  3.89913E+01  1.163E-01  2.000E+01  2.000E+04  8.582E-02
   1   12   24     2     7    4.9486E+04  1.8998E+03   4.7586E+04  0.000E+00  0.000E+00  0.000E+00  3.87388E+01  1.138E-01  2.000E+01  2.000E+04  9.499E-02
   1   13   23     2     8    4.7586E+04  2.2122E+02   4.7365E+04  0.000E+00  0.000E+00  0.000E+00  3.84873E+01  1.123E-01  2.000E+01  2.000E+04  1.106E-02
   1   14   22     2     9    4.7365E+04  2.1421E+03   4.5222E+04  0.000E+00  0.000E+00  0.000E+00  3.82356E+01  1.106E-01  2.000E+01  2.000E+04  1.071E-01
   1   14   22     3     1    1.5056E+05 -8.3401E+03   1.5890E+05  0.000E+00  0.000E+00  0.000E+00  3.77115E+01  1.560E-01  2.000E+01  2.000E+04 -4.170E-01
   1   15   23     3     2    1.5890E+05 -4.2255E+02   1.5932E+05  0.000E+00  0.000E+00  0.000E+00  3.68253E+01  1.586E-01  2.000E+01  2.000E+04 -2.113E-02
   1   15   24     3     3    1.5932E+05 -2.2642E+02   1.5955E+05  0.000E+00  0.000E+00  0.000E+00  3.59366E+01  1.588E-01  2.000E+01  2.000E+04 -1.132E-02
   1   15   25     3     4    1.5955E+05 -2.2451E+02   1.5977E+05  0.000E+00  0.000E+00  0.000E+00  3.50478E+01  1.589E-01  2.000E+01  2.000E+04 -1.123E-02
   1   15   26     3     5    1.5977E+05 -2.8095E+02   1.6005E+05  0.000E+00  0.000E+00  0.000E+00  3.41591E+01  1.591E-01  2.000E+01  2.000E+04 -1.405E-02
   1   16   27     3     6    1.6005E+05 -3.0326E+02   1.6035E+05  0.000E+00  0.000E+00  0.000E+00  3.32704E+01  1.593E-01  2.000E+01  2.000E+04 -1.516E-02
   1   17   28     3     7    1.6035E+05 -1.3789E+03   1.6173E+05  0.000E+00  0.000E+00  0.000E+00  3.23820E+01  1.598E-01  2.000E+01  2.000E+04 -6.894E-02
   1   18   29     3     8    1.6173E+05 -2.6784E+03   1.6441E+05  0.000E+00  0.000E+00  0.000E+00  3.14943E+01  1.610E-01  2.000E+01  2.000E+04 -1.339E-01
   1   18   30     3     9    1.6441E+05 -3.0182E+03   1.6743E+05  0.000E+00  0.000E+00  0.000E+00  3.06071E+01  1.626E-01  2.000E+01  2.000E+04 -1.509E-01



1
              HEAD IN LAYER   1 AT END OF TIME STEP   1 IN STRESS PERIOD    9
  ---------------------------------------------------------------------------

          1      2      3      4      5      6      7      8      9     10
         11     12     13     14     15     16     17     18     19     20
         21     22     23     24     25     26     27     28     29     30
 .........................................................................
   1  ****** ****** ****** ****** ****** ****** ****** ****** ****** ******
      ****** ****** ****** ****** ****** ****** ****** ****** ****** ******
      ****** ****** ****** ****** ****** ****** ****** ****** ****** ******
   2  ****** ****** ****** ****** ****** ****** ****** ****** ****** ******
      ****** ****** ****** ****** ****** ****** ****** ****** ****** ******
      ****** ****** ****** ****** ****** ****** ****** ****** ****** ******
   3  ****** ****** ****** ****** ****** ****** ****** ****** ****** ******
      ****** ****** ****** ****** ****** ****** ****** ****** ****** ******
      ****** ****** ****** ****** ****** ****** ****** ****** ****** ******
   4  ****** ****** ****** ****** ****** ****** ****** ****** ****** ******
      ****** ****** ****** ****** ****** ****** ****** ****** ****** ******
      ****** ****** ****** ****** ****** ****** ****** ****** ****** ******
   5  ****** ****** ****** ****** ****** ****** ****** ****** ****** ******
      ****** ****** ****** ****** ****** ****** ****** ****** ****** ******
      ****** ****** ****** ****** ****** ****** ****** ****** ****** ******
   6  ****** ****** ****** ****** ****** ****** ****** ****** ****** ******
      ****** ****** ****** ****** ****** ****** ****** ****** ****** ******
      ****** ****** ****** ****** ****** ****** ****** ****** ****** ******
   7  ****** ****** ****** ****** ****** ****** ****** ****** ****** ******
      ****** ****** ****** ****** ****** ****** ****** ****** ****** ******
      ****** ****** ****** ****** ****** ****** ****** ****** ****** ******
   8  ****** ****** ****** ****** ****** ****** ****** ****** ****** ******
      ****** ****** ****** ****** ****** ****** ****** ****** ****** ******
      ****** ****** ****** ****** ****** ****** ****** ****** ****** ******
   9  ****** ****** ****** ****** ****** ****** ****** ****** ****** ******
      ****** ****** ****** ****** ****** ****** ****** ****** ****** ******
      ****** ****** ****** ****** ****** ****** ****** ****** ****** ******
  10  ****** ****** ****** ****** ****** ****** ****** ****** ****** ******
      ****** ****** ****** ****** ****** ****** ****** ****** ****** ******
      ****** ****** ****** ****** ****** ****** ****** ****** ****** ******
  11  ****** ****** ****** ****** ****** ****** ****** ****** ****** ******
      ****** ****** ****** ****** ****** ****** ****** ****** ****** ******
      ****** ****** ****** ****** ****** ****** ****** ****** ****** ******
  12  ****** ****** ****** ****** ****** ****** ****** ****** ****** ******
      ****** ****** ****** ****** ****** ****** ****** ****** ****** ******
      ****** ****** ****** ****** ****** ****** ****** ****** ****** ******
  13  ****** ****** ****** ****** ****** ****** ****** ****** ****** ******
      ****** ****** ****** ****** ****** ****** ****** ****** ****** ******
      ****** ****** ****** ****** ****** ****** ****** ****** ****** ******
  14  ****** ****** ****** ****** ****** ****** ****** ****** ****** ******
      ****** ****** ****** ****** ****** ****** ****** ****** ****** ******
      ****** ****** ****** ****** ****** ****** ****** ****** ****** ******
  15  ****** ****** ****** ****** ****** ****** ****** ****** ****** ******
      ****** ****** ****** ****** ****** ****** ****** ****** ****** ******
      ****** ****** ****** ****** ****** ****** ****** ****** ****** ******
  16  ****** ****** ****** ****** ****** ****** ****** ****** ****** ******
      ****** ****** ****** ****** ****** ****** ****** ****** ****** ******
      ****** ****** ****** ****** ****** ****** ****** ****** ****** ******
  17  ****** ****** ****** ****** ****** ****** ****** ****** ****** ******
      ****** ****** ****** ****** ****** ****** ****** ****** ****** ******
      ****** ****** ****** ****** ****** ****** ****** ****** ****** ******
  18  ****** ****** ****** ****** ****** ****** ****** ****** ****** ******
      ****** ****** ****** ****** ****** ****** ****** ****** ****** ******
      ****** ****** ****** ****** ****** ****** ****** ****** ****** ******
  19  ****** ****** ****** ****** ****** ****** ****** ****** ****** ******
      ****** ****** ****** ****** ****** ****** ****** ****** ****** ******
      ****** ****** ****** ****** ****** ****** ****** ****** ****** ******
  20  ****** ****** ****** ****** ****** ****** ****** ****** ****** ******
      ****** ****** ****** ****** ****** ****** ****** ****** ****** ******
      ****** ****** ****** ****** ****** ****** ****** ****** ****** ******
  21  ****** ****** ****** ****** ****** ****** ****** ****** ****** ******
      ****** ****** ****** ****** ****** ****** ****** ****** ****** ******
      ****** ****** ****** ****** ****** ****** ****** ****** ****** ******
  22  ****** ****** ****** ****** ****** ****** ****** ****** ****** ******
      ****** ****** ****** ****** ****** ****** ****** ****** ****** ******
      ****** ****** ****** ****** ****** ****** ****** ****** ****** ******
  23  ****** ****** ****** ****** ****** ****** ****** ****** ****** ******
      ****** ****** ****** ****** ****** ****** ****** ****** ****** ******
      ****** ****** ****** ****** ****** ****** ****** ****** ****** ******
  24  ****** ****** ****** ****** ****** ****** ****** ****** ****** ******
      ****** ****** ****** ****** ****** ****** ****** ****** ****** ******
      ****** ****** ****** ****** ****** ****** ****** ****** ****** ******
  25  ****** ****** ****** ****** ****** ****** ****** ****** ****** ******
      ****** ****** ****** ****** ****** ****** ****** ****** ****** ******
      ****** ****** ****** ****** ****** ****** ****** ****** ****** ******

 HEAD WILL BE SAVED ON UNIT   51 AT END OF TIME STEP    1, STRESS PERIOD    9
1
  VOLUMETRIC BUDGET FOR ENTIRE MODEL AT END OF TIME STEP    1, STRESS PERIOD   9
  ------------------------------------------------------------------------------

     CUMULATIVE VOLUMES      L**3       RATES FOR THIS TIME STEP      L**3/T
     ------------------                 ------------------------

           IN:                                      IN:
           ---                                      ---
             STORAGE =    34672458.3967               STORAGE =        7413.2225
       CONSTANT HEAD =    23036865.6757         CONSTANT HEAD =       35258.1752
               WELLS =           0.0000                 WELLS =           0.0000
            RECHARGE =    18878400.0000              RECHARGE =       13800.0000
      STREAM LEAKAGE =     8767846.9892        STREAM LEAKAGE =       15150.1457

            TOTAL IN =    85355571.0617              TOTAL IN =       71621.5434

          OUT:                                     OUT:
          ----                                     ----
             STORAGE =      889489.1768               STORAGE =           0.0000
       CONSTANT HEAD =           0.0000         CONSTANT HEAD =           0.0000
               WELLS =    32092573.1399                 WELLS =       39042.0598
            RECHARGE =           0.0000              RECHARGE =           0.0000
      STREAM LEAKAGE =    52373510.6555        STREAM LEAKAGE =       32579.4844

           TOTAL OUT =    85355572.9722             TOTAL OUT =       71621.5442

            IN - OUT =          -1.9105              IN - OUT =      -8.0568E-04

 PERCENT DISCREPANCY =          -0.00     PERCENT DISCREPANCY =          -0.00






         TIME SUMMARY AT END OF TIME STEP    1 IN STRESS PERIOD    9
                    SECONDS     MINUTES      HOURS       DAYS        YEARS
                    -----------------------------------------------------------
   TIME STEP LENGTH 7.94880E+06 1.32480E+05  2208.0      92.000     0.25188    
 STRESS PERIOD TIME 7.94880E+06 1.32480E+05  2208.0      92.000     0.25188    
         TOTAL TIME 7.10208E+07 1.18368E+06  19728.      822.00      2.2505    
1
1
                            STRESS PERIOD NO.   10, LENGTH =   91.00000    
                            -----------------------------------------------

                              NUMBER OF TIME STEPS =     1

                               MULTIPLIER FOR DELT =     1.500

                            INITIAL TIME STEP SIZE =   91.00000    

 WELL NO.  LAYER   ROW   COL   STRESS RATE         
 --------------------------------------------------
      1      1      8     21      -8122.    
      2      1      4     14      -6617.    
      3      1     10     23     -0.1245E+05
      4      1     14     17     -0.1185E+05

      4 WELLS

                 RECHARGE =  2.000000E-03

 REUSING STREAM SEGMENT DATA FROM LAST STRESS PERIOD
 
 SOLVING FOR HEAD 


     7 CALLS TO PCG ROUTINE FOR TIME STEP   1 IN STRESS PERIOD   10
    26 TOTAL ITERATIONS

 OUTPUT CONTROL FOR STRESS PERIOD   10   TIME STEP    1
    SAVE BUDGET
    SAVE HEAD FOR ALL LAYERS
    PRINT HEAD FOR ALL LAYERS
 UBDSV2 SAVING "STREAMFLOW OUT  " ON UNIT  50 AT TIME STEP  1, STRESS PERIOD  10



 STREAM LISTING     PERIOD     10   STEP        1

 LAYER ROW COL. STREAM  RCH.  FLOW INTO     FLOW TO   FLOW OUT OF   OVRLND.     DIRECT     STREAM       STREAM     STREAM     STREAM   STREAMBED  STREAMBED
                SEG.NO.  NO.  STRM. RCH.    AQUIFER    STRM. RCH.    RUNOFF     PRECIP       ET          HEAD       DEPTH      WIDTH   CONDCTNC.   GRADIENT

   1   13    1     1     1    1.0000E+05 -1.8906E+03   1.0189E+05  0.000E+00  0.000E+00  0.000E+00  4.84068E+01  1.455E-01  2.000E+01  2.000E+04 -9.453E-02
   1   13    2     1     2    1.0189E+05 -2.8595E+03   1.0475E+05  0.000E+00  0.000E+00  0.000E+00  4.79316E+01  1.475E-01  2.000E+01  2.000E+04 -1.430E-01
   1   14    3     1     3    1.0475E+05 -5.6954E+02   1.0532E+05  0.000E+00  0.000E+00  0.000E+00  4.74558E+01  1.490E-01  2.000E+01  2.000E+04 -2.848E-02
   1   15    4     1     4    1.0532E+05 -5.5945E+02   1.0588E+05  0.000E+00  0.000E+00  0.000E+00  4.69790E+01  1.495E-01  2.000E+01  2.000E+04 -2.797E-02
   1   16    5     1     5    1.0588E+05 -2.0609E+03   1.0794E+05  0.000E+00  0.000E+00  0.000E+00  4.65028E+01  1.506E-01  2.000E+01  2.000E+04 -1.030E-01
   1   16    6     1     6    1.0794E+05 -1.2755E+03   1.0922E+05  0.000E+00  0.000E+00  0.000E+00  4.60270E+01  1.520E-01  2.000E+01  2.000E+04 -6.377E-02
   1   16    7     1     7    1.0922E+05 -1.2397E+03   1.1046E+05  0.000E+00  0.000E+00  0.000E+00  4.55508E+01  1.530E-01  2.000E+01  2.000E+04 -6.199E-02
   1   16    8     1     8    1.1046E+05 -1.2266E+03   1.1168E+05  0.000E+00  0.000E+00  0.000E+00  4.50745E+01  1.541E-01  2.000E+01  2.000E+04 -6.133E-02
   1   16    9     1     9    1.1168E+05 -1.2111E+03   1.1289E+05  0.000E+00  0.000E+00  0.000E+00  4.45983E+01  1.551E-01  2.000E+01  2.000E+04 -6.056E-02
   1   16   10     1    10    1.1289E+05 -1.1886E+03   1.1408E+05  0.000E+00  0.000E+00  0.000E+00  4.41220E+01  1.561E-01  2.000E+01  2.000E+04 -5.943E-02
   1   16   11     1    11    1.1408E+05 -1.1677E+03   1.1525E+05  0.000E+00  0.000E+00  0.000E+00  4.36457E+01  1.570E-01  2.000E+01  2.000E+04 -5.839E-02
   1   16   12     1    12    1.1525E+05 -1.7575E+03   1.1701E+05  0.000E+00  0.000E+00  0.000E+00  4.31696E+01  1.582E-01  2.000E+01  2.000E+04 -8.787E-02
   1   15   13     1    13    1.1701E+05 -1.2837E+03   1.1829E+05  0.000E+00  0.000E+00  0.000E+00  4.26936E+01  1.595E-01  2.000E+01  2.000E+04 -6.418E-02
   1   14   14     1    14    1.1829E+05 -7.9098E+02   1.1908E+05  0.000E+00  0.000E+00  0.000E+00  4.22171E+01  1.603E-01  2.000E+01  2.000E+04 -3.955E-02
   1   13   15     1    15    1.1908E+05 -2.0697E+02   1.1929E+05  0.000E+00  0.000E+00  0.000E+00  4.17403E+01  1.607E-01  2.000E+01  2.000E+04 -1.035E-02
   1   12   16     1    16    1.1929E+05 -9.0811E+02   1.2020E+05  0.000E+00  0.000E+00  0.000E+00  4.12634E+01  1.612E-01  2.000E+01  2.000E+04 -4.541E-02
   1   12   17     1    17    1.2020E+05  5.6109E+02   1.1964E+05  0.000E+00  0.000E+00  0.000E+00  4.07863E+01  1.613E-01  2.000E+01  2.000E+04  2.805E-02
   1   12   18     1    18    1.1964E+05  1.9071E+02   1.1944E+05  0.000E+00  0.000E+00  0.000E+00  4.03087E+01  1.610E-01  2.000E+01  2.000E+04  9.536E-03
   1   12   19     1    19    1.1944E+05  4.6349E+01   1.1940E+05  0.000E+00  0.000E+00  0.000E+00  3.98314E+01  1.609E-01  2.000E+01  2.000E+04  2.317E-03
   1   13   20     1    20    1.1940E+05  2.1818E+02   1.1918E+05  0.000E+00  0.000E+00  0.000E+00  3.93540E+01  1.608E-01  2.000E+01  2.000E+04  1.091E-02
   1   14   21     1    21    1.1918E+05 -6.7712E+02   1.1986E+05  0.000E+00  0.000E+00  0.000E+00  3.88769E+01  1.610E-01  2.000E+01  2.000E+04 -3.386E-02
   1   14   22     1    22    1.1986E+05  5.1034E+03   1.1475E+05  0.000E+00  0.000E+00  0.000E+00  3.83978E+01  1.592E-01  2.000E+01  2.000E+04  2.552E-01
   1    9   30     2     1    5.0000E+04 -6.0470E+02   5.0605E+04  0.000E+00  0.000E+00  0.000E+00  4.02413E+01  1.163E-01  2.000E+01  2.000E+04 -3.023E-02
   1    9   29     2     2    5.0605E+04 -8.4770E+02   5.1452E+04  0.000E+00  0.000E+00  0.000E+00  3.99923E+01  1.173E-01  2.000E+01  2.000E+04 -4.238E-02
   1    9   28     2     3    5.1452E+04 -9.5086E+02   5.2403E+04  0.000E+00  0.000E+00  0.000E+00  3.97435E+01  1.185E-01  2.000E+01  2.000E+04 -4.754E-02
   1    9   27     2     4    5.2403E+04 -1.2556E+03   5.3659E+04  0.000E+00  0.000E+00  0.000E+00  3.94950E+01  1.200E-01  2.000E+01  2.000E+04 -6.278E-02
   1   10   26     2     5    5.3659E+04  1.1898E+02   5.3540E+04  0.000E+00  0.000E+00  0.000E+00  3.92458E+01  1.208E-01  2.000E+01  2.000E+04  5.949E-03
   1   11   25     2     6    5.3540E+04  1.1892E+03   5.2351E+04  0.000E+00  0.000E+00  0.000E+00  3.89949E+01  1.199E-01  2.000E+01  2.000E+04  5.946E-02
   1   12   24     2     7    5.2351E+04  1.4229E+03   5.0928E+04  0.000E+00  0.000E+00  0.000E+00  3.87431E+01  1.181E-01  2.000E+01  2.000E+04  7.114E-02
   1   13   23     2     8    5.0928E+04  7.2745E+01   5.0855E+04  0.000E+00  0.000E+00  0.000E+00  3.84921E+01  1.171E-01  2.000E+01  2.000E+04  3.637E-03
   1   14   22     2     9    5.0855E+04  1.9607E+03   4.8894E+04  0.000E+00  0.000E+00  0.000E+00  3.82407E+01  1.157E-01  2.000E+01  2.000E+04  9.803E-02
   1   14   22     3     1    1.6365E+05 -8.4662E+03   1.7211E+05  0.000E+00  0.000E+00  0.000E+00  3.77194E+01  1.638E-01  2.000E+01  2.000E+04 -4.233E-01
   1   15   23     3     2    1.7211E+05 -5.8521E+02   1.7270E+05  0.000E+00  0.000E+00  0.000E+00  3.68331E+01  1.664E-01  2.000E+01  2.000E+04 -2.926E-02
   1   15   24     3     3    1.7270E+05 -3.6367E+02   1.7306E+05  0.000E+00  0.000E+00  0.000E+00  3.59445E+01  1.667E-01  2.000E+01  2.000E+04 -1.818E-02
   1   15   25     3     4    1.7306E+05 -3.6516E+02   1.7343E+05  0.000E+00  0.000E+00  0.000E+00  3.50558E+01  1.669E-01  2.000E+01  2.000E+04 -1.826E-02
   1   15   26     3     5    1.7343E+05 -4.4322E+02   1.7387E+05  0.000E+00  0.000E+00  0.000E+00  3.41671E+01  1.671E-01  2.000E+01  2.000E+04 -2.216E-02
   1   16   27     3     6    1.7387E+05 -4.8920E+02   1.7436E+05  0.000E+00  0.000E+00  0.000E+00  3.32785E+01  1.674E-01  2.000E+01  2.000E+04 -2.446E-02
   1   17   28     3     7    1.7436E+05 -1.8998E+03   1.7626E+05  0.000E+00  0.000E+00  0.000E+00  3.23903E+01  1.681E-01  2.000E+01  2.000E+04 -9.499E-02
   1   18   29     3     8    1.7626E+05 -3.2305E+03   1.7949E+05  0.000E+00  0.000E+00  0.000E+00  3.15029E+01  1.696E-01  2.000E+01  2.000E+04 -1.615E-01
   1   18   30     3     9    1.7949E+05 -3.4439E+03   1.8294E+05  0.000E+00  0.000E+00  0.000E+00  3.06159E+01  1.715E-01  2.000E+01  2.000E+04 -1.722E-01



1
              HEAD IN LAYER   1 AT END OF TIME STEP   1 IN STRESS PERIOD   10
  ---------------------------------------------------------------------------

          1      2      3      4      5      6      7      8      9     10
         11     12     13     14     15     16     17     18     19     20
         21     22     23     24     25     26     27     28     29     30
 .........................................................................
   1  ****** ****** ****** ****** ****** ****** ****** ****** ****** ******
      ****** ****** ****** ****** ****** ****** ****** ****** ****** ******
      ****** ****** ****** ****** ****** ****** ****** ****** ****** ******
   2  ****** ****** ****** ****** ****** ****** ****** ****** ****** ******
      ****** ****** ****** ****** ****** ****** ****** ****** ****** ******
      ****** ****** ****** ****** ****** ****** ****** ****** ****** ******
   3  ****** ****** ****** ****** ****** ****** ****** ****** ****** ******
      ****** ****** ****** ****** ****** ****** ****** ****** ****** ******
      ****** ****** ****** ****** ****** ****** ****** ****** ****** ******
   4  ****** ****** ****** ****** ****** ****** ****** ****** ****** ******
      ****** ****** ****** ****** ****** ****** ****** ****** ****** ******
      ****** ****** ****** ****** ****** ****** ****** ****** ****** ******
   5  ****** ****** ****** ****** ****** ****** ****** ****** ****** ******
      ****** ****** ****** ****** ****** ****** ****** ****** ****** ******
      ****** ****** ****** ****** ****** ****** ****** ****** ****** ******
   6  ****** ****** ****** ****** ****** ****** ****** ****** ****** ******
      ****** ****** ****** ****** ****** ****** ****** ****** ****** ******
      ****** ****** ****** ****** ****** ****** ****** ****** ****** ******
   7  ****** ****** ****** ****** ****** ****** ****** ****** ****** ******
      ****** ****** ****** ****** ****** ****** ****** ****** ****** ******
      ****** ****** ****** ****** ****** ****** ****** ****** ****** ******
   8  ****** ****** ****** ****** ****** ****** ****** ****** ****** ******
      ****** ****** ****** ****** ****** ****** ****** ****** ****** ******
      ****** ****** ****** ****** ****** ****** ****** ****** ****** ******
   9  ****** ****** ****** ****** ****** ****** ****** ****** ****** ******
      ****** ****** ****** ****** ****** ****** ****** ****** ****** ******
      ****** ****** ****** ****** ****** ****** ****** ****** ****** ******
  10  ****** ****** ****** ****** ****** ****** ****** ****** ****** ******
      ****** ****** ****** ****** ****** ****** ****** ****** ****** ******
      ****** ****** ****** ****** ****** ****** ****** ****** ****** ******
  11  ****** ****** ****** ****** ****** ****** ****** ****** ****** ******
      ****** ****** ****** ****** ****** ****** ****** ****** ****** ******
      ****** ****** ****** ****** ****** ****** ****** ****** ****** ******
  12  ****** ****** ****** ****** ****** ****** ****** ****** ****** ******
      ****** ****** ****** ****** ****** ****** ****** ****** ****** ******
      ****** ****** ****** ****** ****** ****** ****** ****** ****** ******
  13  ****** ****** ****** ****** ****** ****** ****** ****** ****** ******
      ****** ****** ****** ****** ****** ****** ****** ****** ****** ******
      ****** ****** ****** ****** ****** ****** ****** ****** ****** ******
  14  ****** ****** ****** ****** ****** ****** ****** ****** ****** ******
      ****** ****** ****** ****** ****** ****** ****** ****** ****** ******
      ****** ****** ****** ****** ****** ****** ****** ****** ****** ******
  15  ****** ****** ****** ****** ****** ****** ****** ****** ****** ******
      ****** ****** ****** ****** ****** ****** ****** ****** ****** ******
      ****** ****** ****** ****** ****** ****** ****** ****** ****** ******
  16  ****** ****** ****** ****** ****** ****** ****** ****** ****** ******
      ****** ****** ****** ****** ****** ****** ****** ****** ****** ******
      ****** ****** ****** ****** ****** ****** ****** ****** ****** ******
  17  ****** ****** ****** ****** ****** ****** ****** ****** ****** ******
      ****** ****** ****** ****** ****** ****** ****** ****** ****** ******
      ****** ****** ****** ****** ****** ****** ****** ****** ****** ******
  18  ****** ****** ****** ****** ****** ****** ****** ****** ****** ******
      ****** ****** ****** ****** ****** ****** ****** ****** ****** ******
      ****** ****** ****** ****** ****** ****** ****** ****** ****** ******
  19  ****** ****** ****** ****** ****** ****** ****** ****** ****** ******
      ****** ****** ****** ****** ****** ****** ****** ****** ****** ******
      ****** ****** ****** ****** ****** ****** ****** ****** ****** ******
  20  ****** ****** ****** ****** ****** ****** ****** ****** ****** ******
      ****** ****** ****** ****** ****** ****** ****** ****** ****** ******
      ****** ****** ****** ****** ****** ****** ****** ****** ****** ******
  21  ****** ****** ****** ****** ****** ****** ****** ****** ****** ******
      ****** ****** ****** ****** ****** ****** ****** ****** ****** ******
      ****** ****** ****** ****** ****** ****** ****** ****** ****** ******
  22  ****** ****** ****** ****** ****** ****** ****** ****** ****** ******
      ****** ****** ****** ****** ****** ****** ****** ****** ****** ******
      ****** ****** ****** ****** ****** ****** ****** ****** ****** ******
  23  ****** ****** ****** ****** ****** ****** ****** ****** ****** ******
      ****** ****** ****** ****** ****** ****** ****** ****** ****** ******
      ****** ****** ****** ****** ****** ****** ****** ****** ****** ******
  24  ****** ****** ****** ****** ****** ****** ****** ****** ****** ******
      ****** ****** ****** ****** ****** ****** ****** ****** ****** ******
      ****** ****** ****** ****** ****** ****** ****** ****** ****** ******
  25  ****** ****** ****** ****** ****** ****** ****** ****** ****** ******
      ****** ****** ****** ****** ****** ****** ****** ****** ****** ******
      ****** ****** ****** ****** ****** ****** ****** ****** ****** ******

 HEAD WILL BE SAVED ON UNIT   51 AT END OF TIME STEP    1, STRESS PERIOD   10
1
  VOLUMETRIC BUDGET FOR ENTIRE MODEL AT END OF TIME STEP    1, STRESS PERIOD  10
  ------------------------------------------------------------------------------

     CUMULATIVE VOLUMES      L**3       RATES FOR THIS TIME STEP      L**3/T
     ------------------                 ------------------------

           IN:                                      IN:
           ---                                      ---
             STORAGE =    34672458.3967               STORAGE =           0.0000
       CONSTANT HEAD =    25978116.3684         CONSTANT HEAD =       32321.4362
               WELLS =           0.0000                 WELLS =           0.0000
            RECHARGE =    23901600.0000              RECHARGE =       55200.0000
      STREAM LEAKAGE =     9758306.7288        STREAM LEAKAGE =       10884.1730

            TOTAL IN =    94310481.4940              TOTAL IN =       98405.6091

          OUT:                                     OUT:
          ----                                     ----
             STORAGE =     2304011.5817               STORAGE =       15544.2023
       CONSTANT HEAD =           0.0000         CONSTANT HEAD =           0.0000
               WELLS =    35645400.5800                 WELLS =       39042.0598
            RECHARGE =           0.0000              RECHARGE =           0.0000
      STREAM LEAKAGE =    56361070.8895        STREAM LEAKAGE =       43819.3432

           TOTAL OUT =    94310483.0512             TOTAL OUT =       98405.6053

            IN - OUT =          -1.5572              IN - OUT =       3.8826E-03

 PERCENT DISCREPANCY =          -0.00     PERCENT DISCREPANCY =           0.00






         TIME SUMMARY AT END OF TIME STEP    1 IN STRESS PERIOD   10
                    SECONDS     MINUTES      HOURS       DAYS        YEARS
                    -----------------------------------------------------------
   TIME STEP LENGTH 7.86240E+06 1.31040E+05  2184.0      91.000     0.24914    
 STRESS PERIOD TIME 7.86240E+06 1.31040E+05  2184.0      91.000     0.24914    
         TOTAL TIME 7.88832E+07 1.31472E+06  21912.      913.00      2.4997    
1
1
                            STRESS PERIOD NO.   11, LENGTH =   91.00000    
                            -----------------------------------------------

                              NUMBER OF TIME STEPS =     1

                               MULTIPLIER FOR DELT =     1.500

                            INITIAL TIME STEP SIZE =   91.00000    

 WELL NO.  LAYER   ROW   COL   STRESS RATE         
 --------------------------------------------------
      1      1      8     21      -8122.    
      2      1      4     14      -6617.    
      3      1     10     23     -0.1245E+05
      4      1     14     17     -0.1185E+05

      4 WELLS

                 RECHARGE =   0.00000    

 REUSING STREAM SEGMENT DATA FROM LAST STRESS PERIOD
 
 SOLVING FOR HEAD 


     7 CALLS TO PCG ROUTINE FOR TIME STEP   1 IN STRESS PERIOD   11
    26 TOTAL ITERATIONS

 OUTPUT CONTROL FOR STRESS PERIOD   11   TIME STEP    1
    SAVE BUDGET
    SAVE HEAD FOR ALL LAYERS
    PRINT HEAD FOR ALL LAYERS
 UBDSV2 SAVING "STREAMFLOW OUT  " ON UNIT  50 AT TIME STEP  1, STRESS PERIOD  11



 STREAM LISTING     PERIOD     11   STEP        1

 LAYER ROW COL. STREAM  RCH.  FLOW INTO     FLOW TO   FLOW OUT OF   OVRLND.     DIRECT     STREAM       STREAM     STREAM     STREAM   STREAMBED  STREAMBED
                SEG.NO.  NO.  STRM. RCH.    AQUIFER    STRM. RCH.    RUNOFF     PRECIP       ET          HEAD       DEPTH      WIDTH   CONDCTNC.   GRADIENT

   1   13    1     1     1    1.0000E+05 -1.3191E+03   1.0132E+05  0.000E+00  0.000E+00  0.000E+00  4.84066E+01  1.452E-01  2.000E+01  2.000E+04 -6.596E-02
   1   13    2     1     2    1.0132E+05 -2.2228E+03   1.0354E+05  0.000E+00  0.000E+00  0.000E+00  4.79308E+01  1.468E-01  2.000E+01  2.000E+04 -1.111E-01
   1   14    3     1     3    1.0354E+05 -3.3798E+02   1.0388E+05  0.000E+00  0.000E+00  0.000E+00  4.74547E+01  1.478E-01  2.000E+01  2.000E+04 -1.690E-02
   1   15    4     1     4    1.0388E+05 -3.1703E+02   1.0420E+05  0.000E+00  0.000E+00  0.000E+00  4.69777E+01  1.481E-01  2.000E+01  2.000E+04 -1.585E-02
   1   16    5     1     5    1.0420E+05 -1.3729E+03   1.0557E+05  0.000E+00  0.000E+00  0.000E+00  4.65011E+01  1.488E-01  2.000E+01  2.000E+04 -6.865E-02
   1   16    6     1     6    1.0557E+05 -8.6082E+02   1.0643E+05  0.000E+00  0.000E+00  0.000E+00  4.60248E+01  1.498E-01  2.000E+01  2.000E+04 -4.304E-02
   1   16    7     1     7    1.0643E+05 -8.4261E+02   1.0727E+05  0.000E+00  0.000E+00  0.000E+00  4.55482E+01  1.505E-01  2.000E+01  2.000E+04 -4.213E-02
   1   16    8     1     8    1.0727E+05 -8.3505E+02   1.0811E+05  0.000E+00  0.000E+00  0.000E+00  4.50717E+01  1.512E-01  2.000E+01  2.000E+04 -4.175E-02
   1   16    9     1     9    1.0811E+05 -8.2183E+02   1.0893E+05  0.000E+00  0.000E+00  0.000E+00  4.45951E+01  1.519E-01  2.000E+01  2.000E+04 -4.109E-02
   1   16   10     1    10    1.0893E+05 -8.0050E+02   1.0973E+05  0.000E+00  0.000E+00  0.000E+00  4.41185E+01  1.526E-01  2.000E+01  2.000E+04 -4.003E-02
   1   16   11     1    11    1.0973E+05 -7.7799E+02   1.1051E+05  0.000E+00  0.000E+00  0.000E+00  4.36419E+01  1.533E-01  2.000E+01  2.000E+04 -3.890E-02
   1   16   12     1    12    1.1051E+05 -1.1115E+03   1.1162E+05  0.000E+00  0.000E+00  0.000E+00  4.31654E+01  1.541E-01  2.000E+01  2.000E+04 -5.558E-02
   1   15   13     1    13    1.1162E+05 -5.9390E+02   1.1221E+05  0.000E+00  0.000E+00  0.000E+00  4.26889E+01  1.548E-01  2.000E+01  2.000E+04 -2.970E-02
   1   14   14     1    14    1.1221E+05 -8.2837E+01   1.1230E+05  0.000E+00  0.000E+00  0.000E+00  4.22119E+01  1.550E-01  2.000E+01  2.000E+04 -4.142E-03
   1   13   15     1    15    1.1230E+05  4.9612E+02   1.1180E+05  0.000E+00  0.000E+00  0.000E+00  4.17344E+01  1.549E-01  2.000E+01  2.000E+04  2.481E-02
   1   12   16     1    16    1.1180E+05 -2.2757E+02   1.1203E+05  0.000E+00  0.000E+00  0.000E+00  4.12570E+01  1.548E-01  2.000E+01  2.000E+04 -1.138E-02
   1   12   17     1    17    1.1203E+05  1.0694E+03   1.1096E+05  0.000E+00  0.000E+00  0.000E+00  4.07794E+01  1.544E-01  2.000E+01  2.000E+04  5.347E-02
   1   12   18     1    18    1.1096E+05  6.9101E+02   1.1027E+05  0.000E+00  0.000E+00  0.000E+00  4.03014E+01  1.537E-01  2.000E+01  2.000E+04  3.455E-02
   1   12   19     1    19    1.1027E+05  6.6047E+02   1.0961E+05  0.000E+00  0.000E+00  0.000E+00  3.98236E+01  1.531E-01  2.000E+01  2.000E+04  3.302E-02
   1   13   20     1    20    1.0961E+05  8.3089E+02   1.0878E+05  0.000E+00  0.000E+00  0.000E+00  3.93457E+01  1.525E-01  2.000E+01  2.000E+04  4.154E-02
   1   14   21     1    21    1.0878E+05 -8.0431E+01   1.0886E+05  0.000E+00  0.000E+00  0.000E+00  3.88681E+01  1.522E-01  2.000E+01  2.000E+04 -4.022E-03
   1   14   22     1    22    1.0886E+05  5.2506E+03   1.0361E+05  0.000E+00  0.000E+00  0.000E+00  3.83886E+01  1.500E-01  2.000E+01  2.000E+04  2.625E-01
   1    9   30     2     1    5.0000E+04 -1.1627E+02   5.0116E+04  0.000E+00  0.000E+00  0.000E+00  4.02409E+01  1.159E-01  2.000E+01  2.000E+04 -5.814E-03
   1    9   29     2     2    5.0116E+04 -3.6229E+02   5.0479E+04  0.000E+00  0.000E+00  0.000E+00  3.99913E+01  1.163E-01  2.000E+01  2.000E+04 -1.811E-02
   1    9   28     2     3    5.0479E+04 -4.6756E+02   5.0946E+04  0.000E+00  0.000E+00  0.000E+00  3.97419E+01  1.169E-01  2.000E+01  2.000E+04 -2.338E-02
   1    9   27     2     4    5.0946E+04 -6.1482E+02   5.1561E+04  0.000E+00  0.000E+00  0.000E+00  3.94926E+01  1.176E-01  2.000E+01  2.000E+04 -3.074E-02
   1   10   26     2     5    5.1561E+04  7.7399E+02   5.0787E+04  0.000E+00  0.000E+00  0.000E+00  3.92425E+01  1.175E-01  2.000E+01  2.000E+04  3.870E-02
   1   11   25     2     6    5.0787E+04  1.8203E+03   4.8967E+04  0.000E+00  0.000E+00  0.000E+00  3.89907E+01  1.157E-01  2.000E+01  2.000E+04  9.102E-02
   1   12   24     2     7    4.8967E+04  1.9969E+03   4.6970E+04  0.000E+00  0.000E+00  0.000E+00  3.87380E+01  1.130E-01  2.000E+01  2.000E+04  9.985E-02
   1   13   23     2     8    4.6970E+04  2.5869E+02   4.6711E+04  0.000E+00  0.000E+00  0.000E+00  3.84864E+01  1.114E-01  2.000E+01  2.000E+04  1.293E-02
   1   14   22     2     9    4.6711E+04  2.1714E+03   4.4540E+04  0.000E+00  0.000E+00  0.000E+00  3.82347E+01  1.097E-01  2.000E+01  2.000E+04  1.086E-01
   1   14   22     3     1    1.4815E+05 -8.3209E+03   1.5647E+05  0.000E+00  0.000E+00  0.000E+00  3.77101E+01  1.545E-01  2.000E+01  2.000E+04 -4.160E-01
   1   15   23     3     2    1.5647E+05 -3.9330E+02   1.5686E+05  0.000E+00  0.000E+00  0.000E+00  3.68238E+01  1.571E-01  2.000E+01  2.000E+04 -1.966E-02
   1   15   24     3     3    1.5686E+05 -1.9863E+02   1.5706E+05  0.000E+00  0.000E+00  0.000E+00  3.59351E+01  1.573E-01  2.000E+01  2.000E+04 -9.932E-03
   1   15   25     3     4    1.5706E+05 -1.9628E+02   1.5726E+05  0.000E+00  0.000E+00  0.000E+00  3.50463E+01  1.574E-01  2.000E+01  2.000E+04 -9.814E-03
   1   15   26     3     5    1.5726E+05 -2.4760E+02   1.5750E+05  0.000E+00  0.000E+00  0.000E+00  3.41576E+01  1.576E-01  2.000E+01  2.000E+04 -1.238E-02
   1   16   27     3     6    1.5750E+05 -2.6630E+02   1.5777E+05  0.000E+00  0.000E+00  0.000E+00  3.32688E+01  1.577E-01  2.000E+01  2.000E+04 -1.331E-02
   1   17   28     3     7    1.5777E+05 -1.2904E+03   1.5906E+05  0.000E+00  0.000E+00  0.000E+00  3.23804E+01  1.582E-01  2.000E+01  2.000E+04 -6.452E-02
   1   18   29     3     8    1.5906E+05 -2.6092E+03   1.6167E+05  0.000E+00  0.000E+00  0.000E+00  3.14927E+01  1.594E-01  2.000E+01  2.000E+04 -1.305E-01
   1   18   30     3     9    1.6167E+05 -2.9551E+03   1.6462E+05  0.000E+00  0.000E+00  0.000E+00  3.06055E+01  1.610E-01  2.000E+01  2.000E+04 -1.478E-01



1
              HEAD IN LAYER   1 AT END OF TIME STEP   1 IN STRESS PERIOD   11
  ---------------------------------------------------------------------------

          1      2      3      4      5      6      7      8      9     10
         11     12     13     14     15     16     17     18     19     20
         21     22     23     24     25     26     27     28     29     30
 .........................................................................
   1  ****** ****** ****** ****** ****** ****** ****** ****** ****** ******
      ****** ****** ****** ****** ****** ****** ****** ****** ****** ******
      ****** ****** ****** ****** ****** ****** ****** ****** ****** ******
   2  ****** ****** ****** ****** ****** ****** ****** ****** ****** ******
      ****** ****** ****** ****** ****** ****** ****** ****** ****** ******
      ****** ****** ****** ****** ****** ****** ****** ****** ****** ******
   3  ****** ****** ****** ****** ****** ****** ****** ****** ****** ******
      ****** ****** ****** ****** ****** ****** ****** ****** ****** ******
      ****** ****** ****** ****** ****** ****** ****** ****** ****** ******
   4  ****** ****** ****** ****** ****** ****** ****** ****** ****** ******
      ****** ****** ****** ****** ****** ****** ****** ****** ****** ******
      ****** ****** ****** ****** ****** ****** ****** ****** ****** ******
   5  ****** ****** ****** ****** ****** ****** ****** ****** ****** ******
      ****** ****** ****** ****** ****** ****** ****** ****** ****** ******
      ****** ****** ****** ****** ****** ****** ****** ****** ****** ******
   6  ****** ****** ****** ****** ****** ****** ****** ****** ****** ******
      ****** ****** ****** ****** ****** ****** ****** ****** ****** ******
      ****** ****** ****** ****** ****** ****** ****** ****** ****** ******
   7  ****** ****** ****** ****** ****** ****** ****** ****** ****** ******
      ****** ****** ****** ****** ****** ****** ****** ****** ****** ******
      ****** ****** ****** ****** ****** ****** ****** ****** ****** ******
   8  ****** ****** ****** ****** ****** ****** ****** ****** ****** ******
      ****** ****** ****** ****** ****** ****** ****** ****** ****** ******
      ****** ****** ****** ****** ****** ****** ****** ****** ****** ******
   9  ****** ****** ****** ****** ****** ****** ****** ****** ****** ******
      ****** ****** ****** ****** ****** ****** ****** ****** ****** ******
      ****** ****** ****** ****** ****** ****** ****** ****** ****** ******
  10  ****** ****** ****** ****** ****** ****** ****** ****** ****** ******
      ****** ****** ****** ****** ****** ****** ****** ****** ****** ******
      ****** ****** ****** ****** ****** ****** ****** ****** ****** ******
  11  ****** ****** ****** ****** ****** ****** ****** ****** ****** ******
      ****** ****** ****** ****** ****** ****** ****** ****** ****** ******
      ****** ****** ****** ****** ****** ****** ****** ****** ****** ******
  12  ****** ****** ****** ****** ****** ****** ****** ****** ****** ******
      ****** ****** ****** ****** ****** ****** ****** ****** ****** ******
      ****** ****** ****** ****** ****** ****** ****** ****** ****** ******
  13  ****** ****** ****** ****** ****** ****** ****** ****** ****** ******
      ****** ****** ****** ****** ****** ****** ****** ****** ****** ******
      ****** ****** ****** ****** ****** ****** ****** ****** ****** ******
  14  ****** ****** ****** ****** ****** ****** ****** ****** ****** ******
      ****** ****** ****** ****** ****** ****** ****** ****** ****** ******
      ****** ****** ****** ****** ****** ****** ****** ****** ****** ******
  15  ****** ****** ****** ****** ****** ****** ****** ****** ****** ******
      ****** ****** ****** ****** ****** ****** ****** ****** ****** ******
      ****** ****** ****** ****** ****** ****** ****** ****** ****** ******
  16  ****** ****** ****** ****** ****** ****** ****** ****** ****** ******
      ****** ****** ****** ****** ****** ****** ****** ****** ****** ******
      ****** ****** ****** ****** ****** ****** ****** ****** ****** ******
  17  ****** ****** ****** ****** ****** ****** ****** ****** ****** ******
      ****** ****** ****** ****** ****** ****** ****** ****** ****** ******
      ****** ****** ****** ****** ****** ****** ****** ****** ****** ******
  18  ****** ****** ****** ****** ****** ****** ****** ****** ****** ******
      ****** ****** ****** ****** ****** ****** ****** ****** ****** ******
      ****** ****** ****** ****** ****** ****** ****** ****** ****** ******
  19  ****** ****** ****** ****** ****** ****** ****** ****** ****** ******
      ****** ****** ****** ****** ****** ****** ****** ****** ****** ******
      ****** ****** ****** ****** ****** ****** ****** ****** ****** ******
  20  ****** ****** ****** ****** ****** ****** ****** ****** ****** ******
      ****** ****** ****** ****** ****** ****** ****** ****** ****** ******
      ****** ****** ****** ****** ****** ****** ****** ****** ****** ******
  21  ****** ****** ****** ****** ****** ****** ****** ****** ****** ******
      ****** ****** ****** ****** ****** ****** ****** ****** ****** ******
      ****** ****** ****** ****** ****** ****** ****** ****** ****** ******
  22  ****** ****** ****** ****** ****** ****** ****** ****** ****** ******
      ****** ****** ****** ****** ****** ****** ****** ****** ****** ******
      ****** ****** ****** ****** ****** ****** ****** ****** ****** ******
  23  ****** ****** ****** ****** ****** ****** ****** ****** ****** ******
      ****** ****** ****** ****** ****** ****** ****** ****** ****** ******
      ****** ****** ****** ****** ****** ****** ****** ****** ****** ******
  24  ****** ****** ****** ****** ****** ****** ****** ****** ****** ******
      ****** ****** ****** ****** ****** ****** ****** ****** ****** ******
      ****** ****** ****** ****** ****** ****** ****** ****** ****** ******
  25  ****** ****** ****** ****** ****** ****** ****** ****** ****** ******
      ****** ****** ****** ****** ****** ****** ****** ****** ****** ******
      ****** ****** ****** ****** ****** ****** ****** ****** ****** ******

 HEAD WILL BE SAVED ON UNIT   51 AT END OF TIME STEP    1, STRESS PERIOD   11
1
  VOLUMETRIC BUDGET FOR ENTIRE MODEL AT END OF TIME STEP    1, STRESS PERIOD  11
  ------------------------------------------------------------------------------

     CUMULATIVE VOLUMES      L**3       RATES FOR THIS TIME STEP      L**3/T
     ------------------                 ------------------------

           IN:                                      IN:
           ---                                      ---
             STORAGE =    36314732.3692               STORAGE =       18046.9667
       CONSTANT HEAD =    29219434.0463         CONSTANT HEAD =       35618.8756
               WELLS =           0.0000                 WELLS =           0.0000
            RECHARGE =    23901600.0000              RECHARGE =           0.0000
      STREAM LEAKAGE =    11216111.9298        STREAM LEAKAGE =       16019.8374

            TOTAL IN =   100651878.3453              TOTAL IN =       69685.6797

          OUT:                                     OUT:
          ----                                     ----
             STORAGE =     2304011.5817               STORAGE =           0.0000
       CONSTANT HEAD =           0.0000         CONSTANT HEAD =           0.0000
               WELLS =    39198228.0201                 WELLS =       39042.0598
            RECHARGE =           0.0000              RECHARGE =           0.0000
      STREAM LEAKAGE =    59149640.7592        STREAM LEAKAGE =       30643.6249

           TOTAL OUT =   100651880.3610             TOTAL OUT =       69685.6847

            IN - OUT =          -2.0157              IN - OUT =      -5.0381E-03

 PERCENT DISCREPANCY =          -0.00     PERCENT DISCREPANCY =          -0.00






         TIME SUMMARY AT END OF TIME STEP    1 IN STRESS PERIOD   11
                    SECONDS     MINUTES      HOURS       DAYS        YEARS
                    -----------------------------------------------------------
   TIME STEP LENGTH 7.86240E+06 1.31040E+05  2184.0      91.000     0.24914    
 STRESS PERIOD TIME 7.86240E+06 1.31040E+05  2184.0      91.000     0.24914    
         TOTAL TIME 8.67456E+07 1.44576E+06  24096.      1004.0      2.7488    
1
1
                            STRESS PERIOD NO.   12, LENGTH =   91.00000    
                            -----------------------------------------------

                              NUMBER OF TIME STEPS =     1

                               MULTIPLIER FOR DELT =     1.500

                            INITIAL TIME STEP SIZE =   91.00000    

 WELL NO.  LAYER   ROW   COL   STRESS RATE         
 --------------------------------------------------
      1      1      8     21      -8122.    
      2      1      4     14      -6617.    
      3      1     10     23     -0.1245E+05
      4      1     14     17     -0.1185E+05

      4 WELLS

                 RECHARGE =  1.000000E-03

 REUSING STREAM SEGMENT DATA FROM LAST STRESS PERIOD
 
 SOLVING FOR HEAD 


     7 CALLS TO PCG ROUTINE FOR TIME STEP   1 IN STRESS PERIOD   12
    24 TOTAL ITERATIONS

 OUTPUT CONTROL FOR STRESS PERIOD   12   TIME STEP    1
    SAVE BUDGET
    SAVE HEAD FOR ALL LAYERS
    PRINT HEAD FOR ALL LAYERS
 UBDSV2 SAVING "STREAMFLOW OUT  " ON UNIT  50 AT TIME STEP  1, STRESS PERIOD  12



 STREAM LISTING     PERIOD     12   STEP        1

 LAYER ROW COL. STREAM  RCH.  FLOW INTO     FLOW TO   FLOW OUT OF   OVRLND.     DIRECT     STREAM       STREAM     STREAM     STREAM   STREAMBED  STREAMBED
                SEG.NO.  NO.  STRM. RCH.    AQUIFER    STRM. RCH.    RUNOFF     PRECIP       ET          HEAD       DEPTH      WIDTH   CONDCTNC.   GRADIENT

   1   13    1     1     1    1.0000E+05 -1.4606E+03   1.0146E+05  0.000E+00  0.000E+00  0.000E+00  4.84066E+01  1.453E-01  2.000E+01  2.000E+04 -7.303E-02
   1   13    2     1     2    1.0146E+05 -2.3746E+03   1.0384E+05  0.000E+00  0.000E+00  0.000E+00  4.79310E+01  1.469E-01  2.000E+01  2.000E+04 -1.187E-01
   1   14    3     1     3    1.0384E+05 -4.1604E+02   1.0425E+05  0.000E+00  0.000E+00  0.000E+00  4.74550E+01  1.481E-01  2.000E+01  2.000E+04 -2.080E-02
   1   15    4     1     4    1.0425E+05 -3.9900E+02   1.0465E+05  0.000E+00  0.000E+00  0.000E+00  4.69780E+01  1.485E-01  2.000E+01  2.000E+04 -1.995E-02
   1   16    5     1     5    1.0465E+05 -1.5825E+03   1.0623E+05  0.000E+00  0.000E+00  0.000E+00  4.65016E+01  1.493E-01  2.000E+01  2.000E+04 -7.913E-02
   1   16    6     1     6    1.0623E+05 -9.9096E+02   1.0722E+05  0.000E+00  0.000E+00  0.000E+00  4.60254E+01  1.504E-01  2.000E+01  2.000E+04 -4.955E-02
   1   16    7     1     7    1.0722E+05 -9.6763E+02   1.0819E+05  0.000E+00  0.000E+00  0.000E+00  4.55490E+01  1.512E-01  2.000E+01  2.000E+04 -4.838E-02
   1   16    8     1     8    1.0819E+05 -9.5904E+02   1.0915E+05  0.000E+00  0.000E+00  0.000E+00  4.50725E+01  1.521E-01  2.000E+01  2.000E+04 -4.795E-02
   1   16    9     1     9    1.0915E+05 -9.4630E+02   1.1010E+05  0.000E+00  0.000E+00  0.000E+00  4.45960E+01  1.529E-01  2.000E+01  2.000E+04 -4.731E-02
   1   16   10     1    10    1.1010E+05 -9.2639E+02   1.1102E+05  0.000E+00  0.000E+00  0.000E+00  4.41195E+01  1.536E-01  2.000E+01  2.000E+04 -4.632E-02
   1   16   11     1    11    1.1102E+05 -9.0620E+02   1.1193E+05  0.000E+00  0.000E+00  0.000E+00  4.36430E+01  1.544E-01  2.000E+01  2.000E+04 -4.531E-02
   1   16   12     1    12    1.1193E+05 -1.3130E+03   1.1324E+05  0.000E+00  0.000E+00  0.000E+00  4.31667E+01  1.553E-01  2.000E+01  2.000E+04 -6.565E-02
   1   15   13     1    13    1.1324E+05 -8.0996E+02   1.1405E+05  0.000E+00  0.000E+00  0.000E+00  4.26903E+01  1.562E-01  2.000E+01  2.000E+04 -4.050E-02
   1   14   14     1    14    1.1405E+05 -2.9905E+02   1.1435E+05  0.000E+00  0.000E+00  0.000E+00  4.22135E+01  1.566E-01  2.000E+01  2.000E+04 -1.495E-02
   1   13   15     1    15    1.1435E+05  2.8756E+02   1.1406E+05  0.000E+00  0.000E+00  0.000E+00  4.17362E+01  1.567E-01  2.000E+01  2.000E+04  1.438E-02
   1   12   16     1    16    1.1406E+05 -4.0906E+02   1.1447E+05  0.000E+00  0.000E+00  0.000E+00  4.12590E+01  1.567E-01  2.000E+01  2.000E+04 -2.045E-02
   1   12   17     1    17    1.1447E+05  9.1688E+02   1.1356E+05  0.000E+00  0.000E+00  0.000E+00  4.07815E+01  1.565E-01  2.000E+01  2.000E+04  4.584E-02
   1   12   18     1    18    1.1356E+05  5.3616E+02   1.1302E+05  0.000E+00  0.000E+00  0.000E+00  4.03036E+01  1.559E-01  2.000E+01  2.000E+04  2.681E-02
   1   12   19     1    19    1.1302E+05  4.6898E+02   1.1255E+05  0.000E+00  0.000E+00  0.000E+00  3.98259E+01  1.555E-01  2.000E+01  2.000E+04  2.345E-02
   1   13   20     1    20    1.1255E+05  6.2085E+02   1.1193E+05  0.000E+00  0.000E+00  0.000E+00  3.93482E+01  1.550E-01  2.000E+01  2.000E+04  3.104E-02
   1   14   21     1    21    1.1193E+05 -2.7454E+02   1.1220E+05  0.000E+00  0.000E+00  0.000E+00  3.88708E+01  1.549E-01  2.000E+01  2.000E+04 -1.373E-02
   1   14   22     1    22    1.1220E+05  5.1971E+03   1.0701E+05  0.000E+00  0.000E+00  0.000E+00  3.83915E+01  1.528E-01  2.000E+01  2.000E+04  2.599E-01
   1    9   30     2     1    5.0000E+04 -2.9246E+02   5.0292E+04  0.000E+00  0.000E+00  0.000E+00  4.02411E+01  1.161E-01  2.000E+01  2.000E+04 -1.462E-02
   1    9   29     2     2    5.0292E+04 -5.3642E+02   5.0829E+04  0.000E+00  0.000E+00  0.000E+00  3.99916E+01  1.166E-01  2.000E+01  2.000E+04 -2.682E-02
   1    9   28     2     3    5.0829E+04 -6.3811E+02   5.1467E+04  0.000E+00  0.000E+00  0.000E+00  3.97425E+01  1.175E-01  2.000E+01  2.000E+04 -3.191E-02
   1    9   27     2     4    5.1467E+04 -8.2335E+02   5.2290E+04  0.000E+00  0.000E+00  0.000E+00  3.94935E+01  1.185E-01  2.000E+01  2.000E+04 -4.117E-02
   1   10   26     2     5    5.2290E+04  5.4470E+02   5.1746E+04  0.000E+00  0.000E+00  0.000E+00  3.92436E+01  1.186E-01  2.000E+01  2.000E+04  2.724E-02
   1   11   25     2     6    5.1746E+04  1.5949E+03   5.0151E+04  0.000E+00  0.000E+00  0.000E+00  3.89922E+01  1.172E-01  2.000E+01  2.000E+04  7.975E-02
   1   12   24     2     7    5.0151E+04  1.7913E+03   4.8359E+04  0.000E+00  0.000E+00  0.000E+00  3.87398E+01  1.148E-01  2.000E+01  2.000E+04  8.956E-02
   1   13   23     2     8    4.8359E+04  1.8115E+02   4.8178E+04  0.000E+00  0.000E+00  0.000E+00  3.84884E+01  1.134E-01  2.000E+01  2.000E+04  9.058E-03
   1   14   22     2     9    4.8178E+04  2.1042E+03   4.6074E+04  0.000E+00  0.000E+00  0.000E+00  3.82368E+01  1.118E-01  2.000E+01  2.000E+04  1.052E-01
   1   14   22     3     1    1.5308E+05 -8.3712E+03   1.6145E+05  0.000E+00  0.000E+00  0.000E+00  3.77131E+01  1.575E-01  2.000E+01  2.000E+04 -4.186E-01
   1   15   23     3     2    1.6145E+05 -4.6536E+02   1.6192E+05  0.000E+00  0.000E+00  0.000E+00  3.68268E+01  1.601E-01  2.000E+01  2.000E+04 -2.327E-02
   1   15   24     3     3    1.6192E+05 -2.6373E+02   1.6218E+05  0.000E+00  0.000E+00  0.000E+00  3.59381E+01  1.604E-01  2.000E+01  2.000E+04 -1.319E-02
   1   15   25     3     4    1.6218E+05 -2.6265E+02   1.6244E+05  0.000E+00  0.000E+00  0.000E+00  3.50494E+01  1.605E-01  2.000E+01  2.000E+04 -1.313E-02
   1   15   26     3     5    1.6244E+05 -3.2509E+02   1.6277E+05  0.000E+00  0.000E+00  0.000E+00  3.41607E+01  1.607E-01  2.000E+01  2.000E+04 -1.625E-02
   1   16   27     3     6    1.6277E+05 -3.5310E+02   1.6312E+05  0.000E+00  0.000E+00  0.000E+00  3.32720E+01  1.609E-01  2.000E+01  2.000E+04 -1.765E-02
   1   17   28     3     7    1.6312E+05 -1.5112E+03   1.6463E+05  0.000E+00  0.000E+00  0.000E+00  3.23837E+01  1.614E-01  2.000E+01  2.000E+04 -7.556E-02
   1   18   29     3     8    1.6463E+05 -2.8100E+03   1.6744E+05  0.000E+00  0.000E+00  0.000E+00  3.14960E+01  1.627E-01  2.000E+01  2.000E+04 -1.405E-01
   1   18   30     3     9    1.6744E+05 -3.1234E+03   1.7057E+05  0.000E+00  0.000E+00  0.000E+00  3.06089E+01  1.645E-01  2.000E+01  2.000E+04 -1.562E-01



1
              HEAD IN LAYER   1 AT END OF TIME STEP   1 IN STRESS PERIOD   12
  ---------------------------------------------------------------------------

          1      2      3      4      5      6      7      8      9     10
         11     12     13     14     15     16     17     18     19     20
         21     22     23     24     25     26     27     28     29     30
 .........................................................................
   1  ****** ****** ****** ****** ****** ****** ****** ****** ****** ******
      ****** ****** ****** ****** ****** ****** ****** ****** ****** ******
      ****** ****** ****** ****** ****** ****** ****** ****** ****** ******
   2  ****** ****** ****** ****** ****** ****** ****** ****** ****** ******
      ****** ****** ****** ****** ****** ****** ****** ****** ****** ******
      ****** ****** ****** ****** ****** ****** ****** ****** ****** ******
   3  ****** ****** ****** ****** ****** ****** ****** ****** ****** ******
      ****** ****** ****** ****** ****** ****** ****** ****** ****** ******
      ****** ****** ****** ****** ****** ****** ****** ****** ****** ******
   4  ****** ****** ****** ****** ****** ****** ****** ****** ****** ******
      ****** ****** ****** ****** ****** ****** ****** ****** ****** ******
      ****** ****** ****** ****** ****** ****** ****** ****** ****** ******
   5  ****** ****** ****** ****** ****** ****** ****** ****** ****** ******
      ****** ****** ****** ****** ****** ****** ****** ****** ****** ******
      ****** ****** ****** ****** ****** ****** ****** ****** ****** ******
   6  ****** ****** ****** ****** ****** ****** ****** ****** ****** ******
      ****** ****** ****** ****** ****** ****** ****** ****** ****** ******
      ****** ****** ****** ****** ****** ****** ****** ****** ****** ******
   7  ****** ****** ****** ****** ****** ****** ****** ****** ****** ******
      ****** ****** ****** ****** ****** ****** ****** ****** ****** ******
      ****** ****** ****** ****** ****** ****** ****** ****** ****** ******
   8  ****** ****** ****** ****** ****** ****** ****** ****** ****** ******
      ****** ****** ****** ****** ****** ****** ****** ****** ****** ******
      ****** ****** ****** ****** ****** ****** ****** ****** ****** ******
   9  ****** ****** ****** ****** ****** ****** ****** ****** ****** ******
      ****** ****** ****** ****** ****** ****** ****** ****** ****** ******
      ****** ****** ****** ****** ****** ****** ****** ****** ****** ******
  10  ****** ****** ****** ****** ****** ****** ****** ****** ****** ******
      ****** ****** ****** ****** ****** ****** ****** ****** ****** ******
      ****** ****** ****** ****** ****** ****** ****** ****** ****** ******
  11  ****** ****** ****** ****** ****** ****** ****** ****** ****** ******
      ****** ****** ****** ****** ****** ****** ****** ****** ****** ******
      ****** ****** ****** ****** ****** ****** ****** ****** ****** ******
  12  ****** ****** ****** ****** ****** ****** ****** ****** ****** ******
      ****** ****** ****** ****** ****** ****** ****** ****** ****** ******
      ****** ****** ****** ****** ****** ****** ****** ****** ****** ******
  13  ****** ****** ****** ****** ****** ****** ****** ****** ****** ******
      ****** ****** ****** ****** ****** ****** ****** ****** ****** ******
      ****** ****** ****** ****** ****** ****** ****** ****** ****** ******
  14  ****** ****** ****** ****** ****** ****** ****** ****** ****** ******
      ****** ****** ****** ****** ****** ****** ****** ****** ****** ******
      ****** ****** ****** ****** ****** ****** ****** ****** ****** ******
  15  ****** ****** ****** ****** ****** ****** ****** ****** ****** ******
      ****** ****** ****** ****** ****** ****** ****** ****** ****** ******
      ****** ****** ****** ****** ****** ****** ****** ****** ****** ******
  16  ****** ****** ****** ****** ****** ****** ****** ****** ****** ******
      ****** ****** ****** ****** ****** ****** ****** ****** ****** ******
      ****** ****** ****** ****** ****** ****** ****** ****** ****** ******
  17  ****** ****** ****** ****** ****** ****** ****** ****** ****** ******
      ****** ****** ****** ****** ****** ****** ****** ****** ****** ******
      ****** ****** ****** ****** ****** ****** ****** ****** ****** ******
  18  ****** ****** ****** ****** ****** ****** ****** ****** ****** ******
      ****** ****** ****** ****** ****** ****** ****** ****** ****** ******
      ****** ****** ****** ****** ****** ****** ****** ****** ****** ******
  19  ****** ****** ****** ****** ****** ****** ****** ****** ****** ******
      ****** ****** ****** ****** ****** ****** ****** ****** ****** ******
      ****** ****** ****** ****** ****** ****** ****** ****** ****** ******
  20  ****** ****** ****** ****** ****** ****** ****** ****** ****** ******
      ****** ****** ****** ****** ****** ****** ****** ****** ****** ******
      ****** ****** ****** ****** ****** ****** ****** ****** ****** ******
  21  ****** ****** ****** ****** ****** ****** ****** ****** ****** ******
      ****** ****** ****** ****** ****** ****** ****** ****** ****** ******
      ****** ****** ****** ****** ****** ****** ****** ****** ****** ******
  22  ****** ****** ****** ****** ****** ****** ****** ****** ****** ******
      ****** ****** ****** ****** ****** ****** ****** ****** ****** ******
      ****** ****** ****** ****** ****** ****** ****** ****** ****** ******
  23  ****** ****** ****** ****** ****** ****** ****** ****** ****** ******
      ****** ****** ****** ****** ****** ****** ****** ****** ****** ******
      ****** ****** ****** ****** ****** ****** ****** ****** ****** ******
  24  ****** ****** ****** ****** ****** ****** ****** ****** ****** ******
      ****** ****** ****** ****** ****** ****** ****** ****** ****** ******
      ****** ****** ****** ****** ****** ****** ****** ****** ****** ******
  25  ****** ****** ****** ****** ****** ****** ****** ****** ****** ******
      ****** ****** ****** ****** ****** ****** ****** ****** ****** ******
      ****** ****** ****** ****** ****** ****** ****** ****** ****** ******

 HEAD WILL BE SAVED ON UNIT   51 AT END OF TIME STEP    1, STRESS PERIOD   12
1
  VOLUMETRIC BUDGET FOR ENTIRE MODEL AT END OF TIME STEP    1, STRESS PERIOD  12
  ------------------------------------------------------------------------------

     CUMULATIVE VOLUMES      L**3       RATES FOR THIS TIME STEP      L**3/T
     ------------------                 ------------------------

           IN:                                      IN:
           ---                                      ---
             STORAGE =    36317155.7853               STORAGE =          26.6309
       CONSTANT HEAD =    32398176.1605         CONSTANT HEAD =       34931.2320
               WELLS =           0.0000                 WELLS =           0.0000
            RECHARGE =    26413200.0000              RECHARGE =       27600.0000
      STREAM LEAKAGE =    12512295.1202        STREAM LEAKAGE =       14243.7713

            TOTAL IN =   107640827.0660              TOTAL IN =       76801.6343

          OUT:                                     OUT:
          ----                                     ----
             STORAGE =     2572330.3061               STORAGE =        2948.5574
       CONSTANT HEAD =           0.0000         CONSTANT HEAD =           0.0000
               WELLS =    42751055.4601                 WELLS =       39042.0598
            RECHARGE =           0.0000              RECHARGE =           0.0000
      STREAM LEAKAGE =    62317443.2318        STREAM LEAKAGE =       34811.0162

           TOTAL OUT =   107640828.9980             TOTAL OUT =       76801.6334

            IN - OUT =          -1.9320              IN - OUT =       9.1951E-04

 PERCENT DISCREPANCY =          -0.00     PERCENT DISCREPANCY =           0.00






         TIME SUMMARY AT END OF TIME STEP    1 IN STRESS PERIOD   12
                    SECONDS     MINUTES      HOURS       DAYS        YEARS
                    -----------------------------------------------------------
   TIME STEP LENGTH 7.86240E+06 1.31040E+05  2184.0      91.000     0.24914    
 STRESS PERIOD TIME 7.86240E+06 1.31040E+05  2184.0      91.000     0.24914    
         TOTAL TIME 9.46080E+07 1.57680E+06  26280.      1095.0      2.9979    
1

 Run end date and time (yyyy/mm/dd hh:mm:ss): 2018/10/10 18:02:03
 Elapsed run time:  0.068 Seconds

