                                  MODFLOW-2005     
      U.S. GEOLOGICAL SURVEY MODULAR FINITE-DIFFERENCE GROUND-WATER FLOW MODEL
                            VERSION 1.11.00 8/8/2013

 LIST FILE: supply2.lst
                         UNIT   10

 OPENING ..\data\supply.dis
 FILE TYPE:DIS   UNIT   11   STATUS:OLD    
 FORMAT:FORMATTED              ACCESS:SEQUENTIAL          

 OPENING ..\data\supply.ba6
 FILE TYPE:BAS6   UNIT   12   STATUS:OLD    
 FORMAT:FORMATTED              ACCESS:SEQUENTIAL          

 OPENING ..\data\supply_het.bc6
 FILE TYPE:BCF6   UNIT   13   STATUS:OLD    
 FORMAT:FORMATTED              ACCESS:SEQUENTIAL          

 OPENING ..\data\supply.rch
 FILE TYPE:RCH   UNIT   15   STATUS:OLD    
 FORMAT:FORMATTED              ACCESS:SEQUENTIAL          

 OPENING ..\data\supply2.sfr
 FILE TYPE:SFR   UNIT   16   STATUS:OLD    
 FORMAT:FORMATTED              ACCESS:SEQUENTIAL          

 OPENING ..\data\supply.oc
 FILE TYPE:OC   UNIT   17   STATUS:OLD    
 FORMAT:FORMATTED              ACCESS:SEQUENTIAL          

 OPENING ..\data\supply.pcg
 FILE TYPE:PCG   UNIT   18   STATUS:OLD    
 FORMAT:FORMATTED              ACCESS:SEQUENTIAL          

 OPENING supply2.wel
 FILE TYPE:WEL   UNIT   19   STATUS:OLD    
 FORMAT:FORMATTED              ACCESS:SEQUENTIAL          

 OPENING supply2sf.cbc
 FILE TYPE:DATA(BINARY)   UNIT   50   STATUS:UNKNOWN
 FORMAT:BINARY                 ACCESS:SEQUENTIAL          

 OPENING supply2hd.bhd
 FILE TYPE:DATA(BINARY)   UNIT   51   STATUS:UNKNOWN
 FORMAT:BINARY                 ACCESS:SEQUENTIAL          

 BAS -- BASIC PACKAGE, VERSION 7, 5/2/2005 INPUT READ FROM UNIT   12
 
 MODFLOW was compiled using uniform precision
 Precision of REAL and DOUBLE PRECISION variables:          15

 DISCRETIZATION INPUT DATA READ FROM UNIT   11
    1 LAYERS        25 ROWS        30 COLUMNS
   12 STRESS PERIOD(S) IN SIMULATION
 MODEL TIME UNIT IS DAYS
 MODEL LENGTH UNIT IS UNDEFINED
  Confining bed flag for each layer:
   0

                     DELR =   200.000    

                     DELC =   200.000    

 TOP ELEVATION OF LAYER 1 =  100.0000    

   MODEL LAYER BOTTOM EL. =   0.00000     FOR LAYER   1


 STRESS PERIOD     LENGTH       TIME STEPS     MULTIPLIER FOR DELT    SS FLAG
 ----------------------------------------------------------------------------
        1         92.00000          1                    1.500         TR
        2         91.00000          1                    1.500         TR
        3         91.00000          1                    1.500         TR
        4         91.00000          1                    1.500         TR
        5         92.00000          1                    1.500         TR
        6         91.00000          1                    1.500         TR
        7         91.00000          1                    1.500         TR
        8         91.00000          1                    1.500         TR
        9         92.00000          1                    1.500         TR
       10         91.00000          1                    1.500         TR
       11         91.00000          1                    1.500         TR
       12         91.00000          1                    1.500         TR

 TRANSIENT SIMULATION



 
 #MODOFC transient water supply sample problem                                   
 #                                                                               
 THE FREE FORMAT OPTION HAS BEEN SELECTED



                     BOUNDARY ARRAY FOR LAYER   1
 READING ON UNIT   12 WITH FORMAT: (20I4)              

 AQUIFER HEAD WILL BE SET TO   0.0000     AT ALL NO-FLOW NODES (IBOUND=0).



                       INITIAL HEAD FOR LAYER   1
 READING ON UNIT   12 WITH FORMAT: (10F13.0)           

 OUTPUT CONTROL IS SPECIFIED ONLY AT TIME STEPS FOR WHICH OUTPUT IS DESIRED
 COMPACT CELL-BY-CELL BUDGET FILES WILL BE WRITTEN
 HEAD PRINT FORMAT CODE IS  18    DRAWDOWN PRINT FORMAT CODE IS   0
 HEADS WILL BE SAVED ON UNIT   51    DRAWDOWNS WILL BE SAVED ON UNIT    0

 BCF -- BLOCK-CENTERED FLOW PACKAGE, VERSION 7, 5/2/2005
         INPUT READ FROM UNIT 13
 TRANSIENT SIMULATION
 HEAD AT CELLS THAT CONVERT TO DRY=   0.0000    
 WETTING CAPABILITY IS NOT ACTIVE
      LAYER  LAYER-TYPE CODE     INTERBLOCK T
      --------------------------------------------
         1            0          0 -- HARMONIC    

 COLUMN TO ROW ANISOTROPY =  1.000000    

     PRIMARY STORAGE COEF =  5.000000E-02 FOR LAYER   1



               TRANSMIS. ALONG ROWS FOR LAYER   1
 READING ON UNIT   13 WITH FORMAT: (FREE)              

 WEL -- WELL PACKAGE, VERSION 7, 5/2/2005 INPUT READ FROM UNIT   19
 # Well package input file written by MMProc
 No named parameters
 MAXIMUM OF      4 ACTIVE WELLS AT ONE TIME


     0 Well parameters

 RCH -- RECHARGE PACKAGE, VERSION 7, 5/2/2005 INPUT READ FROM UNIT   15
 No named parameters
 OPTION 1 -- RECHARGE TO TOP LAYER


     0 Recharge parameters

 SFR7 -- STREAMFLOW ROUTING PACKAGE, VERSION 1.0.7, 2013-01-15
         INPUT READ FROM UNIT  16
 #  Supply2 test problem for GWM-VI
 #  The eighth entry in the first data line is ISTCB2 -
 #    Setting this to a negative number indicates that
 #    streamflows out of the reach will be saved to a
 #    binary file.  The absolute value of ISTCB2 is the
 #    unit to which unformatted flows will be written.
 #
 No named parameters
 Segment information will not be 
 read by reach
 No named parameters
 No specifed inflow files


 NUMBER OF STREAM REACHES IS   40

 NUMBER OF STREAM SEGMENTS IS    3

 NUMBER OF STREAM PARAMETERS IS    0

 NUMBER OF STREAM SEGMENTS DEFINED USING PARAMETERS IS              0

 MAXIMUM ERROR FOR STREAM LEAKAGE RATES IS  1.00E-04

 CONSTANT FOR MANNINGS EQUATION IS  1.2839E+05





   STREAM NETWORK DESCRIPTION: 

   LAYER    ROW    COL   SEGMENT   REACH     LENGTH
                          NUMBER   NUMBER    IN CELL        
   --------------------------------------------------
      1     13      1       1        1    2.0000E+02
      1     13      2       1        2    2.0000E+02
      1     14      3       1        3    2.0000E+02
      1     15      4       1        4    2.0000E+02
      1     16      5       1        5    2.0000E+02
      1     16      6       1        6    2.0000E+02
      1     16      7       1        7    2.0000E+02
      1     16      8       1        8    2.0000E+02
      1     16      9       1        9    2.0000E+02
      1     16     10       1       10    2.0000E+02
      1     16     11       1       11    2.0000E+02
      1     16     12       1       12    2.0000E+02
      1     15     13       1       13    2.0000E+02
      1     14     14       1       14    2.0000E+02
      1     13     15       1       15    2.0000E+02
      1     12     16       1       16    2.0000E+02
      1     12     17       1       17    2.0000E+02
      1     12     18       1       18    2.0000E+02
      1     12     19       1       19    2.0000E+02
      1     13     20       1       20    2.0000E+02
      1     14     21       1       21    2.0000E+02
      1     14     22       1       22    2.0000E+02
      1      9     30       2        1    2.0000E+02
      1      9     29       2        2    2.0000E+02
      1      9     28       2        3    2.0000E+02
      1      9     27       2        4    2.0000E+02
      1     10     26       2        5    2.0000E+02
      1     11     25       2        6    2.0000E+02
      1     12     24       2        7    2.0000E+02
      1     13     23       2        8    2.0000E+02
      1     14     22       2        9    2.0000E+02
      1     14     22       3        1    2.0000E+02
      1     15     23       3        2    2.0000E+02
      1     15     24       3        3    2.0000E+02
      1     15     25       3        4    2.0000E+02
      1     15     26       3        5    2.0000E+02
      1     16     27       3        6    2.0000E+02
      1     17     28       3        7    2.0000E+02
      1     18     29       3        8    2.0000E+02
      1     18     30       3        9    2.0000E+02




 PCG -- CONJUGATE-GRADIENT SOLUTION PACKAGE, VERSION 7, 5/2/2005
 MAXIMUM OF    500 CALLS OF SOLUTION ROUTINE
 MAXIMUM OF      5 INTERNAL ITERATIONS PER CALL TO SOLUTION ROUTINE
 MATRIX PRECONDITIONING TYPE :    1



                                    SOLUTION BY THE CONJUGATE-GRADIENT METHOD
                                   -------------------------------------------
                    MAXIMUM NUMBER OF CALLS TO PCG ROUTINE =      500
                        MAXIMUM ITERATIONS PER CALL TO PCG =        5
                               MATRIX PRECONDITIONING TYPE =        1
        RELAXATION FACTOR (ONLY USED WITH PRECOND. TYPE 1) =    0.10000E+01
 PARAMETER OF POLYNOMIAL PRECOND. = 2 (2) OR IS CALCULATED :        0
                         HEAD CHANGE CRITERION FOR CLOSURE =    0.10000E-05
                     RESIDUAL CHANGE CRITERION FOR CLOSURE =    0.10000E+01
            PCG HEAD AND RESIDUAL CHANGE PRINTOUT INTERVAL =        1
     PRINTING FROM SOLVER IS LIMITED(1) OR SUPPRESSED (>1) =        1
                            STEADY-STATE DAMPING PARAMETER =    0.10000E+01
                               TRANSIENT DAMPING PARAMETER =    0.10000E+01
1
                            STRESS PERIOD NO.    1, LENGTH =   92.00000    
                            -----------------------------------------------

                              NUMBER OF TIME STEPS =     1

                               MULTIPLIER FOR DELT =     1.500

                            INITIAL TIME STEP SIZE =   92.00000    

 WELL NO.  LAYER   ROW   COL   STRESS RATE         
 --------------------------------------------------
      1      1      9     21     -0.1443E+05
      2      1      5     25      -7885.    
      3      1     22     18      -7019.    
      4      1     19      6      -9882.    

      4 WELLS

                 RECHARGE =  5.000000E-04



 CLASSIFICATION & COUNT OF STREAM SEGMENTS BASED ON SOURCE OF INFLOW:

                HEADWATER     DIVERSION     RECEIVES TRIBUTARY FLOW
                ---------     ---------     -----------------------
                     2              0               1



                    INPUT DATA FOR EACH STREAM SEGMENT
 ---------------------------------------------------------------------------------------------

 SEGMENT    SEG.     INFLOW   OVERLAND   STREAM    STREAM   ICALC  OUTFLOW  DIVERSION PRIORITY
    NO.    LENGTH     RATE     RUNOFF      ET       PPT.    METH.  TO SEG.  FROM SEG.    NO.

      1  4.400E+03 1.000E+05 0.000E+00 0.000E+00 0.000E+00    1        3        0        0
      2  1.800E+03 5.000E+04 0.000E+00 0.000E+00 0.000E+00    1        3        0        0
      3  1.800E+03 0.000E+00 0.000E+00 0.000E+00 0.000E+00    1        0        0        0


         STREAMBED PROPERTIES AND STREAM DIMENSIONS

 SEGMENT     BED HYD. COND.      BED THICKNESS     ELEV.-TOP OF BED     WIDTH OF STREAM     DEPTH OF STREAM    STREAM ROUGHNESS
    No.     UPPER     LOWER     UPPER     LOWER     UPPER     LOWER     UPPER     LOWER     UPPER     LOWER   CHANNEL      BANK

     1  5.000E+00 5.000E+00 1.000E+00 1.000E+00 4.850E+01 3.800E+01 2.000E+01 2.000E+01                     5.000E-02
     2  5.000E+00 5.000E+00 1.000E+00 1.000E+00 4.025E+01 3.800E+01 2.000E+01 2.000E+01                     5.000E-02
     3  5.000E+00 5.000E+00 1.000E+00 1.000E+00 3.800E+01 3.000E+01 2.000E+01 2.000E+01                     5.000E-02



 
 SOLVING FOR HEAD 


     9 CALLS TO PCG ROUTINE FOR TIME STEP   1 IN STRESS PERIOD    1
    36 TOTAL ITERATIONS

 OUTPUT CONTROL FOR STRESS PERIOD    1   TIME STEP    1
    SAVE BUDGET
    SAVE HEAD FOR ALL LAYERS
    PRINT HEAD FOR ALL LAYERS
 UBDSV2 SAVING "STREAMFLOW OUT  " ON UNIT  50 AT TIME STEP  1, STRESS PERIOD   1



 STREAM LISTING     PERIOD      1   STEP        1

 LAYER ROW COL. STREAM  RCH.  FLOW INTO     FLOW TO   FLOW OUT OF   OVRLND.     DIRECT     STREAM       STREAM     STREAM     STREAM   STREAMBED  STREAMBED
                SEG.NO.  NO.  STRM. RCH.    AQUIFER    STRM. RCH.    RUNOFF     PRECIP       ET          HEAD       DEPTH      WIDTH   CONDCTNC.   GRADIENT

   1   13    1     1     1    1.0000E+05 -5.9738E+03   1.0597E+05  0.000E+00  0.000E+00  0.000E+00  4.84086E+01  1.472E-01  2.000E+01  2.000E+04 -2.987E-01
   1   13    2     1     2    1.0597E+05 -7.4493E+03   1.1342E+05  0.000E+00  0.000E+00  0.000E+00  4.79370E+01  1.529E-01  2.000E+01  2.000E+04 -3.725E-01
   1   14    3     1     3    1.1342E+05 -2.1465E+03   1.1557E+05  0.000E+00  0.000E+00  0.000E+00  4.74637E+01  1.569E-01  2.000E+01  2.000E+04 -1.073E-01
   1   15    4     1     4    1.1557E+05 -2.1620E+03   1.1773E+05  0.000E+00  0.000E+00  0.000E+00  4.69882E+01  1.587E-01  2.000E+01  2.000E+04 -1.081E-01
   1   16    5     1     5    1.1773E+05 -5.8964E+03   1.2363E+05  0.000E+00  0.000E+00  0.000E+00  4.65142E+01  1.619E-01  2.000E+01  2.000E+04 -2.948E-01
   1   16    6     1     6    1.2363E+05 -3.3109E+03   1.2694E+05  0.000E+00  0.000E+00  0.000E+00  4.60406E+01  1.656E-01  2.000E+01  2.000E+04 -1.655E-01
   1   16    7     1     7    1.2694E+05 -3.3365E+03   1.3028E+05  0.000E+00  0.000E+00  0.000E+00  4.55659E+01  1.682E-01  2.000E+01  2.000E+04 -1.668E-01
   1   16    8     1     8    1.3028E+05 -3.5166E+03   1.3379E+05  0.000E+00  0.000E+00  0.000E+00  4.50914E+01  1.709E-01  2.000E+01  2.000E+04 -1.758E-01
   1   16    9     1     9    1.3379E+05 -3.6744E+03   1.3747E+05  0.000E+00  0.000E+00  0.000E+00  4.46169E+01  1.737E-01  2.000E+01  2.000E+04 -1.837E-01
   1   16   10     1    10    1.3747E+05 -3.7790E+03   1.4125E+05  0.000E+00  0.000E+00  0.000E+00  4.41424E+01  1.765E-01  2.000E+01  2.000E+04 -1.889E-01
   1   16   11     1    11    1.4125E+05 -3.8681E+03   1.4511E+05  0.000E+00  0.000E+00  0.000E+00  4.36680E+01  1.794E-01  2.000E+01  2.000E+04 -1.934E-01
   1   16   12     1    12    1.4511E+05 -6.6497E+03   1.5176E+05  0.000E+00  0.000E+00  0.000E+00  4.31947E+01  1.833E-01  2.000E+01  2.000E+04 -3.325E-01
   1   15   13     1    13    1.5176E+05 -7.0958E+03   1.5886E+05  0.000E+00  0.000E+00  0.000E+00  4.27225E+01  1.884E-01  2.000E+01  2.000E+04 -3.548E-01
   1   14   14     1    14    1.5886E+05 -7.6295E+03   1.6649E+05  0.000E+00  0.000E+00  0.000E+00  4.22505E+01  1.937E-01  2.000E+01  2.000E+04 -3.815E-01
   1   13   15     1    15    1.6649E+05 -7.9718E+03   1.7446E+05  0.000E+00  0.000E+00  0.000E+00  4.17788E+01  1.992E-01  2.000E+01  2.000E+04 -3.986E-01
   1   12   16     1    16    1.7446E+05 -8.4795E+03   1.8294E+05  0.000E+00  0.000E+00  0.000E+00  4.13072E+01  2.049E-01  2.000E+01  2.000E+04 -4.240E-01
   1   12   17     1    17    1.8294E+05 -5.8564E+03   1.8880E+05  0.000E+00  0.000E+00  0.000E+00  4.08348E+01  2.098E-01  2.000E+01  2.000E+04 -2.928E-01
   1   12   18     1    18    1.8880E+05 -5.4850E+03   1.9428E+05  0.000E+00  0.000E+00  0.000E+00  4.03614E+01  2.136E-01  2.000E+01  2.000E+04 -2.743E-01
   1   12   19     1    19    1.9428E+05 -6.2374E+03   2.0052E+05  0.000E+00  0.000E+00  0.000E+00  3.98880E+01  2.175E-01  2.000E+01  2.000E+04 -3.119E-01
   1   13   20     1    20    2.0052E+05 -5.8450E+03   2.0636E+05  0.000E+00  0.000E+00  0.000E+00  3.94147E+01  2.215E-01  2.000E+01  2.000E+04 -2.923E-01
   1   14   21     1    21    2.0636E+05 -5.8943E+03   2.1226E+05  0.000E+00  0.000E+00  0.000E+00  3.89412E+01  2.253E-01  2.000E+01  2.000E+04 -2.947E-01
   1   14   22     1    22    2.1226E+05  3.8181E+03   2.0844E+05  0.000E+00  0.000E+00  0.000E+00  3.84646E+01  2.260E-01  2.000E+01  2.000E+04  1.909E-01
   1    9   30     2     1    5.0000E+04 -4.5152E+03   5.4515E+04  0.000E+00  0.000E+00  0.000E+00  4.02440E+01  1.190E-01  2.000E+01  2.000E+04 -2.258E-01
   1    9   29     2     2    5.4515E+04 -4.7592E+03   5.9274E+04  0.000E+00  0.000E+00  0.000E+00  4.00002E+01  1.252E-01  2.000E+01  2.000E+04 -2.380E-01
   1    9   28     2     3    5.9274E+04 -4.9185E+03   6.4193E+04  0.000E+00  0.000E+00  0.000E+00  3.97565E+01  1.315E-01  2.000E+01  2.000E+04 -2.459E-01
   1    9   27     2     4    6.4193E+04 -7.0858E+03   7.1279E+04  0.000E+00  0.000E+00  0.000E+00  3.95140E+01  1.390E-01  2.000E+01  2.000E+04 -3.543E-01
   1   10   26     2     5    7.1279E+04 -6.2622E+03   7.7541E+04  0.000E+00  0.000E+00  0.000E+00  3.92721E+01  1.471E-01  2.000E+01  2.000E+04 -3.131E-01
   1   11   25     2     6    7.7541E+04 -5.6899E+03   8.3231E+04  0.000E+00  0.000E+00  0.000E+00  3.90291E+01  1.541E-01  2.000E+01  2.000E+04 -2.845E-01
   1   12   24     2     7    8.3231E+04 -5.1250E+03   8.8356E+04  0.000E+00  0.000E+00  0.000E+00  3.87852E+01  1.602E-01  2.000E+01  2.000E+04 -2.563E-01
   1   13   23     2     8    8.8356E+04 -1.4667E+03   8.9822E+04  0.000E+00  0.000E+00  0.000E+00  3.85389E+01  1.639E-01  2.000E+01  2.000E+04 -7.333E-02
   1   14   22     2     9    8.9822E+04  3.1547E+02   8.9507E+04  0.000E+00  0.000E+00  0.000E+00  3.82895E+01  1.645E-01  2.000E+01  2.000E+04  1.577E-02
   1   14   22     3     1    2.9795E+05 -9.6965E+03   3.0764E+05  0.000E+00  0.000E+00  0.000E+00  3.77889E+01  2.333E-01  2.000E+01  2.000E+04 -4.848E-01
   1   15   23     3     2    3.0764E+05 -1.9459E+03   3.0959E+05  0.000E+00  0.000E+00  0.000E+00  3.69027E+01  2.360E-01  2.000E+01  2.000E+04 -9.730E-02
   1   15   24     3     3    3.0959E+05 -1.5212E+03   3.1111E+05  0.000E+00  0.000E+00  0.000E+00  3.60146E+01  2.368E-01  2.000E+01  2.000E+04 -7.606E-02
   1   15   25     3     4    3.1111E+05 -1.5747E+03   3.1268E+05  0.000E+00  0.000E+00  0.000E+00  3.51264E+01  2.375E-01  2.000E+01  2.000E+04 -7.874E-02
   1   15   26     3     5    3.1268E+05 -1.8803E+03   3.1457E+05  0.000E+00  0.000E+00  0.000E+00  3.42383E+01  2.383E-01  2.000E+01  2.000E+04 -9.401E-02
   1   16   27     3     6    3.1457E+05 -2.1601E+03   3.1673E+05  0.000E+00  0.000E+00  0.000E+00  3.33503E+01  2.392E-01  2.000E+01  2.000E+04 -1.080E-01
   1   17   28     3     7    3.1673E+05 -6.5530E+03   3.2328E+05  0.000E+00  0.000E+00  0.000E+00  3.24634E+01  2.412E-01  2.000E+01  2.000E+04 -3.276E-01
   1   18   29     3     8    3.2328E+05 -7.9312E+03   3.3121E+05  0.000E+00  0.000E+00  0.000E+00  3.15778E+01  2.445E-01  2.000E+01  2.000E+04 -3.966E-01
   1   18   30     3     9    3.3121E+05 -7.1380E+03   3.3835E+05  0.000E+00  0.000E+00  0.000E+00  3.06923E+01  2.478E-01  2.000E+01  2.000E+04 -3.569E-01



1
              HEAD IN LAYER   1 AT END OF TIME STEP   1 IN STRESS PERIOD    1
  ---------------------------------------------------------------------------

          1      2      3      4      5      6      7      8      9     10
         11     12     13     14     15     16     17     18     19     20
         21     22     23     24     25     26     27     28     29     30
 .........................................................................
   1  ****** ****** ****** ****** ****** ****** ****** ****** ****** ******
      ****** ****** ****** ****** ****** ****** ****** ****** ****** ******
      ****** ****** ****** ****** ****** ****** ****** ****** ****** ******
   2  ****** ****** ****** ****** ****** ****** ****** ****** ****** ******
      ****** ****** ****** ****** ****** ****** ****** ****** ****** ******
      ****** ****** ****** ****** ****** ****** ****** ****** ****** ******
   3  ****** ****** ****** ****** ****** ****** ****** ****** ****** ******
      ****** ****** ****** ****** ****** ****** ****** ****** ****** ******
      ****** ****** ****** ****** ****** ****** ****** ****** ****** ******
   4  ****** ****** ****** ****** ****** ****** ****** ****** ****** ******
      ****** ****** ****** ****** ****** ****** ****** ****** ****** ******
      ****** ****** ****** ****** ****** ****** ****** ****** ****** ******
   5  ****** ****** ****** ****** ****** ****** ****** ****** ****** ******
      ****** ****** ****** ****** ****** ****** ****** ****** ****** ******
      ****** ****** ****** ****** ****** ****** ****** ****** ****** ******
   6  ****** ****** ****** ****** ****** ****** ****** ****** ****** ******
      ****** ****** ****** ****** ****** ****** ****** ****** ****** ******
      ****** ****** ****** ****** ****** ****** ****** ****** ****** ******
   7  ****** ****** ****** ****** ****** ****** ****** ****** ****** ******
      ****** ****** ****** ****** ****** ****** ****** ****** ****** ******
      ****** ****** ****** ****** ****** ****** ****** ****** ****** ******
   8  ****** ****** ****** ****** ****** ****** ****** ****** ****** ******
      ****** ****** ****** ****** ****** ****** ****** ****** ****** ******
      ****** ****** ****** ****** ****** ****** ****** ****** ****** ******
   9  ****** ****** ****** ****** ****** ****** ****** ****** ****** ******
      ****** ****** ****** ****** ****** ****** ****** ****** ****** ******
      ****** ****** ****** ****** ****** ****** ****** ****** ****** ******
  10  ****** ****** ****** ****** ****** ****** ****** ****** ****** ******
      ****** ****** ****** ****** ****** ****** ****** ****** ****** ******
      ****** ****** ****** ****** ****** ****** ****** ****** ****** ******
  11  ****** ****** ****** ****** ****** ****** ****** ****** ****** ******
      ****** ****** ****** ****** ****** ****** ****** ****** ****** ******
      ****** ****** ****** ****** ****** ****** ****** ****** ****** ******
  12  ****** ****** ****** ****** ****** ****** ****** ****** ****** ******
      ****** ****** ****** ****** ****** ****** ****** ****** ****** ******
      ****** ****** ****** ****** ****** ****** ****** ****** ****** ******
  13  ****** ****** ****** ****** ****** ****** ****** ****** ****** ******
      ****** ****** ****** ****** ****** ****** ****** ****** ****** ******
      ****** ****** ****** ****** ****** ****** ****** ****** ****** ******
  14  ****** ****** ****** ****** ****** ****** ****** ****** ****** ******
      ****** ****** ****** ****** ****** ****** ****** ****** ****** ******
      ****** ****** ****** ****** ****** ****** ****** ****** ****** ******
  15  ****** ****** ****** ****** ****** ****** ****** ****** ****** ******
      ****** ****** ****** ****** ****** ****** ****** ****** ****** ******
      ****** ****** ****** ****** ****** ****** ****** ****** ****** ******
  16  ****** ****** ****** ****** ****** ****** ****** ****** ****** ******
      ****** ****** ****** ****** ****** ****** ****** ****** ****** ******
      ****** ****** ****** ****** ****** ****** ****** ****** ****** ******
  17  ****** ****** ****** ****** ****** ****** ****** ****** ****** ******
      ****** ****** ****** ****** ****** ****** ****** ****** ****** ******
      ****** ****** ****** ****** ****** ****** ****** ****** ****** ******
  18  ****** ****** ****** ****** ****** ****** ****** ****** ****** ******
      ****** ****** ****** ****** ****** ****** ****** ****** ****** ******
      ****** ****** ****** ****** ****** ****** ****** ****** ****** ******
  19  ****** ****** ****** ****** ****** ****** ****** ****** ****** ******
      ****** ****** ****** ****** ****** ****** ****** ****** ****** ******
      ****** ****** ****** ****** ****** ****** ****** ****** ****** ******
  20  ****** ****** ****** ****** ****** ****** ****** ****** ****** ******
      ****** ****** ****** ****** ****** ****** ****** ****** ****** ******
      ****** ****** ****** ****** ****** ****** ****** ****** ****** ******
  21  ****** ****** ****** ****** ****** ****** ****** ****** ****** ******
      ****** ****** ****** ****** ****** ****** ****** ****** ****** ******
      ****** ****** ****** ****** ****** ****** ****** ****** ****** ******
  22  ****** ****** ****** ****** ****** ****** ****** ****** ****** ******
      ****** ****** ****** ****** ****** ****** ****** ****** ****** ******
      ****** ****** ****** ****** ****** ****** ****** ****** ****** ******
  23  ****** ****** ****** ****** ****** ****** ****** ****** ****** ******
      ****** ****** ****** ****** ****** ****** ****** ****** ****** ******
      ****** ****** ****** ****** ****** ****** ****** ****** ****** ******
  24  ****** ****** ****** ****** ****** ****** ****** ****** ****** ******
      ****** ****** ****** ****** ****** ****** ****** ****** ****** ******
      ****** ****** ****** ****** ****** ****** ****** ****** ****** ******
  25  ****** ****** ****** ****** ****** ****** ****** ****** ****** ******
      ****** ****** ****** ****** ****** ****** ****** ****** ****** ******
      ****** ****** ****** ****** ****** ****** ****** ****** ****** ******

 HEAD WILL BE SAVED ON UNIT   51 AT END OF TIME STEP    1, STRESS PERIOD    1
1
  VOLUMETRIC BUDGET FOR ENTIRE MODEL AT END OF TIME STEP    1, STRESS PERIOD   1
  ------------------------------------------------------------------------------

     CUMULATIVE VOLUMES      L**3       RATES FOR THIS TIME STEP      L**3/T
     ------------------                 ------------------------

           IN:                                      IN:
           ---                                      ---
             STORAGE =    18419255.7316               STORAGE =      200209.3014
       CONSTANT HEAD =     1247067.6582         CONSTANT HEAD =       13555.0832
               WELLS =           0.0000                 WELLS =           0.0000
            RECHARGE =     1269600.0000              RECHARGE =       13800.0000
      STREAM LEAKAGE =      380292.7512        STREAM LEAKAGE =        4133.6169

            TOTAL IN =    21316216.1410              TOTAL IN =      231698.0015

          OUT:                                     OUT:
          ----                                     ----
             STORAGE =           0.0000               STORAGE =           0.0000
       CONSTANT HEAD =           0.0000         CONSTANT HEAD =           0.0000
               WELLS =     3607945.7563                 WELLS =       39216.8017
            RECHARGE =           0.0000              RECHARGE =           0.0000
      STREAM LEAKAGE =    17708270.6795        STREAM LEAKAGE =      192481.2030

           TOTAL OUT =    21316216.4357             TOTAL OUT =      231698.0047

            IN - OUT =          -0.2947              IN - OUT =      -3.2033E-03

 PERCENT DISCREPANCY =          -0.00     PERCENT DISCREPANCY =          -0.00






         TIME SUMMARY AT END OF TIME STEP    1 IN STRESS PERIOD    1
                    SECONDS     MINUTES      HOURS       DAYS        YEARS
                    -----------------------------------------------------------
   TIME STEP LENGTH 7.94880E+06 1.32480E+05  2208.0      92.000     0.25188    
 STRESS PERIOD TIME 7.94880E+06 1.32480E+05  2208.0      92.000     0.25188    
         TOTAL TIME 7.94880E+06 1.32480E+05  2208.0      92.000     0.25188    
1
1
                            STRESS PERIOD NO.    2, LENGTH =   91.00000    
                            -----------------------------------------------

                              NUMBER OF TIME STEPS =     1

                               MULTIPLIER FOR DELT =     1.500

                            INITIAL TIME STEP SIZE =   91.00000    

 WELL NO.  LAYER   ROW   COL   STRESS RATE         
 --------------------------------------------------
      1      1      9     21     -0.1443E+05
      2      1      5     25      -7885.    
      3      1     22     18      -7019.    
      4      1     19      6      -9882.    

      4 WELLS

                 RECHARGE =  2.000000E-03

 REUSING STREAM SEGMENT DATA FROM LAST STRESS PERIOD
 
 SOLVING FOR HEAD 


     7 CALLS TO PCG ROUTINE FOR TIME STEP   1 IN STRESS PERIOD    2
    27 TOTAL ITERATIONS

 OUTPUT CONTROL FOR STRESS PERIOD    2   TIME STEP    1
    SAVE BUDGET
    SAVE HEAD FOR ALL LAYERS
    PRINT HEAD FOR ALL LAYERS
 UBDSV2 SAVING "STREAMFLOW OUT  " ON UNIT  50 AT TIME STEP  1, STRESS PERIOD   2



 STREAM LISTING     PERIOD      2   STEP        1

 LAYER ROW COL. STREAM  RCH.  FLOW INTO     FLOW TO   FLOW OUT OF   OVRLND.     DIRECT     STREAM       STREAM     STREAM     STREAM   STREAMBED  STREAMBED
                SEG.NO.  NO.  STRM. RCH.    AQUIFER    STRM. RCH.    RUNOFF     PRECIP       ET          HEAD       DEPTH      WIDTH   CONDCTNC.   GRADIENT

   1   13    1     1     1    1.0000E+05 -3.7567E+03   1.0376E+05  0.000E+00  0.000E+00  0.000E+00  4.84076E+01  1.463E-01  2.000E+01  2.000E+04 -1.878E-01
   1   13    2     1     2    1.0376E+05 -5.0298E+03   1.0879E+05  0.000E+00  0.000E+00  0.000E+00  4.79341E+01  1.500E-01  2.000E+01  2.000E+04 -2.515E-01
   1   14    3     1     3    1.0879E+05 -1.0290E+03   1.0982E+05  0.000E+00  0.000E+00  0.000E+00  4.74594E+01  1.526E-01  2.000E+01  2.000E+04 -5.145E-02
   1   15    4     1     4    1.0982E+05 -9.7995E+02   1.1080E+05  0.000E+00  0.000E+00  0.000E+00  4.69830E+01  1.534E-01  2.000E+01  2.000E+04 -4.900E-02
   1   16    5     1     5    1.1080E+05 -2.4997E+03   1.1330E+05  0.000E+00  0.000E+00  0.000E+00  4.65071E+01  1.549E-01  2.000E+01  2.000E+04 -1.250E-01
   1   16    6     1     6    1.1330E+05 -1.2603E+03   1.1456E+05  0.000E+00  0.000E+00  0.000E+00  4.60314E+01  1.564E-01  2.000E+01  2.000E+04 -6.302E-02
   1   16    7     1     7    1.1456E+05 -1.3875E+03   1.1594E+05  0.000E+00  0.000E+00  0.000E+00  4.55552E+01  1.575E-01  2.000E+01  2.000E+04 -6.938E-02
   1   16    8     1     8    1.1594E+05 -1.6071E+03   1.1755E+05  0.000E+00  0.000E+00  0.000E+00  4.50792E+01  1.587E-01  2.000E+01  2.000E+04 -8.035E-02
   1   16    9     1     9    1.1755E+05 -1.7786E+03   1.1933E+05  0.000E+00  0.000E+00  0.000E+00  4.46033E+01  1.601E-01  2.000E+01  2.000E+04 -8.893E-02
   1   16   10     1    10    1.1933E+05 -1.8777E+03   1.2121E+05  0.000E+00  0.000E+00  0.000E+00  4.41275E+01  1.616E-01  2.000E+01  2.000E+04 -9.389E-02
   1   16   11     1    11    1.2121E+05 -1.9414E+03   1.2315E+05  0.000E+00  0.000E+00  0.000E+00  4.36518E+01  1.631E-01  2.000E+01  2.000E+04 -9.707E-02
   1   16   12     1    12    1.2315E+05 -3.5313E+03   1.2668E+05  0.000E+00  0.000E+00  0.000E+00  4.31767E+01  1.653E-01  2.000E+01  2.000E+04 -1.766E-01
   1   15   13     1    13    1.2668E+05 -3.7121E+03   1.3039E+05  0.000E+00  0.000E+00  0.000E+00  4.27023E+01  1.682E-01  2.000E+01  2.000E+04 -1.856E-01
   1   14   14     1    14    1.3039E+05 -4.1549E+03   1.3455E+05  0.000E+00  0.000E+00  0.000E+00  4.22281E+01  1.712E-01  2.000E+01  2.000E+04 -2.077E-01
   1   13   15     1    15    1.3455E+05 -4.5096E+03   1.3906E+05  0.000E+00  0.000E+00  0.000E+00  4.17541E+01  1.746E-01  2.000E+01  2.000E+04 -2.255E-01
   1   12   16     1    16    1.3906E+05 -5.1605E+03   1.4422E+05  0.000E+00  0.000E+00  0.000E+00  4.12805E+01  1.782E-01  2.000E+01  2.000E+04 -2.580E-01
   1   12   17     1    17    1.4422E+05 -3.1806E+03   1.4740E+05  0.000E+00  0.000E+00  0.000E+00  4.08064E+01  1.814E-01  2.000E+01  2.000E+04 -1.590E-01
   1   12   18     1    18    1.4740E+05 -2.7565E+03   1.5015E+05  0.000E+00  0.000E+00  0.000E+00  4.03313E+01  1.836E-01  2.000E+01  2.000E+04 -1.378E-01
   1   12   19     1    19    1.5015E+05 -2.7043E+03   1.5286E+05  0.000E+00  0.000E+00  0.000E+00  3.98561E+01  1.856E-01  2.000E+01  2.000E+04 -1.352E-01
   1   13   20     1    20    1.5286E+05 -2.4358E+03   1.5529E+05  0.000E+00  0.000E+00  0.000E+00  3.93807E+01  1.875E-01  2.000E+01  2.000E+04 -1.218E-01
   1   14   21     1    21    1.5529E+05 -2.9462E+03   1.5824E+05  0.000E+00  0.000E+00  0.000E+00  3.89054E+01  1.894E-01  2.000E+01  2.000E+04 -1.473E-01
   1   14   22     1    22    1.5824E+05  4.6419E+03   1.5360E+05  0.000E+00  0.000E+00  0.000E+00  3.84275E+01  1.888E-01  2.000E+01  2.000E+04  2.321E-01
   1    9   30     2     1    5.0000E+04 -1.6002E+03   5.1600E+04  0.000E+00  0.000E+00  0.000E+00  4.02420E+01  1.170E-01  2.000E+01  2.000E+04 -8.001E-02
   1    9   29     2     2    5.1600E+04 -1.8421E+03   5.3442E+04  0.000E+00  0.000E+00  0.000E+00  3.99943E+01  1.193E-01  2.000E+01  2.000E+04 -9.210E-02
   1    9   28     2     3    5.3442E+04 -1.9790E+03   5.5421E+04  0.000E+00  0.000E+00  0.000E+00  3.97469E+01  1.219E-01  2.000E+01  2.000E+04 -9.895E-02
   1    9   27     2     4    5.5421E+04 -3.1201E+03   5.8541E+04  0.000E+00  0.000E+00  0.000E+00  3.95003E+01  1.253E-01  2.000E+01  2.000E+04 -1.560E-01
   1   10   26     2     5    5.8541E+04 -2.2672E+03   6.0809E+04  0.000E+00  0.000E+00  0.000E+00  3.92538E+01  1.288E-01  2.000E+01  2.000E+04 -1.134E-01
   1   11   25     2     6    6.0809E+04 -1.8885E+03   6.2697E+04  0.000E+00  0.000E+00  0.000E+00  3.90065E+01  1.315E-01  2.000E+01  2.000E+04 -9.442E-02
   1   12   24     2     7    6.2697E+04 -1.6899E+03   6.4387E+04  0.000E+00  0.000E+00  0.000E+00  3.87588E+01  1.338E-01  2.000E+01  2.000E+04 -8.449E-02
   1   13   23     2     8    6.4387E+04 -3.7142E+02   6.4758E+04  0.000E+00  0.000E+00  0.000E+00  3.85101E+01  1.351E-01  2.000E+01  2.000E+04 -1.857E-02
   1   14   22     2     9    6.4758E+04  1.2829E+03   6.3475E+04  0.000E+00  0.000E+00  0.000E+00  3.82595E+01  1.345E-01  2.000E+01  2.000E+04  6.414E-02
   1   14   22     3     1    2.1707E+05 -8.9273E+03   2.2600E+05  0.000E+00  0.000E+00  0.000E+00  3.77490E+01  1.934E-01  2.000E+01  2.000E+04 -4.464E-01
   1   15   23     3     2    2.2600E+05 -9.7553E+02   2.2698E+05  0.000E+00  0.000E+00  0.000E+00  3.68627E+01  1.960E-01  2.000E+01  2.000E+04 -4.878E-02
   1   15   24     3     3    2.2698E+05 -6.4615E+02   2.2762E+05  0.000E+00  0.000E+00  0.000E+00  3.59742E+01  1.965E-01  2.000E+01  2.000E+04 -3.231E-02
   1   15   25     3     4    2.2762E+05 -6.6001E+02   2.2828E+05  0.000E+00  0.000E+00  0.000E+00  3.50857E+01  1.968E-01  2.000E+01  2.000E+04 -3.300E-02
   1   15   26     3     5    2.2828E+05 -7.6658E+02   2.2905E+05  0.000E+00  0.000E+00  0.000E+00  3.41972E+01  1.972E-01  2.000E+01  2.000E+04 -3.833E-02
   1   16   27     3     6    2.2905E+05 -8.8748E+02   2.2994E+05  0.000E+00  0.000E+00  0.000E+00  3.33087E+01  1.976E-01  2.000E+01  2.000E+04 -4.437E-02
   1   17   28     3     7    2.2994E+05 -3.1981E+03   2.3313E+05  0.000E+00  0.000E+00  0.000E+00  3.24209E+01  1.986E-01  2.000E+01  2.000E+04 -1.599E-01
   1   18   29     3     8    2.3313E+05 -4.9173E+03   2.3805E+05  0.000E+00  0.000E+00  0.000E+00  3.15341E+01  2.007E-01  2.000E+01  2.000E+04 -2.459E-01
   1   18   30     3     9    2.3805E+05 -4.6034E+03   2.4265E+05  0.000E+00  0.000E+00  0.000E+00  3.06476E+01  2.031E-01  2.000E+01  2.000E+04 -2.302E-01



1
              HEAD IN LAYER   1 AT END OF TIME STEP   1 IN STRESS PERIOD    2
  ---------------------------------------------------------------------------

          1      2      3      4      5      6      7      8      9     10
         11     12     13     14     15     16     17     18     19     20
         21     22     23     24     25     26     27     28     29     30
 .........................................................................
   1  ****** ****** ****** ****** ****** ****** ****** ****** ****** ******
      ****** ****** ****** ****** ****** ****** ****** ****** ****** ******
      ****** ****** ****** ****** ****** ****** ****** ****** ****** ******
   2  ****** ****** ****** ****** ****** ****** ****** ****** ****** ******
      ****** ****** ****** ****** ****** ****** ****** ****** ****** ******
      ****** ****** ****** ****** ****** ****** ****** ****** ****** ******
   3  ****** ****** ****** ****** ****** ****** ****** ****** ****** ******
      ****** ****** ****** ****** ****** ****** ****** ****** ****** ******
      ****** ****** ****** ****** ****** ****** ****** ****** ****** ******
   4  ****** ****** ****** ****** ****** ****** ****** ****** ****** ******
      ****** ****** ****** ****** ****** ****** ****** ****** ****** ******
      ****** ****** ****** ****** ****** ****** ****** ****** ****** ******
   5  ****** ****** ****** ****** ****** ****** ****** ****** ****** ******
      ****** ****** ****** ****** ****** ****** ****** ****** ****** ******
      ****** ****** ****** ****** ****** ****** ****** ****** ****** ******
   6  ****** ****** ****** ****** ****** ****** ****** ****** ****** ******
      ****** ****** ****** ****** ****** ****** ****** ****** ****** ******
      ****** ****** ****** ****** ****** ****** ****** ****** ****** ******
   7  ****** ****** ****** ****** ****** ****** ****** ****** ****** ******
      ****** ****** ****** ****** ****** ****** ****** ****** ****** ******
      ****** ****** ****** ****** ****** ****** ****** ****** ****** ******
   8  ****** ****** ****** ****** ****** ****** ****** ****** ****** ******
      ****** ****** ****** ****** ****** ****** ****** ****** ****** ******
      ****** ****** ****** ****** ****** ****** ****** ****** ****** ******
   9  ****** ****** ****** ****** ****** ****** ****** ****** ****** ******
      ****** ****** ****** ****** ****** ****** ****** ****** ****** ******
      ****** ****** ****** ****** ****** ****** ****** ****** ****** ******
  10  ****** ****** ****** ****** ****** ****** ****** ****** ****** ******
      ****** ****** ****** ****** ****** ****** ****** ****** ****** ******
      ****** ****** ****** ****** ****** ****** ****** ****** ****** ******
  11  ****** ****** ****** ****** ****** ****** ****** ****** ****** ******
      ****** ****** ****** ****** ****** ****** ****** ****** ****** ******
      ****** ****** ****** ****** ****** ****** ****** ****** ****** ******
  12  ****** ****** ****** ****** ****** ****** ****** ****** ****** ******
      ****** ****** ****** ****** ****** ****** ****** ****** ****** ******
      ****** ****** ****** ****** ****** ****** ****** ****** ****** ******
  13  ****** ****** ****** ****** ****** ****** ****** ****** ****** ******
      ****** ****** ****** ****** ****** ****** ****** ****** ****** ******
      ****** ****** ****** ****** ****** ****** ****** ****** ****** ******
  14  ****** ****** ****** ****** ****** ****** ****** ****** ****** ******
      ****** ****** ****** ****** ****** ****** ****** ****** ****** ******
      ****** ****** ****** ****** ****** ****** ****** ****** ****** ******
  15  ****** ****** ****** ****** ****** ****** ****** ****** ****** ******
      ****** ****** ****** ****** ****** ****** ****** ****** ****** ******
      ****** ****** ****** ****** ****** ****** ****** ****** ****** ******
  16  ****** ****** ****** ****** ****** ****** ****** ****** ****** ******
      ****** ****** ****** ****** ****** ****** ****** ****** ****** ******
      ****** ****** ****** ****** ****** ****** ****** ****** ****** ******
  17  ****** ****** ****** ****** ****** ****** ****** ****** ****** ******
      ****** ****** ****** ****** ****** ****** ****** ****** ****** ******
      ****** ****** ****** ****** ****** ****** ****** ****** ****** ******
  18  ****** ****** ****** ****** ****** ****** ****** ****** ****** ******
      ****** ****** ****** ****** ****** ****** ****** ****** ****** ******
      ****** ****** ****** ****** ****** ****** ****** ****** ****** ******
  19  ****** ****** ****** ****** ****** ****** ****** ****** ****** ******
      ****** ****** ****** ****** ****** ****** ****** ****** ****** ******
      ****** ****** ****** ****** ****** ****** ****** ****** ****** ******
  20  ****** ****** ****** ****** ****** ****** ****** ****** ****** ******
      ****** ****** ****** ****** ****** ****** ****** ****** ****** ******
      ****** ****** ****** ****** ****** ****** ****** ****** ****** ******
  21  ****** ****** ****** ****** ****** ****** ****** ****** ****** ******
      ****** ****** ****** ****** ****** ****** ****** ****** ****** ******
      ****** ****** ****** ****** ****** ****** ****** ****** ****** ******
  22  ****** ****** ****** ****** ****** ****** ****** ****** ****** ******
      ****** ****** ****** ****** ****** ****** ****** ****** ****** ******
      ****** ****** ****** ****** ****** ****** ****** ****** ****** ******
  23  ****** ****** ****** ****** ****** ****** ****** ****** ****** ******
      ****** ****** ****** ****** ****** ****** ****** ****** ****** ******
      ****** ****** ****** ****** ****** ****** ****** ****** ****** ******
  24  ****** ****** ****** ****** ****** ****** ****** ****** ****** ******
      ****** ****** ****** ****** ****** ****** ****** ****** ****** ******
      ****** ****** ****** ****** ****** ****** ****** ****** ****** ******
  25  ****** ****** ****** ****** ****** ****** ****** ****** ****** ******
      ****** ****** ****** ****** ****** ****** ****** ****** ****** ******
      ****** ****** ****** ****** ****** ****** ****** ****** ****** ******

 HEAD WILL BE SAVED ON UNIT   51 AT END OF TIME STEP    1, STRESS PERIOD    2
1
  VOLUMETRIC BUDGET FOR ENTIRE MODEL AT END OF TIME STEP    1, STRESS PERIOD   2
  ------------------------------------------------------------------------------

     CUMULATIVE VOLUMES      L**3       RATES FOR THIS TIME STEP      L**3/T
     ------------------                 ------------------------

           IN:                                      IN:
           ---                                      ---
             STORAGE =    23679558.4953               STORAGE =       57805.5249
       CONSTANT HEAD =     2963894.9774         CONSTANT HEAD =       18866.2343
               WELLS =           0.0000                 WELLS =           0.0000
            RECHARGE =     6292800.0000              RECHARGE =       55200.0000
      STREAM LEAKAGE =      919445.6524        STREAM LEAKAGE =        5924.7572

            TOTAL IN =    33855699.1251              TOTAL IN =      137796.5163

          OUT:                                     OUT:
          ----                                     ----
             STORAGE =           0.0000               STORAGE =           0.0000
       CONSTANT HEAD =           0.0000         CONSTANT HEAD =           0.0000
               WELLS =     7176674.7108                 WELLS =       39216.8017
            RECHARGE =           0.0000              RECHARGE =           0.0000
      STREAM LEAKAGE =    26679025.7124        STREAM LEAKAGE =       98579.7256

           TOTAL OUT =    33855700.4232             TOTAL OUT =      137796.5273

            IN - OUT =          -1.2981              IN - OUT =      -1.1026E-02

 PERCENT DISCREPANCY =          -0.00     PERCENT DISCREPANCY =          -0.00






         TIME SUMMARY AT END OF TIME STEP    1 IN STRESS PERIOD    2
                    SECONDS     MINUTES      HOURS       DAYS        YEARS
                    -----------------------------------------------------------
   TIME STEP LENGTH 7.86240E+06 1.31040E+05  2184.0      91.000     0.24914    
 STRESS PERIOD TIME 7.86240E+06 1.31040E+05  2184.0      91.000     0.24914    
         TOTAL TIME 1.58112E+07 2.63520E+05  4392.0      183.00     0.50103    
1
1
                            STRESS PERIOD NO.    3, LENGTH =   91.00000    
                            -----------------------------------------------

                              NUMBER OF TIME STEPS =     1

                               MULTIPLIER FOR DELT =     1.500

                            INITIAL TIME STEP SIZE =   91.00000    

 WELL NO.  LAYER   ROW   COL   STRESS RATE         
 --------------------------------------------------
      1      1      9     21     -0.1443E+05
      2      1      5     25      -7885.    
      3      1     22     18      -7019.    
      4      1     19      6      -9882.    

      4 WELLS

                 RECHARGE =   0.00000    

 REUSING STREAM SEGMENT DATA FROM LAST STRESS PERIOD
 
 SOLVING FOR HEAD 


     7 CALLS TO PCG ROUTINE FOR TIME STEP   1 IN STRESS PERIOD    3
    27 TOTAL ITERATIONS

 OUTPUT CONTROL FOR STRESS PERIOD    3   TIME STEP    1
    SAVE BUDGET
    SAVE HEAD FOR ALL LAYERS
    PRINT HEAD FOR ALL LAYERS
 UBDSV2 SAVING "STREAMFLOW OUT  " ON UNIT  50 AT TIME STEP  1, STRESS PERIOD   3



 STREAM LISTING     PERIOD      3   STEP        1

 LAYER ROW COL. STREAM  RCH.  FLOW INTO     FLOW TO   FLOW OUT OF   OVRLND.     DIRECT     STREAM       STREAM     STREAM     STREAM   STREAMBED  STREAMBED
                SEG.NO.  NO.  STRM. RCH.    AQUIFER    STRM. RCH.    RUNOFF     PRECIP       ET          HEAD       DEPTH      WIDTH   CONDCTNC.   GRADIENT

   1   13    1     1     1    1.0000E+05 -2.4557E+03   1.0246E+05  0.000E+00  0.000E+00  0.000E+00  4.84071E+01  1.457E-01  2.000E+01  2.000E+04 -1.228E-01
   1   13    2     1     2    1.0246E+05 -3.5780E+03   1.0603E+05  0.000E+00  0.000E+00  0.000E+00  4.79324E+01  1.483E-01  2.000E+01  2.000E+04 -1.789E-01
   1   14    3     1     3    1.0603E+05 -5.5069E+02   1.0658E+05  0.000E+00  0.000E+00  0.000E+00  4.74569E+01  1.501E-01  2.000E+01  2.000E+04 -2.753E-02
   1   15    4     1     4    1.0658E+05 -4.4881E+02   1.0703E+05  0.000E+00  0.000E+00  0.000E+00  4.69800E+01  1.505E-01  2.000E+01  2.000E+04 -2.244E-02
   1   16    5     1     5    1.0703E+05 -5.0815E+02   1.0754E+05  0.000E+00  0.000E+00  0.000E+00  4.65032E+01  1.509E-01  2.000E+01  2.000E+04 -2.541E-02
   1   16    6     1     6    1.0754E+05 -1.6158E+02   1.0770E+05  0.000E+00  0.000E+00  0.000E+00  4.60262E+01  1.512E-01  2.000E+01  2.000E+04 -8.079E-03
   1   16    7     1     7    1.0770E+05 -3.5797E+02   1.0806E+05  0.000E+00  0.000E+00  0.000E+00  4.55491E+01  1.514E-01  2.000E+01  2.000E+04 -1.790E-02
   1   16    8     1     8    1.0806E+05 -6.0153E+02   1.0866E+05  0.000E+00  0.000E+00  0.000E+00  4.50722E+01  1.518E-01  2.000E+01  2.000E+04 -3.008E-02
   1   16    9     1     9    1.0866E+05 -7.8136E+02   1.0944E+05  0.000E+00  0.000E+00  0.000E+00  4.45956E+01  1.524E-01  2.000E+01  2.000E+04 -3.907E-02
   1   16   10     1    10    1.0944E+05 -8.8244E+02   1.1033E+05  0.000E+00  0.000E+00  0.000E+00  4.41190E+01  1.531E-01  2.000E+01  2.000E+04 -4.412E-02
   1   16   11     1    11    1.1033E+05 -9.3762E+02   1.1126E+05  0.000E+00  0.000E+00  0.000E+00  4.36425E+01  1.538E-01  2.000E+01  2.000E+04 -4.688E-02
   1   16   12     1    12    1.1126E+05 -1.7929E+03   1.1306E+05  0.000E+00  0.000E+00  0.000E+00  4.31663E+01  1.550E-01  2.000E+01  2.000E+04 -8.965E-02
   1   15   13     1    13    1.1306E+05 -1.9716E+03   1.1503E+05  0.000E+00  0.000E+00  0.000E+00  4.26906E+01  1.565E-01  2.000E+01  2.000E+04 -9.858E-02
   1   14   14     1    14    1.1503E+05 -2.3786E+03   1.1741E+05  0.000E+00  0.000E+00  0.000E+00  4.22151E+01  1.583E-01  2.000E+01  2.000E+04 -1.189E-01
   1   13   15     1    15    1.1741E+05 -2.7315E+03   1.2014E+05  0.000E+00  0.000E+00  0.000E+00  4.17399E+01  1.604E-01  2.000E+01  2.000E+04 -1.366E-01
   1   12   16     1    16    1.2014E+05 -3.3035E+03   1.2344E+05  0.000E+00  0.000E+00  0.000E+00  4.12651E+01  1.628E-01  2.000E+01  2.000E+04 -1.652E-01
   1   12   17     1    17    1.2344E+05 -1.8207E+03   1.2526E+05  0.000E+00  0.000E+00  0.000E+00  4.07899E+01  1.649E-01  2.000E+01  2.000E+04 -9.103E-02
   1   12   18     1    18    1.2526E+05 -1.4045E+03   1.2667E+05  0.000E+00  0.000E+00  0.000E+00  4.03139E+01  1.661E-01  2.000E+01  2.000E+04 -7.023E-02
   1   12   19     1    19    1.2667E+05 -9.7990E+02   1.2765E+05  0.000E+00  0.000E+00  0.000E+00  3.98375E+01  1.671E-01  2.000E+01  2.000E+04 -4.900E-02
   1   13   20     1    20    1.2765E+05 -8.7345E+02   1.2852E+05  0.000E+00  0.000E+00  0.000E+00  3.93610E+01  1.678E-01  2.000E+01  2.000E+04 -4.367E-02
   1   14   21     1    21    1.2852E+05 -1.3698E+03   1.2989E+05  0.000E+00  0.000E+00  0.000E+00  3.88846E+01  1.687E-01  2.000E+01  2.000E+04 -6.849E-02
   1   14   22     1    22    1.2989E+05  5.0233E+03   1.2487E+05  0.000E+00  0.000E+00  0.000E+00  3.84059E+01  1.673E-01  2.000E+01  2.000E+04  2.512E-01
   1    9   30     2     1    5.0000E+04 -3.1001E+02   5.0310E+04  0.000E+00  0.000E+00  0.000E+00  4.02411E+01  1.161E-01  2.000E+01  2.000E+04 -1.550E-02
   1    9   29     2     2    5.0310E+04 -5.4893E+02   5.0859E+04  0.000E+00  0.000E+00  0.000E+00  3.99917E+01  1.167E-01  2.000E+01  2.000E+04 -2.745E-02
   1    9   28     2     3    5.0859E+04 -6.6016E+02   5.1519E+04  0.000E+00  0.000E+00  0.000E+00  3.97425E+01  1.175E-01  2.000E+01  2.000E+04 -3.301E-02
   1    9   27     2     4    5.1519E+04 -1.1770E+03   5.2696E+04  0.000E+00  0.000E+00  0.000E+00  3.94938E+01  1.188E-01  2.000E+01  2.000E+04 -5.885E-02
   1   10   26     2     5    5.2696E+04 -4.9473E+02   5.3191E+04  0.000E+00  0.000E+00  0.000E+00  3.92449E+01  1.199E-01  2.000E+01  2.000E+04 -2.474E-02
   1   11   25     2     6    5.3191E+04 -2.5021E+02   5.3441E+04  0.000E+00  0.000E+00  0.000E+00  3.89954E+01  1.204E-01  2.000E+01  2.000E+04 -1.251E-02
   1   12   24     2     7    5.3441E+04 -2.2320E+02   5.3664E+04  0.000E+00  0.000E+00  0.000E+00  3.87457E+01  1.207E-01  2.000E+01  2.000E+04 -1.116E-02
   1   13   23     2     8    5.3664E+04 -1.9017E+01   5.3683E+04  0.000E+00  0.000E+00  0.000E+00  3.84959E+01  1.209E-01  2.000E+01  2.000E+04 -9.508E-04
   1   14   22     2     9    5.3683E+04  1.7993E+03   5.1884E+04  0.000E+00  0.000E+00  0.000E+00  3.82447E+01  1.197E-01  2.000E+01  2.000E+04  8.997E-02
   1   14   22     3     1    1.7675E+05 -8.5559E+03   1.8531E+05  0.000E+00  0.000E+00  0.000E+00  3.77269E+01  1.714E-01  2.000E+01  2.000E+04 -4.278E-01
   1   15   23     3     2    1.8531E+05 -5.6682E+02   1.8587E+05  0.000E+00  0.000E+00  0.000E+00  3.68406E+01  1.740E-01  2.000E+01  2.000E+04 -2.834E-02
   1   15   24     3     3    1.8587E+05 -3.1783E+02   1.8619E+05  0.000E+00  0.000E+00  0.000E+00  3.59520E+01  1.742E-01  2.000E+01  2.000E+04 -1.589E-02
   1   15   25     3     4    1.8619E+05 -3.1695E+02   1.8651E+05  0.000E+00  0.000E+00  0.000E+00  3.50633E+01  1.744E-01  2.000E+01  2.000E+04 -1.585E-02
   1   15   26     3     5    1.8651E+05 -3.6040E+02   1.8687E+05  0.000E+00  0.000E+00  0.000E+00  3.41746E+01  1.746E-01  2.000E+01  2.000E+04 -1.802E-02
   1   16   27     3     6    1.8687E+05 -4.1751E+02   1.8729E+05  0.000E+00  0.000E+00  0.000E+00  3.32859E+01  1.748E-01  2.000E+01  2.000E+04 -2.088E-02
   1   17   28     3     7    1.8729E+05 -1.7653E+03   1.8905E+05  0.000E+00  0.000E+00  0.000E+00  3.23976E+01  1.754E-01  2.000E+01  2.000E+04 -8.827E-02
   1   18   29     3     8    1.8905E+05 -3.3525E+03   1.9240E+05  0.000E+00  0.000E+00  0.000E+00  3.15102E+01  1.768E-01  2.000E+01  2.000E+04 -1.676E-01
   1   18   30     3     9    1.9240E+05 -3.4383E+03   1.9584E+05  0.000E+00  0.000E+00  0.000E+00  3.06232E+01  1.787E-01  2.000E+01  2.000E+04 -1.719E-01



1
              HEAD IN LAYER   1 AT END OF TIME STEP   1 IN STRESS PERIOD    3
  ---------------------------------------------------------------------------

          1      2      3      4      5      6      7      8      9     10
         11     12     13     14     15     16     17     18     19     20
         21     22     23     24     25     26     27     28     29     30
 .........................................................................
   1  ****** ****** ****** ****** ****** ****** ****** ****** ****** ******
      ****** ****** ****** ****** ****** ****** ****** ****** ****** ******
      ****** ****** ****** ****** ****** ****** ****** ****** ****** ******
   2  ****** ****** ****** ****** ****** ****** ****** ****** ****** ******
      ****** ****** ****** ****** ****** ****** ****** ****** ****** ******
      ****** ****** ****** ****** ****** ****** ****** ****** ****** ******
   3  ****** ****** ****** ****** ****** ****** ****** ****** ****** ******
      ****** ****** ****** ****** ****** ****** ****** ****** ****** ******
      ****** ****** ****** ****** ****** ****** ****** ****** ****** ******
   4  ****** ****** ****** ****** ****** ****** ****** ****** ****** ******
      ****** ****** ****** ****** ****** ****** ****** ****** ****** ******
      ****** ****** ****** ****** ****** ****** ****** ****** ****** ******
   5  ****** ****** ****** ****** ****** ****** ****** ****** ****** ******
      ****** ****** ****** ****** ****** ****** ****** ****** ****** ******
      ****** ****** ****** ****** ****** ****** ****** ****** ****** ******
   6  ****** ****** ****** ****** ****** ****** ****** ****** ****** ******
      ****** ****** ****** ****** ****** ****** ****** ****** ****** ******
      ****** ****** ****** ****** ****** ****** ****** ****** ****** ******
   7  ****** ****** ****** ****** ****** ****** ****** ****** ****** ******
      ****** ****** ****** ****** ****** ****** ****** ****** ****** ******
      ****** ****** ****** ****** ****** ****** ****** ****** ****** ******
   8  ****** ****** ****** ****** ****** ****** ****** ****** ****** ******
      ****** ****** ****** ****** ****** ****** ****** ****** ****** ******
      ****** ****** ****** ****** ****** ****** ****** ****** ****** ******
   9  ****** ****** ****** ****** ****** ****** ****** ****** ****** ******
      ****** ****** ****** ****** ****** ****** ****** ****** ****** ******
      ****** ****** ****** ****** ****** ****** ****** ****** ****** ******
  10  ****** ****** ****** ****** ****** ****** ****** ****** ****** ******
      ****** ****** ****** ****** ****** ****** ****** ****** ****** ******
      ****** ****** ****** ****** ****** ****** ****** ****** ****** ******
  11  ****** ****** ****** ****** ****** ****** ****** ****** ****** ******
      ****** ****** ****** ****** ****** ****** ****** ****** ****** ******
      ****** ****** ****** ****** ****** ****** ****** ****** ****** ******
  12  ****** ****** ****** ****** ****** ****** ****** ****** ****** ******
      ****** ****** ****** ****** ****** ****** ****** ****** ****** ******
      ****** ****** ****** ****** ****** ****** ****** ****** ****** ******
  13  ****** ****** ****** ****** ****** ****** ****** ****** ****** ******
      ****** ****** ****** ****** ****** ****** ****** ****** ****** ******
      ****** ****** ****** ****** ****** ****** ****** ****** ****** ******
  14  ****** ****** ****** ****** ****** ****** ****** ****** ****** ******
      ****** ****** ****** ****** ****** ****** ****** ****** ****** ******
      ****** ****** ****** ****** ****** ****** ****** ****** ****** ******
  15  ****** ****** ****** ****** ****** ****** ****** ****** ****** ******
      ****** ****** ****** ****** ****** ****** ****** ****** ****** ******
      ****** ****** ****** ****** ****** ****** ****** ****** ****** ******
  16  ****** ****** ****** ****** ****** ****** ****** ****** ****** ******
      ****** ****** ****** ****** ****** ****** ****** ****** ****** ******
      ****** ****** ****** ****** ****** ****** ****** ****** ****** ******
  17  ****** ****** ****** ****** ****** ****** ****** ****** ****** ******
      ****** ****** ****** ****** ****** ****** ****** ****** ****** ******
      ****** ****** ****** ****** ****** ****** ****** ****** ****** ******
  18  ****** ****** ****** ****** ****** ****** ****** ****** ****** ******
      ****** ****** ****** ****** ****** ****** ****** ****** ****** ******
      ****** ****** ****** ****** ****** ****** ****** ****** ****** ******
  19  ****** ****** ****** ****** ****** ****** ****** ****** ****** ******
      ****** ****** ****** ****** ****** ****** ****** ****** ****** ******
      ****** ****** ****** ****** ****** ****** ****** ****** ****** ******
  20  ****** ****** ****** ****** ****** ****** ****** ****** ****** ******
      ****** ****** ****** ****** ****** ****** ****** ****** ****** ******
      ****** ****** ****** ****** ****** ****** ****** ****** ****** ******
  21  ****** ****** ****** ****** ****** ****** ****** ****** ****** ******
      ****** ****** ****** ****** ****** ****** ****** ****** ****** ******
      ****** ****** ****** ****** ****** ****** ****** ****** ****** ******
  22  ****** ****** ****** ****** ****** ****** ****** ****** ****** ******
      ****** ****** ****** ****** ****** ****** ****** ****** ****** ******
      ****** ****** ****** ****** ****** ****** ****** ****** ****** ******
  23  ****** ****** ****** ****** ****** ****** ****** ****** ****** ******
      ****** ****** ****** ****** ****** ****** ****** ****** ****** ******
      ****** ****** ****** ****** ****** ****** ****** ****** ****** ******
  24  ****** ****** ****** ****** ****** ****** ****** ****** ****** ******
      ****** ****** ****** ****** ****** ****** ****** ****** ****** ******
      ****** ****** ****** ****** ****** ****** ****** ****** ****** ******
  25  ****** ****** ****** ****** ****** ****** ****** ****** ****** ******
      ****** ****** ****** ****** ****** ****** ****** ****** ****** ******
      ****** ****** ****** ****** ****** ****** ****** ****** ****** ******

 HEAD WILL BE SAVED ON UNIT   51 AT END OF TIME STEP    1, STRESS PERIOD    3
1
  VOLUMETRIC BUDGET FOR ENTIRE MODEL AT END OF TIME STEP    1, STRESS PERIOD   3
  ------------------------------------------------------------------------------

     CUMULATIVE VOLUMES      L**3       RATES FOR THIS TIME STEP      L**3/T
     ------------------                 ------------------------

           IN:                                      IN:
           ---                                      ---
             STORAGE =    28881448.2523               STORAGE =       57163.6237
       CONSTANT HEAD =     5502395.4373         CONSTANT HEAD =       27895.6094
               WELLS =           0.0000                 WELLS =           0.0000
            RECHARGE =     6292800.0000              RECHARGE =           0.0000
      STREAM LEAKAGE =     1540301.7262        STREAM LEAKAGE =        6822.5942

            TOTAL IN =    42216945.4157              TOTAL IN =       91881.8274

          OUT:                                     OUT:
          ----                                     ----
             STORAGE =           0.0000               STORAGE =           0.0000
       CONSTANT HEAD =           0.0000         CONSTANT HEAD =           0.0000
               WELLS =    10745403.6654                 WELLS =       39216.8017
            RECHARGE =           0.0000              RECHARGE =           0.0000
      STREAM LEAKAGE =    31471543.8011        STREAM LEAKAGE =       52665.0339

           TOTAL OUT =    42216947.4665             TOTAL OUT =       91881.8356

            IN - OUT =          -2.0508              IN - OUT =      -8.2714E-03

 PERCENT DISCREPANCY =          -0.00     PERCENT DISCREPANCY =          -0.00






         TIME SUMMARY AT END OF TIME STEP    1 IN STRESS PERIOD    3
                    SECONDS     MINUTES      HOURS       DAYS        YEARS
                    -----------------------------------------------------------
   TIME STEP LENGTH 7.86240E+06 1.31040E+05  2184.0      91.000     0.24914    
 STRESS PERIOD TIME 7.86240E+06 1.31040E+05  2184.0      91.000     0.24914    
         TOTAL TIME 2.36736E+07 3.94560E+05  6576.0      274.00     0.75017    
1
1
                            STRESS PERIOD NO.    4, LENGTH =   91.00000    
                            -----------------------------------------------

                              NUMBER OF TIME STEPS =     1

                               MULTIPLIER FOR DELT =     1.500

                            INITIAL TIME STEP SIZE =   91.00000    

 WELL NO.  LAYER   ROW   COL   STRESS RATE         
 --------------------------------------------------
      1      1      9     21     -0.1443E+05
      2      1      5     25      -7885.    
      3      1     22     18      -7019.    
      4      1     19      6      -9882.    

      4 WELLS

                 RECHARGE =  1.000000E-03

 REUSING STREAM SEGMENT DATA FROM LAST STRESS PERIOD
 
 SOLVING FOR HEAD 


     6 CALLS TO PCG ROUTINE FOR TIME STEP   1 IN STRESS PERIOD    4
    23 TOTAL ITERATIONS

 OUTPUT CONTROL FOR STRESS PERIOD    4   TIME STEP    1
    SAVE BUDGET
    SAVE HEAD FOR ALL LAYERS
    PRINT HEAD FOR ALL LAYERS
 UBDSV2 SAVING "STREAMFLOW OUT  " ON UNIT  50 AT TIME STEP  1, STRESS PERIOD   4



 STREAM LISTING     PERIOD      4   STEP        1

 LAYER ROW COL. STREAM  RCH.  FLOW INTO     FLOW TO   FLOW OUT OF   OVRLND.     DIRECT     STREAM       STREAM     STREAM     STREAM   STREAMBED  STREAMBED
                SEG.NO.  NO.  STRM. RCH.    AQUIFER    STRM. RCH.    RUNOFF     PRECIP       ET          HEAD       DEPTH      WIDTH   CONDCTNC.   GRADIENT

   1   13    1     1     1    1.0000E+05 -2.1961E+03   1.0220E+05  0.000E+00  0.000E+00  0.000E+00  4.84070E+01  1.456E-01  2.000E+01  2.000E+04 -1.098E-01
   1   13    2     1     2    1.0220E+05 -3.2819E+03   1.0548E+05  0.000E+00  0.000E+00  0.000E+00  4.79320E+01  1.480E-01  2.000E+01  2.000E+04 -1.641E-01
   1   14    3     1     3    1.0548E+05 -5.1396E+02   1.0599E+05  0.000E+00  0.000E+00  0.000E+00  4.74564E+01  1.496E-01  2.000E+01  2.000E+04 -2.570E-02
   1   15    4     1     4    1.0599E+05 -3.9835E+02   1.0639E+05  0.000E+00  0.000E+00  0.000E+00  4.69795E+01  1.500E-01  2.000E+01  2.000E+04 -1.992E-02
   1   16    5     1     5    1.0639E+05 -1.1611E+02   1.0651E+05  0.000E+00  0.000E+00  0.000E+00  4.65025E+01  1.502E-01  2.000E+01  2.000E+04 -5.806E-03
   1   16    6     1     6    1.0651E+05  2.9363E+01   1.0648E+05  0.000E+00  0.000E+00  0.000E+00  4.60252E+01  1.502E-01  2.000E+01  2.000E+04  1.468E-03
   1   16    7     1     7    1.0648E+05 -1.8351E+02   1.0666E+05  0.000E+00  0.000E+00  0.000E+00  4.55480E+01  1.503E-01  2.000E+01  2.000E+04 -9.175E-03
   1   16    8     1     8    1.0666E+05 -4.3380E+02   1.0709E+05  0.000E+00  0.000E+00  0.000E+00  4.50710E+01  1.505E-01  2.000E+01  2.000E+04 -2.169E-02
   1   16    9     1     9    1.0709E+05 -6.1783E+02   1.0771E+05  0.000E+00  0.000E+00  0.000E+00  4.45942E+01  1.510E-01  2.000E+01  2.000E+04 -3.089E-02
   1   16   10     1    10    1.0771E+05 -7.2270E+02   1.0843E+05  0.000E+00  0.000E+00  0.000E+00  4.41175E+01  1.515E-01  2.000E+01  2.000E+04 -3.614E-02
   1   16   11     1    11    1.0843E+05 -7.7649E+02   1.0921E+05  0.000E+00  0.000E+00  0.000E+00  4.36408E+01  1.522E-01  2.000E+01  2.000E+04 -3.882E-02
   1   16   12     1    12    1.0921E+05 -1.4696E+03   1.1068E+05  0.000E+00  0.000E+00  0.000E+00  4.31645E+01  1.531E-01  2.000E+01  2.000E+04 -7.348E-02
   1   15   13     1    13    1.1068E+05 -1.6841E+03   1.1237E+05  0.000E+00  0.000E+00  0.000E+00  4.26885E+01  1.544E-01  2.000E+01  2.000E+04 -8.421E-02
   1   14   14     1    14    1.1237E+05 -2.0739E+03   1.1444E+05  0.000E+00  0.000E+00  0.000E+00  4.22128E+01  1.560E-01  2.000E+01  2.000E+04 -1.037E-01
   1   13   15     1    15    1.1444E+05 -2.4033E+03   1.1684E+05  0.000E+00  0.000E+00  0.000E+00  4.17374E+01  1.578E-01  2.000E+01  2.000E+04 -1.202E-01
   1   12   16     1    16    1.1684E+05 -2.8727E+03   1.1972E+05  0.000E+00  0.000E+00  0.000E+00  4.12623E+01  1.600E-01  2.000E+01  2.000E+04 -1.436E-01
   1   12   17     1    17    1.1972E+05 -1.5526E+03   1.2127E+05  0.000E+00  0.000E+00  0.000E+00  4.07868E+01  1.618E-01  2.000E+01  2.000E+04 -7.763E-02
   1   12   18     1    18    1.2127E+05 -1.1501E+03   1.2242E+05  0.000E+00  0.000E+00  0.000E+00  4.03106E+01  1.629E-01  2.000E+01  2.000E+04 -5.751E-02
   1   12   19     1    19    1.2242E+05 -6.5652E+02   1.2307E+05  0.000E+00  0.000E+00  0.000E+00  3.98340E+01  1.636E-01  2.000E+01  2.000E+04 -3.283E-02
   1   13   20     1    20    1.2307E+05 -6.5748E+02   1.2373E+05  0.000E+00  0.000E+00  0.000E+00  3.93573E+01  1.641E-01  2.000E+01  2.000E+04 -3.287E-02
   1   14   21     1    21    1.2373E+05 -1.0940E+03   1.2483E+05  0.000E+00  0.000E+00  0.000E+00  3.88807E+01  1.648E-01  2.000E+01  2.000E+04 -5.470E-02
   1   14   22     1    22    1.2483E+05  5.0685E+03   1.1976E+05  0.000E+00  0.000E+00  0.000E+00  3.84019E+01  1.632E-01  2.000E+01  2.000E+04  2.534E-01
   1    9   30     2     1    5.0000E+04 -1.8229E+02   5.0182E+04  0.000E+00  0.000E+00  0.000E+00  4.02410E+01  1.160E-01  2.000E+01  2.000E+04 -9.114E-03
   1    9   29     2     2    5.0182E+04 -4.1255E+02   5.0595E+04  0.000E+00  0.000E+00  0.000E+00  3.99914E+01  1.164E-01  2.000E+01  2.000E+04 -2.063E-02
   1    9   28     2     3    5.0595E+04 -4.9891E+02   5.1094E+04  0.000E+00  0.000E+00  0.000E+00  3.97420E+01  1.170E-01  2.000E+01  2.000E+04 -2.495E-02
   1    9   27     2     4    5.1094E+04 -8.2832E+02   5.1922E+04  0.000E+00  0.000E+00  0.000E+00  3.94929E+01  1.179E-01  2.000E+01  2.000E+04 -4.142E-02
   1   10   26     2     5    5.1922E+04 -2.8139E+02   5.2203E+04  0.000E+00  0.000E+00  0.000E+00  3.92437E+01  1.187E-01  2.000E+01  2.000E+04 -1.407E-02
   1   11   25     2     6    5.2203E+04 -8.7284E+01   5.2291E+04  0.000E+00  0.000E+00  0.000E+00  3.89940E+01  1.190E-01  2.000E+01  2.000E+04 -4.364E-03
   1   12   24     2     7    5.2291E+04 -8.2541E+01   5.2373E+04  0.000E+00  0.000E+00  0.000E+00  3.87441E+01  1.191E-01  2.000E+01  2.000E+04 -4.127E-03
   1   13   23     2     8    5.2373E+04 -3.8330E+01   5.2412E+04  0.000E+00  0.000E+00  0.000E+00  3.84942E+01  1.192E-01  2.000E+01  2.000E+04 -1.916E-03
   1   14   22     2     9    5.2412E+04  1.8893E+03   5.0522E+04  0.000E+00  0.000E+00  0.000E+00  3.82429E+01  1.179E-01  2.000E+01  2.000E+04  9.447E-02
   1   14   22     3     1    1.7028E+05 -8.5043E+03   1.7878E+05  0.000E+00  0.000E+00  0.000E+00  3.77232E+01  1.677E-01  2.000E+01  2.000E+04 -4.252E-01
   1   15   23     3     2    1.7878E+05 -5.3493E+02   1.7932E+05  0.000E+00  0.000E+00  0.000E+00  3.68369E+01  1.702E-01  2.000E+01  2.000E+04 -2.675E-02
   1   15   24     3     3    1.7932E+05 -3.1381E+02   1.7963E+05  0.000E+00  0.000E+00  0.000E+00  3.59483E+01  1.705E-01  2.000E+01  2.000E+04 -1.569E-02
   1   15   25     3     4    1.7963E+05 -3.1369E+02   1.7995E+05  0.000E+00  0.000E+00  0.000E+00  3.50596E+01  1.707E-01  2.000E+01  2.000E+04 -1.568E-02
   1   15   26     3     5    1.7995E+05 -3.6796E+02   1.8031E+05  0.000E+00  0.000E+00  0.000E+00  3.41709E+01  1.709E-01  2.000E+01  2.000E+04 -1.840E-02
   1   16   27     3     6    1.8031E+05 -4.1503E+02   1.8073E+05  0.000E+00  0.000E+00  0.000E+00  3.32822E+01  1.711E-01  2.000E+01  2.000E+04 -2.075E-02
   1   17   28     3     7    1.8073E+05 -1.6899E+03   1.8242E+05  0.000E+00  0.000E+00  0.000E+00  3.23939E+01  1.717E-01  2.000E+01  2.000E+04 -8.449E-02
   1   18   29     3     8    1.8242E+05 -3.1085E+03   1.8553E+05  0.000E+00  0.000E+00  0.000E+00  3.15064E+01  1.730E-01  2.000E+01  2.000E+04 -1.554E-01
   1   18   30     3     9    1.8553E+05 -3.3144E+03   1.8884E+05  0.000E+00  0.000E+00  0.000E+00  3.06193E+01  1.748E-01  2.000E+01  2.000E+04 -1.657E-01



1
              HEAD IN LAYER   1 AT END OF TIME STEP   1 IN STRESS PERIOD    4
  ---------------------------------------------------------------------------

          1      2      3      4      5      6      7      8      9     10
         11     12     13     14     15     16     17     18     19     20
         21     22     23     24     25     26     27     28     29     30
 .........................................................................
   1  ****** ****** ****** ****** ****** ****** ****** ****** ****** ******
      ****** ****** ****** ****** ****** ****** ****** ****** ****** ******
      ****** ****** ****** ****** ****** ****** ****** ****** ****** ******
   2  ****** ****** ****** ****** ****** ****** ****** ****** ****** ******
      ****** ****** ****** ****** ****** ****** ****** ****** ****** ******
      ****** ****** ****** ****** ****** ****** ****** ****** ****** ******
   3  ****** ****** ****** ****** ****** ****** ****** ****** ****** ******
      ****** ****** ****** ****** ****** ****** ****** ****** ****** ******
      ****** ****** ****** ****** ****** ****** ****** ****** ****** ******
   4  ****** ****** ****** ****** ****** ****** ****** ****** ****** ******
      ****** ****** ****** ****** ****** ****** ****** ****** ****** ******
      ****** ****** ****** ****** ****** ****** ****** ****** ****** ******
   5  ****** ****** ****** ****** ****** ****** ****** ****** ****** ******
      ****** ****** ****** ****** ****** ****** ****** ****** ****** ******
      ****** ****** ****** ****** ****** ****** ****** ****** ****** ******
   6  ****** ****** ****** ****** ****** ****** ****** ****** ****** ******
      ****** ****** ****** ****** ****** ****** ****** ****** ****** ******
      ****** ****** ****** ****** ****** ****** ****** ****** ****** ******
   7  ****** ****** ****** ****** ****** ****** ****** ****** ****** ******
      ****** ****** ****** ****** ****** ****** ****** ****** ****** ******
      ****** ****** ****** ****** ****** ****** ****** ****** ****** ******
   8  ****** ****** ****** ****** ****** ****** ****** ****** ****** ******
      ****** ****** ****** ****** ****** ****** ****** ****** ****** ******
      ****** ****** ****** ****** ****** ****** ****** ****** ****** ******
   9  ****** ****** ****** ****** ****** ****** ****** ****** ****** ******
      ****** ****** ****** ****** ****** ****** ****** ****** ****** ******
      ****** ****** ****** ****** ****** ****** ****** ****** ****** ******
  10  ****** ****** ****** ****** ****** ****** ****** ****** ****** ******
      ****** ****** ****** ****** ****** ****** ****** ****** ****** ******
      ****** ****** ****** ****** ****** ****** ****** ****** ****** ******
  11  ****** ****** ****** ****** ****** ****** ****** ****** ****** ******
      ****** ****** ****** ****** ****** ****** ****** ****** ****** ******
      ****** ****** ****** ****** ****** ****** ****** ****** ****** ******
  12  ****** ****** ****** ****** ****** ****** ****** ****** ****** ******
      ****** ****** ****** ****** ****** ****** ****** ****** ****** ******
      ****** ****** ****** ****** ****** ****** ****** ****** ****** ******
  13  ****** ****** ****** ****** ****** ****** ****** ****** ****** ******
      ****** ****** ****** ****** ****** ****** ****** ****** ****** ******
      ****** ****** ****** ****** ****** ****** ****** ****** ****** ******
  14  ****** ****** ****** ****** ****** ****** ****** ****** ****** ******
      ****** ****** ****** ****** ****** ****** ****** ****** ****** ******
      ****** ****** ****** ****** ****** ****** ****** ****** ****** ******
  15  ****** ****** ****** ****** ****** ****** ****** ****** ****** ******
      ****** ****** ****** ****** ****** ****** ****** ****** ****** ******
      ****** ****** ****** ****** ****** ****** ****** ****** ****** ******
  16  ****** ****** ****** ****** ****** ****** ****** ****** ****** ******
      ****** ****** ****** ****** ****** ****** ****** ****** ****** ******
      ****** ****** ****** ****** ****** ****** ****** ****** ****** ******
  17  ****** ****** ****** ****** ****** ****** ****** ****** ****** ******
      ****** ****** ****** ****** ****** ****** ****** ****** ****** ******
      ****** ****** ****** ****** ****** ****** ****** ****** ****** ******
  18  ****** ****** ****** ****** ****** ****** ****** ****** ****** ******
      ****** ****** ****** ****** ****** ****** ****** ****** ****** ******
      ****** ****** ****** ****** ****** ****** ****** ****** ****** ******
  19  ****** ****** ****** ****** ****** ****** ****** ****** ****** ******
      ****** ****** ****** ****** ****** ****** ****** ****** ****** ******
      ****** ****** ****** ****** ****** ****** ****** ****** ****** ******
  20  ****** ****** ****** ****** ****** ****** ****** ****** ****** ******
      ****** ****** ****** ****** ****** ****** ****** ****** ****** ******
      ****** ****** ****** ****** ****** ****** ****** ****** ****** ******
  21  ****** ****** ****** ****** ****** ****** ****** ****** ****** ******
      ****** ****** ****** ****** ****** ****** ****** ****** ****** ******
      ****** ****** ****** ****** ****** ****** ****** ****** ****** ******
  22  ****** ****** ****** ****** ****** ****** ****** ****** ****** ******
      ****** ****** ****** ****** ****** ****** ****** ****** ****** ******
      ****** ****** ****** ****** ****** ****** ****** ****** ****** ******
  23  ****** ****** ****** ****** ****** ****** ****** ****** ****** ******
      ****** ****** ****** ****** ****** ****** ****** ****** ****** ******
      ****** ****** ****** ****** ****** ****** ****** ****** ****** ******
  24  ****** ****** ****** ****** ****** ****** ****** ****** ****** ******
      ****** ****** ****** ****** ****** ****** ****** ****** ****** ******
      ****** ****** ****** ****** ****** ****** ****** ****** ****** ******
  25  ****** ****** ****** ****** ****** ****** ****** ****** ****** ******
      ****** ****** ****** ****** ****** ****** ****** ****** ****** ******
      ****** ****** ****** ****** ****** ****** ****** ****** ****** ******

 HEAD WILL BE SAVED ON UNIT   51 AT END OF TIME STEP    1, STRESS PERIOD    4
1
  VOLUMETRIC BUDGET FOR ENTIRE MODEL AT END OF TIME STEP    1, STRESS PERIOD   4
  ------------------------------------------------------------------------------

     CUMULATIVE VOLUMES      L**3       RATES FOR THIS TIME STEP      L**3/T
     ------------------                 ------------------------

           IN:                                      IN:
           ---                                      ---
             STORAGE =    30674689.2533               STORAGE =       19705.9451
       CONSTANT HEAD =     8302002.5841         CONSTANT HEAD =       30764.9137
               WELLS =           0.0000                 WELLS =           0.0000
            RECHARGE =     8804400.0000              RECHARGE =       27600.0000
      STREAM LEAKAGE =     2176138.6010        STREAM LEAKAGE =        6987.2184

            TOTAL IN =    49957230.4385              TOTAL IN =       85058.0772

          OUT:                                     OUT:
          ----                                     ----
             STORAGE =        1104.0633               STORAGE =          12.1326
       CONSTANT HEAD =           0.0000         CONSTANT HEAD =           0.0000
               WELLS =    14314132.6200                 WELLS =       39216.8017
            RECHARGE =           0.0000              RECHARGE =           0.0000
      STREAM LEAKAGE =    35641995.8933        STREAM LEAKAGE =       45829.1439

           TOTAL OUT =    49957232.5766             TOTAL OUT =       85058.0781

            IN - OUT =          -2.1382              IN - OUT =      -9.6019E-04

 PERCENT DISCREPANCY =          -0.00     PERCENT DISCREPANCY =          -0.00






         TIME SUMMARY AT END OF TIME STEP    1 IN STRESS PERIOD    4
                    SECONDS     MINUTES      HOURS       DAYS        YEARS
                    -----------------------------------------------------------
   TIME STEP LENGTH 7.86240E+06 1.31040E+05  2184.0      91.000     0.24914    
 STRESS PERIOD TIME 7.86240E+06 1.31040E+05  2184.0      91.000     0.24914    
         TOTAL TIME 3.15360E+07 5.25600E+05  8760.0      365.00     0.99932    
1
1
                            STRESS PERIOD NO.    5, LENGTH =   92.00000    
                            -----------------------------------------------

                              NUMBER OF TIME STEPS =     1

                               MULTIPLIER FOR DELT =     1.500

                            INITIAL TIME STEP SIZE =   92.00000    

 WELL NO.  LAYER   ROW   COL   STRESS RATE         
 --------------------------------------------------
      1      1      9     21     -0.1443E+05
      2      1      5     25      -7885.    
      3      1     22     18      -7019.    
      4      1     19      6      -9882.    

      4 WELLS

                 RECHARGE =  5.000000E-04

 REUSING STREAM SEGMENT DATA FROM LAST STRESS PERIOD
 
 SOLVING FOR HEAD 


     7 CALLS TO PCG ROUTINE FOR TIME STEP   1 IN STRESS PERIOD    5
    26 TOTAL ITERATIONS

 OUTPUT CONTROL FOR STRESS PERIOD    5   TIME STEP    1
    SAVE BUDGET
    SAVE HEAD FOR ALL LAYERS
    PRINT HEAD FOR ALL LAYERS
 UBDSV2 SAVING "STREAMFLOW OUT  " ON UNIT  50 AT TIME STEP  1, STRESS PERIOD   5



 STREAM LISTING     PERIOD      5   STEP        1

 LAYER ROW COL. STREAM  RCH.  FLOW INTO     FLOW TO   FLOW OUT OF   OVRLND.     DIRECT     STREAM       STREAM     STREAM     STREAM   STREAMBED  STREAMBED
                SEG.NO.  NO.  STRM. RCH.    AQUIFER    STRM. RCH.    RUNOFF     PRECIP       ET          HEAD       DEPTH      WIDTH   CONDCTNC.   GRADIENT

   1   13    1     1     1    1.0000E+05 -1.7690E+03   1.0177E+05  0.000E+00  0.000E+00  0.000E+00  4.84068E+01  1.454E-01  2.000E+01  2.000E+04 -8.845E-02
   1   13    2     1     2    1.0177E+05 -2.8015E+03   1.0457E+05  0.000E+00  0.000E+00  0.000E+00  4.79315E+01  1.474E-01  2.000E+01  2.000E+04 -1.401E-01
   1   14    3     1     3    1.0457E+05 -3.8781E+02   1.0496E+05  0.000E+00  0.000E+00  0.000E+00  4.74556E+01  1.487E-01  2.000E+01  2.000E+04 -1.939E-02
   1   15    4     1     4    1.0496E+05 -2.6380E+02   1.0522E+05  0.000E+00  0.000E+00  0.000E+00  4.69786E+01  1.490E-01  2.000E+01  2.000E+04 -1.319E-02
   1   16    5     1     5    1.0522E+05  3.5782E+02   1.0486E+05  0.000E+00  0.000E+00  0.000E+00  4.65013E+01  1.490E-01  2.000E+01  2.000E+04  1.789E-02
   1   16    6     1     6    1.0486E+05  3.0172E+02   1.0456E+05  0.000E+00  0.000E+00  0.000E+00  4.60237E+01  1.487E-01  2.000E+01  2.000E+04  1.509E-02
   1   16    7     1     7    1.0456E+05  7.5957E+01   1.0449E+05  0.000E+00  0.000E+00  0.000E+00  4.55463E+01  1.485E-01  2.000E+01  2.000E+04  3.798E-03
   1   16    8     1     8    1.0449E+05 -1.7911E+02   1.0467E+05  0.000E+00  0.000E+00  0.000E+00  4.50690E+01  1.486E-01  2.000E+01  2.000E+04 -8.956E-03
   1   16    9     1     9    1.0467E+05 -3.6668E+02   1.0503E+05  0.000E+00  0.000E+00  0.000E+00  4.45920E+01  1.488E-01  2.000E+01  2.000E+04 -1.833E-02
   1   16   10     1    10    1.0503E+05 -4.7506E+02   1.0551E+05  0.000E+00  0.000E+00  0.000E+00  4.41151E+01  1.492E-01  2.000E+01  2.000E+04 -2.375E-02
   1   16   11     1    11    1.0551E+05 -5.2763E+02   1.0604E+05  0.000E+00  0.000E+00  0.000E+00  4.36382E+01  1.496E-01  2.000E+01  2.000E+04 -2.638E-02
   1   16   12     1    12    1.0604E+05 -1.0259E+03   1.0706E+05  0.000E+00  0.000E+00  0.000E+00  4.31616E+01  1.503E-01  2.000E+01  2.000E+04 -5.130E-02
   1   15   13     1    13    1.0706E+05 -1.2261E+03   1.0829E+05  0.000E+00  0.000E+00  0.000E+00  4.26853E+01  1.512E-01  2.000E+01  2.000E+04 -6.130E-02
   1   14   14     1    14    1.0829E+05 -1.5902E+03   1.0988E+05  0.000E+00  0.000E+00  0.000E+00  4.22092E+01  1.524E-01  2.000E+01  2.000E+04 -7.951E-02
   1   13   15     1    15    1.0988E+05 -1.9026E+03   1.1178E+05  0.000E+00  0.000E+00  0.000E+00  4.17334E+01  1.539E-01  2.000E+01  2.000E+04 -9.513E-02
   1   12   16     1    16    1.1178E+05 -2.3231E+03   1.1410E+05  0.000E+00  0.000E+00  0.000E+00  4.12579E+01  1.556E-01  2.000E+01  2.000E+04 -1.162E-01
   1   12   17     1    17    1.1410E+05 -1.1806E+03   1.1528E+05  0.000E+00  0.000E+00  0.000E+00  4.07821E+01  1.571E-01  2.000E+01  2.000E+04 -5.903E-02
   1   12   18     1    18    1.1528E+05 -7.9440E+02   1.1608E+05  0.000E+00  0.000E+00  0.000E+00  4.03056E+01  1.579E-01  2.000E+01  2.000E+04 -3.972E-02
   1   12   19     1    19    1.1608E+05 -2.2268E+02   1.1630E+05  0.000E+00  0.000E+00  0.000E+00  3.98287E+01  1.583E-01  2.000E+01  2.000E+04 -1.113E-02
   1   13   20     1    20    1.1630E+05 -2.8062E+02   1.1658E+05  0.000E+00  0.000E+00  0.000E+00  3.93517E+01  1.585E-01  2.000E+01  2.000E+04 -1.403E-02
   1   14   21     1    21    1.1658E+05 -6.9168E+02   1.1727E+05  0.000E+00  0.000E+00  0.000E+00  3.88748E+01  1.589E-01  2.000E+01  2.000E+04 -3.458E-02
   1   14   22     1    22    1.1727E+05  5.1525E+03   1.1212E+05  0.000E+00  0.000E+00  0.000E+00  3.83957E+01  1.571E-01  2.000E+01  2.000E+04  2.576E-01
   1    9   30     2     1    5.0000E+04  6.6303E+01   4.9934E+04  0.000E+00  0.000E+00  0.000E+00  4.02408E+01  1.158E-01  2.000E+01  2.000E+04  3.315E-03
   1    9   29     2     2    4.9934E+04 -1.5979E+02   5.0093E+04  0.000E+00  0.000E+00  0.000E+00  3.99909E+01  1.159E-01  2.000E+01  2.000E+04 -7.989E-03
   1    9   28     2     3    5.0093E+04 -2.3245E+02   5.0326E+04  0.000E+00  0.000E+00  0.000E+00  3.97412E+01  1.162E-01  2.000E+01  2.000E+04 -1.162E-02
   1    9   27     2     4    5.0326E+04 -4.0436E+02   5.0730E+04  0.000E+00  0.000E+00  0.000E+00  3.94916E+01  1.166E-01  2.000E+01  2.000E+04 -2.022E-02
   1   10   26     2     5    5.0730E+04  8.2492E+01   5.0648E+04  0.000E+00  0.000E+00  0.000E+00  3.92418E+01  1.168E-01  2.000E+01  2.000E+04  4.125E-03
   1   11   25     2     6    5.0648E+04  2.4422E+02   5.0404E+04  0.000E+00  0.000E+00  0.000E+00  3.89916E+01  1.166E-01  2.000E+01  2.000E+04  1.221E-02
   1   12   24     2     7    5.0404E+04  2.1980E+02   5.0184E+04  0.000E+00  0.000E+00  0.000E+00  3.87413E+01  1.163E-01  2.000E+01  2.000E+04  1.099E-02
   1   13   23     2     8    5.0184E+04  3.2796E+01   5.0151E+04  0.000E+00  0.000E+00  0.000E+00  3.84911E+01  1.161E-01  2.000E+01  2.000E+04  1.640E-03
   1   14   22     2     9    5.0151E+04  2.0319E+03   4.8119E+04  0.000E+00  0.000E+00  0.000E+00  3.82397E+01  1.147E-01  2.000E+01  2.000E+04  1.016E-01
   1   14   22     3     1    1.6024E+05 -8.4147E+03   1.6865E+05  0.000E+00  0.000E+00  0.000E+00  3.77173E+01  1.618E-01  2.000E+01  2.000E+04 -4.207E-01
   1   15   23     3     2    1.6865E+05 -4.3136E+02   1.6909E+05  0.000E+00  0.000E+00  0.000E+00  3.68310E+01  1.644E-01  2.000E+01  2.000E+04 -2.157E-02
   1   15   24     3     3    1.6909E+05 -2.3935E+02   1.6932E+05  0.000E+00  0.000E+00  0.000E+00  3.59423E+01  1.646E-01  2.000E+01  2.000E+04 -1.197E-02
   1   15   25     3     4    1.6932E+05 -2.4033E+02   1.6957E+05  0.000E+00  0.000E+00  0.000E+00  3.50536E+01  1.647E-01  2.000E+01  2.000E+04 -1.202E-02
   1   15   26     3     5    1.6957E+05 -2.9454E+02   1.6986E+05  0.000E+00  0.000E+00  0.000E+00  3.41649E+01  1.649E-01  2.000E+01  2.000E+04 -1.473E-02
   1   16   27     3     6    1.6986E+05 -3.2212E+02   1.7018E+05  0.000E+00  0.000E+00  0.000E+00  3.32762E+01  1.650E-01  2.000E+01  2.000E+04 -1.611E-02
   1   17   28     3     7    1.7018E+05 -1.4127E+03   1.7159E+05  0.000E+00  0.000E+00  0.000E+00  3.23878E+01  1.655E-01  2.000E+01  2.000E+04 -7.064E-02
   1   18   29     3     8    1.7159E+05 -2.7144E+03   1.7431E+05  0.000E+00  0.000E+00  0.000E+00  3.15001E+01  1.667E-01  2.000E+01  2.000E+04 -1.357E-01
   1   18   30     3     9    1.7431E+05 -3.0447E+03   1.7735E+05  0.000E+00  0.000E+00  0.000E+00  3.06129E+01  1.684E-01  2.000E+01  2.000E+04 -1.522E-01



1
              HEAD IN LAYER   1 AT END OF TIME STEP   1 IN STRESS PERIOD    5
  ---------------------------------------------------------------------------

          1      2      3      4      5      6      7      8      9     10
         11     12     13     14     15     16     17     18     19     20
         21     22     23     24     25     26     27     28     29     30
 .........................................................................
   1  ****** ****** ****** ****** ****** ****** ****** ****** ****** ******
      ****** ****** ****** ****** ****** ****** ****** ****** ****** ******
      ****** ****** ****** ****** ****** ****** ****** ****** ****** ******
   2  ****** ****** ****** ****** ****** ****** ****** ****** ****** ******
      ****** ****** ****** ****** ****** ****** ****** ****** ****** ******
      ****** ****** ****** ****** ****** ****** ****** ****** ****** ******
   3  ****** ****** ****** ****** ****** ****** ****** ****** ****** ******
      ****** ****** ****** ****** ****** ****** ****** ****** ****** ******
      ****** ****** ****** ****** ****** ****** ****** ****** ****** ******
   4  ****** ****** ****** ****** ****** ****** ****** ****** ****** ******
      ****** ****** ****** ****** ****** ****** ****** ****** ****** ******
      ****** ****** ****** ****** ****** ****** ****** ****** ****** ******
   5  ****** ****** ****** ****** ****** ****** ****** ****** ****** ******
      ****** ****** ****** ****** ****** ****** ****** ****** ****** ******
      ****** ****** ****** ****** ****** ****** ****** ****** ****** ******
   6  ****** ****** ****** ****** ****** ****** ****** ****** ****** ******
      ****** ****** ****** ****** ****** ****** ****** ****** ****** ******
      ****** ****** ****** ****** ****** ****** ****** ****** ****** ******
   7  ****** ****** ****** ****** ****** ****** ****** ****** ****** ******
      ****** ****** ****** ****** ****** ****** ****** ****** ****** ******
      ****** ****** ****** ****** ****** ****** ****** ****** ****** ******
   8  ****** ****** ****** ****** ****** ****** ****** ****** ****** ******
      ****** ****** ****** ****** ****** ****** ****** ****** ****** ******
      ****** ****** ****** ****** ****** ****** ****** ****** ****** ******
   9  ****** ****** ****** ****** ****** ****** ****** ****** ****** ******
      ****** ****** ****** ****** ****** ****** ****** ****** ****** ******
      ****** ****** ****** ****** ****** ****** ****** ****** ****** ******
  10  ****** ****** ****** ****** ****** ****** ****** ****** ****** ******
      ****** ****** ****** ****** ****** ****** ****** ****** ****** ******
      ****** ****** ****** ****** ****** ****** ****** ****** ****** ******
  11  ****** ****** ****** ****** ****** ****** ****** ****** ****** ******
      ****** ****** ****** ****** ****** ****** ****** ****** ****** ******
      ****** ****** ****** ****** ****** ****** ****** ****** ****** ******
  12  ****** ****** ****** ****** ****** ****** ****** ****** ****** ******
      ****** ****** ****** ****** ****** ****** ****** ****** ****** ******
      ****** ****** ****** ****** ****** ****** ****** ****** ****** ******
  13  ****** ****** ****** ****** ****** ****** ****** ****** ****** ******
      ****** ****** ****** ****** ****** ****** ****** ****** ****** ******
      ****** ****** ****** ****** ****** ****** ****** ****** ****** ******
  14  ****** ****** ****** ****** ****** ****** ****** ****** ****** ******
      ****** ****** ****** ****** ****** ****** ****** ****** ****** ******
      ****** ****** ****** ****** ****** ****** ****** ****** ****** ******
  15  ****** ****** ****** ****** ****** ****** ****** ****** ****** ******
      ****** ****** ****** ****** ****** ****** ****** ****** ****** ******
      ****** ****** ****** ****** ****** ****** ****** ****** ****** ******
  16  ****** ****** ****** ****** ****** ****** ****** ****** ****** ******
      ****** ****** ****** ****** ****** ****** ****** ****** ****** ******
      ****** ****** ****** ****** ****** ****** ****** ****** ****** ******
  17  ****** ****** ****** ****** ****** ****** ****** ****** ****** ******
      ****** ****** ****** ****** ****** ****** ****** ****** ****** ******
      ****** ****** ****** ****** ****** ****** ****** ****** ****** ******
  18  ****** ****** ****** ****** ****** ****** ****** ****** ****** ******
      ****** ****** ****** ****** ****** ****** ****** ****** ****** ******
      ****** ****** ****** ****** ****** ****** ****** ****** ****** ******
  19  ****** ****** ****** ****** ****** ****** ****** ****** ****** ******
      ****** ****** ****** ****** ****** ****** ****** ****** ****** ******
      ****** ****** ****** ****** ****** ****** ****** ****** ****** ******
  20  ****** ****** ****** ****** ****** ****** ****** ****** ****** ******
      ****** ****** ****** ****** ****** ****** ****** ****** ****** ******
      ****** ****** ****** ****** ****** ****** ****** ****** ****** ******
  21  ****** ****** ****** ****** ****** ****** ****** ****** ****** ******
      ****** ****** ****** ****** ****** ****** ****** ****** ****** ******
      ****** ****** ****** ****** ****** ****** ****** ****** ****** ******
  22  ****** ****** ****** ****** ****** ****** ****** ****** ****** ******
      ****** ****** ****** ****** ****** ****** ****** ****** ****** ******
      ****** ****** ****** ****** ****** ****** ****** ****** ****** ******
  23  ****** ****** ****** ****** ****** ****** ****** ****** ****** ******
      ****** ****** ****** ****** ****** ****** ****** ****** ****** ******
      ****** ****** ****** ****** ****** ****** ****** ****** ****** ******
  24  ****** ****** ****** ****** ****** ****** ****** ****** ****** ******
      ****** ****** ****** ****** ****** ****** ****** ****** ****** ******
      ****** ****** ****** ****** ****** ****** ****** ****** ****** ******
  25  ****** ****** ****** ****** ****** ****** ****** ****** ****** ******
      ****** ****** ****** ****** ****** ****** ****** ****** ****** ******
      ****** ****** ****** ****** ****** ****** ****** ****** ****** ******

 HEAD WILL BE SAVED ON UNIT   51 AT END OF TIME STEP    1, STRESS PERIOD    5
1
  VOLUMETRIC BUDGET FOR ENTIRE MODEL AT END OF TIME STEP    1, STRESS PERIOD   5
  ------------------------------------------------------------------------------

     CUMULATIVE VOLUMES      L**3       RATES FOR THIS TIME STEP      L**3/T
     ------------------                 ------------------------

           IN:                                      IN:
           ---                                      ---
             STORAGE =    32417023.1869               STORAGE =       18938.4123
       CONSTANT HEAD =    11414562.1769         CONSTANT HEAD =       33832.1695
               WELLS =           0.0000                 WELLS =           0.0000
            RECHARGE =    10074000.0000              RECHARGE =       13800.0000
      STREAM LEAKAGE =     2964166.3179        STREAM LEAKAGE =        8565.5187

            TOTAL IN =    56869751.6817              TOTAL IN =       75136.1005

          OUT:                                     OUT:
          ----                                     ----
             STORAGE =        1104.0633               STORAGE =           0.0000
       CONSTANT HEAD =           0.0000         CONSTANT HEAD =           0.0000
               WELLS =    17922078.3763                 WELLS =       39216.8017
            RECHARGE =           0.0000              RECHARGE =           0.0000
      STREAM LEAKAGE =    38946571.6955        STREAM LEAKAGE =       35919.3022

           TOTAL OUT =    56869754.1350             TOTAL OUT =       75136.1039

            IN - OUT =          -2.4534              IN - OUT =      -3.4262E-03

 PERCENT DISCREPANCY =          -0.00     PERCENT DISCREPANCY =          -0.00






         TIME SUMMARY AT END OF TIME STEP    1 IN STRESS PERIOD    5
                    SECONDS     MINUTES      HOURS       DAYS        YEARS
                    -----------------------------------------------------------
   TIME STEP LENGTH 7.94880E+06 1.32480E+05  2208.0      92.000     0.25188    
 STRESS PERIOD TIME 7.94880E+06 1.32480E+05  2208.0      92.000     0.25188    
         TOTAL TIME 3.94848E+07 6.58080E+05  10968.      457.00      1.2512    
1
1
                            STRESS PERIOD NO.    6, LENGTH =   91.00000    
                            -----------------------------------------------

                              NUMBER OF TIME STEPS =     1

                               MULTIPLIER FOR DELT =     1.500

                            INITIAL TIME STEP SIZE =   91.00000    

 WELL NO.  LAYER   ROW   COL   STRESS RATE         
 --------------------------------------------------
      1      1      9     21     -0.1443E+05
      2      1      5     25      -7885.    
      3      1     22     18      -7019.    
      4      1     19      6      -9882.    

      4 WELLS

                 RECHARGE =  2.000000E-03

 REUSING STREAM SEGMENT DATA FROM LAST STRESS PERIOD
 
 SOLVING FOR HEAD 


     7 CALLS TO PCG ROUTINE FOR TIME STEP   1 IN STRESS PERIOD    6
    26 TOTAL ITERATIONS

 OUTPUT CONTROL FOR STRESS PERIOD    6   TIME STEP    1
    SAVE BUDGET
    SAVE HEAD FOR ALL LAYERS
    PRINT HEAD FOR ALL LAYERS
 UBDSV2 SAVING "STREAMFLOW OUT  " ON UNIT  50 AT TIME STEP  1, STRESS PERIOD   6



 STREAM LISTING     PERIOD      6   STEP        1

 LAYER ROW COL. STREAM  RCH.  FLOW INTO     FLOW TO   FLOW OUT OF   OVRLND.     DIRECT     STREAM       STREAM     STREAM     STREAM   STREAMBED  STREAMBED
                SEG.NO.  NO.  STRM. RCH.    AQUIFER    STRM. RCH.    RUNOFF     PRECIP       ET          HEAD       DEPTH      WIDTH   CONDCTNC.   GRADIENT

   1   13    1     1     1    1.0000E+05 -2.0779E+03   1.0208E+05  0.000E+00  0.000E+00  0.000E+00  4.84069E+01  1.456E-01  2.000E+01  2.000E+04 -1.039E-01
   1   13    2     1     2    1.0208E+05 -3.1407E+03   1.0522E+05  0.000E+00  0.000E+00  0.000E+00  4.79319E+01  1.478E-01  2.000E+01  2.000E+04 -1.570E-01
   1   14    3     1     3    1.0522E+05 -5.4087E+02   1.0576E+05  0.000E+00  0.000E+00  0.000E+00  4.74562E+01  1.494E-01  2.000E+01  2.000E+04 -2.704E-02
   1   15    4     1     4    1.0576E+05 -4.2743E+02   1.0619E+05  0.000E+00  0.000E+00  0.000E+00  4.69793E+01  1.498E-01  2.000E+01  2.000E+04 -2.137E-02
   1   16    5     1     5    1.0619E+05 -1.1800E+02   1.0630E+05  0.000E+00  0.000E+00  0.000E+00  4.65023E+01  1.500E-01  2.000E+01  2.000E+04 -5.900E-03
   1   16    6     1     6    1.0630E+05  2.0144E+01   1.0628E+05  0.000E+00  0.000E+00  0.000E+00  4.60250E+01  1.500E-01  2.000E+01  2.000E+04  1.007E-03
   1   16    7     1     7    1.0628E+05 -1.9153E+02   1.0648E+05  0.000E+00  0.000E+00  0.000E+00  4.55478E+01  1.501E-01  2.000E+01  2.000E+04 -9.576E-03
   1   16    8     1     8    1.0648E+05 -4.4255E+02   1.0692E+05  0.000E+00  0.000E+00  0.000E+00  4.50708E+01  1.504E-01  2.000E+01  2.000E+04 -2.213E-02
   1   16    9     1     9    1.0692E+05 -6.2988E+02   1.0755E+05  0.000E+00  0.000E+00  0.000E+00  4.45940E+01  1.508E-01  2.000E+01  2.000E+04 -3.149E-02
   1   16   10     1    10    1.0755E+05 -7.3986E+02   1.0829E+05  0.000E+00  0.000E+00  0.000E+00  4.41173E+01  1.514E-01  2.000E+01  2.000E+04 -3.699E-02
   1   16   11     1    11    1.0829E+05 -7.9529E+02   1.0908E+05  0.000E+00  0.000E+00  0.000E+00  4.36407E+01  1.521E-01  2.000E+01  2.000E+04 -3.976E-02
   1   16   12     1    12    1.0908E+05 -1.4574E+03   1.1054E+05  0.000E+00  0.000E+00  0.000E+00  4.31644E+01  1.530E-01  2.000E+01  2.000E+04 -7.287E-02
   1   15   13     1    13    1.1054E+05 -1.6710E+03   1.1221E+05  0.000E+00  0.000E+00  0.000E+00  4.26884E+01  1.543E-01  2.000E+01  2.000E+04 -8.355E-02
   1   14   14     1    14    1.1221E+05 -2.0309E+03   1.1424E+05  0.000E+00  0.000E+00  0.000E+00  4.22127E+01  1.558E-01  2.000E+01  2.000E+04 -1.015E-01
   1   13   15     1    15    1.1424E+05 -2.3241E+03   1.1657E+05  0.000E+00  0.000E+00  0.000E+00  4.17372E+01  1.576E-01  2.000E+01  2.000E+04 -1.162E-01
   1   12   16     1    16    1.1657E+05 -2.6970E+03   1.1926E+05  0.000E+00  0.000E+00  0.000E+00  4.12620E+01  1.597E-01  2.000E+01  2.000E+04 -1.349E-01
   1   12   17     1    17    1.1926E+05 -1.4858E+03   1.2075E+05  0.000E+00  0.000E+00  0.000E+00  4.07864E+01  1.614E-01  2.000E+01  2.000E+04 -7.429E-02
   1   12   18     1    18    1.2075E+05 -1.1031E+03   1.2185E+05  0.000E+00  0.000E+00  0.000E+00  4.03101E+01  1.624E-01  2.000E+01  2.000E+04 -5.516E-02
   1   12   19     1    19    1.2185E+05 -6.0561E+02   1.2246E+05  0.000E+00  0.000E+00  0.000E+00  3.98336E+01  1.631E-01  2.000E+01  2.000E+04 -3.028E-02
   1   13   20     1    20    1.2246E+05 -6.9257E+02   1.2315E+05  0.000E+00  0.000E+00  0.000E+00  3.93568E+01  1.636E-01  2.000E+01  2.000E+04 -3.463E-02
   1   14   21     1    21    1.2315E+05 -1.0919E+03   1.2424E+05  0.000E+00  0.000E+00  0.000E+00  3.88802E+01  1.643E-01  2.000E+01  2.000E+04 -5.460E-02
   1   14   22     1    22    1.2424E+05  5.0474E+03   1.1920E+05  0.000E+00  0.000E+00  0.000E+00  3.84014E+01  1.628E-01  2.000E+01  2.000E+04  2.524E-01
   1    9   30     2     1    5.0000E+04 -2.9008E+02   5.0290E+04  0.000E+00  0.000E+00  0.000E+00  4.02411E+01  1.161E-01  2.000E+01  2.000E+04 -1.450E-02
   1    9   29     2     2    5.0290E+04 -5.1155E+02   5.0802E+04  0.000E+00  0.000E+00  0.000E+00  3.99916E+01  1.166E-01  2.000E+01  2.000E+04 -2.558E-02
   1    9   28     2     3    5.0802E+04 -5.7670E+02   5.1378E+04  0.000E+00  0.000E+00  0.000E+00  3.97424E+01  1.174E-01  2.000E+01  2.000E+04 -2.884E-02
   1    9   27     2     4    5.1378E+04 -8.3538E+02   5.2214E+04  0.000E+00  0.000E+00  0.000E+00  3.94933E+01  1.183E-01  2.000E+01  2.000E+04 -4.177E-02
   1   10   26     2     5    5.2214E+04 -3.7718E+02   5.2591E+04  0.000E+00  0.000E+00  0.000E+00  3.92442E+01  1.192E-01  2.000E+01  2.000E+04 -1.886E-02
   1   11   25     2     6    5.2591E+04 -2.0269E+02   5.2794E+04  0.000E+00  0.000E+00  0.000E+00  3.89946E+01  1.196E-01  2.000E+01  2.000E+04 -1.013E-02
   1   12   24     2     7    5.2794E+04 -1.8318E+02   5.2977E+04  0.000E+00  0.000E+00  0.000E+00  3.87448E+01  1.198E-01  2.000E+01  2.000E+04 -9.159E-03
   1   13   23     2     8    5.2977E+04 -1.0402E+02   5.3081E+04  0.000E+00  0.000E+00  0.000E+00  3.84950E+01  1.200E-01  2.000E+01  2.000E+04 -5.201E-03
   1   14   22     2     9    5.3081E+04  1.8957E+03   5.1185E+04  0.000E+00  0.000E+00  0.000E+00  3.82438E+01  1.188E-01  2.000E+01  2.000E+04  9.478E-02
   1   14   22     3     1    1.7038E+05 -8.5150E+03   1.7890E+05  0.000E+00  0.000E+00  0.000E+00  3.77233E+01  1.677E-01  2.000E+01  2.000E+04 -4.257E-01
   1   15   23     3     2    1.7890E+05 -5.6630E+02   1.7946E+05  0.000E+00  0.000E+00  0.000E+00  3.68370E+01  1.703E-01  2.000E+01  2.000E+04 -2.831E-02
   1   15   24     3     3    1.7946E+05 -3.6019E+02   1.7982E+05  0.000E+00  0.000E+00  0.000E+00  3.59484E+01  1.706E-01  2.000E+01  2.000E+04 -1.801E-02
   1   15   25     3     4    1.7982E+05 -3.6587E+02   1.8019E+05  0.000E+00  0.000E+00  0.000E+00  3.50597E+01  1.708E-01  2.000E+01  2.000E+04 -1.829E-02
   1   15   26     3     5    1.8019E+05 -4.4538E+02   1.8063E+05  0.000E+00  0.000E+00  0.000E+00  3.41710E+01  1.710E-01  2.000E+01  2.000E+04 -2.227E-02
   1   16   27     3     6    1.8063E+05 -4.8984E+02   1.8112E+05  0.000E+00  0.000E+00  0.000E+00  3.32824E+01  1.713E-01  2.000E+01  2.000E+04 -2.449E-02
   1   17   28     3     7    1.8112E+05 -1.8719E+03   1.8300E+05  0.000E+00  0.000E+00  0.000E+00  3.23942E+01  1.720E-01  2.000E+01  2.000E+04 -9.360E-02
   1   18   29     3     8    1.8300E+05 -3.1463E+03   1.8614E+05  0.000E+00  0.000E+00  0.000E+00  3.15067E+01  1.734E-01  2.000E+01  2.000E+04 -1.573E-01
   1   18   30     3     9    1.8614E+05 -3.3964E+03   1.8954E+05  0.000E+00  0.000E+00  0.000E+00  3.06197E+01  1.752E-01  2.000E+01  2.000E+04 -1.698E-01



1
              HEAD IN LAYER   1 AT END OF TIME STEP   1 IN STRESS PERIOD    6
  ---------------------------------------------------------------------------

          1      2      3      4      5      6      7      8      9     10
         11     12     13     14     15     16     17     18     19     20
         21     22     23     24     25     26     27     28     29     30
 .........................................................................
   1  ****** ****** ****** ****** ****** ****** ****** ****** ****** ******
      ****** ****** ****** ****** ****** ****** ****** ****** ****** ******
      ****** ****** ****** ****** ****** ****** ****** ****** ****** ******
   2  ****** ****** ****** ****** ****** ****** ****** ****** ****** ******
      ****** ****** ****** ****** ****** ****** ****** ****** ****** ******
      ****** ****** ****** ****** ****** ****** ****** ****** ****** ******
   3  ****** ****** ****** ****** ****** ****** ****** ****** ****** ******
      ****** ****** ****** ****** ****** ****** ****** ****** ****** ******
      ****** ****** ****** ****** ****** ****** ****** ****** ****** ******
   4  ****** ****** ****** ****** ****** ****** ****** ****** ****** ******
      ****** ****** ****** ****** ****** ****** ****** ****** ****** ******
      ****** ****** ****** ****** ****** ****** ****** ****** ****** ******
   5  ****** ****** ****** ****** ****** ****** ****** ****** ****** ******
      ****** ****** ****** ****** ****** ****** ****** ****** ****** ******
      ****** ****** ****** ****** ****** ****** ****** ****** ****** ******
   6  ****** ****** ****** ****** ****** ****** ****** ****** ****** ******
      ****** ****** ****** ****** ****** ****** ****** ****** ****** ******
      ****** ****** ****** ****** ****** ****** ****** ****** ****** ******
   7  ****** ****** ****** ****** ****** ****** ****** ****** ****** ******
      ****** ****** ****** ****** ****** ****** ****** ****** ****** ******
      ****** ****** ****** ****** ****** ****** ****** ****** ****** ******
   8  ****** ****** ****** ****** ****** ****** ****** ****** ****** ******
      ****** ****** ****** ****** ****** ****** ****** ****** ****** ******
      ****** ****** ****** ****** ****** ****** ****** ****** ****** ******
   9  ****** ****** ****** ****** ****** ****** ****** ****** ****** ******
      ****** ****** ****** ****** ****** ****** ****** ****** ****** ******
      ****** ****** ****** ****** ****** ****** ****** ****** ****** ******
  10  ****** ****** ****** ****** ****** ****** ****** ****** ****** ******
      ****** ****** ****** ****** ****** ****** ****** ****** ****** ******
      ****** ****** ****** ****** ****** ****** ****** ****** ****** ******
  11  ****** ****** ****** ****** ****** ****** ****** ****** ****** ******
      ****** ****** ****** ****** ****** ****** ****** ****** ****** ******
      ****** ****** ****** ****** ****** ****** ****** ****** ****** ******
  12  ****** ****** ****** ****** ****** ****** ****** ****** ****** ******
      ****** ****** ****** ****** ****** ****** ****** ****** ****** ******
      ****** ****** ****** ****** ****** ****** ****** ****** ****** ******
  13  ****** ****** ****** ****** ****** ****** ****** ****** ****** ******
      ****** ****** ****** ****** ****** ****** ****** ****** ****** ******
      ****** ****** ****** ****** ****** ****** ****** ****** ****** ******
  14  ****** ****** ****** ****** ****** ****** ****** ****** ****** ******
      ****** ****** ****** ****** ****** ****** ****** ****** ****** ******
      ****** ****** ****** ****** ****** ****** ****** ****** ****** ******
  15  ****** ****** ****** ****** ****** ****** ****** ****** ****** ******
      ****** ****** ****** ****** ****** ****** ****** ****** ****** ******
      ****** ****** ****** ****** ****** ****** ****** ****** ****** ******
  16  ****** ****** ****** ****** ****** ****** ****** ****** ****** ******
      ****** ****** ****** ****** ****** ****** ****** ****** ****** ******
      ****** ****** ****** ****** ****** ****** ****** ****** ****** ******
  17  ****** ****** ****** ****** ****** ****** ****** ****** ****** ******
      ****** ****** ****** ****** ****** ****** ****** ****** ****** ******
      ****** ****** ****** ****** ****** ****** ****** ****** ****** ******
  18  ****** ****** ****** ****** ****** ****** ****** ****** ****** ******
      ****** ****** ****** ****** ****** ****** ****** ****** ****** ******
      ****** ****** ****** ****** ****** ****** ****** ****** ****** ******
  19  ****** ****** ****** ****** ****** ****** ****** ****** ****** ******
      ****** ****** ****** ****** ****** ****** ****** ****** ****** ******
      ****** ****** ****** ****** ****** ****** ****** ****** ****** ******
  20  ****** ****** ****** ****** ****** ****** ****** ****** ****** ******
      ****** ****** ****** ****** ****** ****** ****** ****** ****** ******
      ****** ****** ****** ****** ****** ****** ****** ****** ****** ******
  21  ****** ****** ****** ****** ****** ****** ****** ****** ****** ******
      ****** ****** ****** ****** ****** ****** ****** ****** ****** ******
      ****** ****** ****** ****** ****** ****** ****** ****** ****** ******
  22  ****** ****** ****** ****** ****** ****** ****** ****** ****** ******
      ****** ****** ****** ****** ****** ****** ****** ****** ****** ******
      ****** ****** ****** ****** ****** ****** ****** ****** ****** ******
  23  ****** ****** ****** ****** ****** ****** ****** ****** ****** ******
      ****** ****** ****** ****** ****** ****** ****** ****** ****** ******
      ****** ****** ****** ****** ****** ****** ****** ****** ****** ******
  24  ****** ****** ****** ****** ****** ****** ****** ****** ****** ******
      ****** ****** ****** ****** ****** ****** ****** ****** ****** ******
      ****** ****** ****** ****** ****** ****** ****** ****** ****** ******
  25  ****** ****** ****** ****** ****** ****** ****** ****** ****** ******
      ****** ****** ****** ****** ****** ****** ****** ****** ****** ******
      ****** ****** ****** ****** ****** ****** ****** ****** ****** ******

 HEAD WILL BE SAVED ON UNIT   51 AT END OF TIME STEP    1, STRESS PERIOD    6
1
  VOLUMETRIC BUDGET FOR ENTIRE MODEL AT END OF TIME STEP    1, STRESS PERIOD   6
  ------------------------------------------------------------------------------

     CUMULATIVE VOLUMES      L**3       RATES FOR THIS TIME STEP      L**3/T
     ------------------                 ------------------------

           IN:                                      IN:
           ---                                      ---
             STORAGE =    32417023.1869               STORAGE =           0.0000
       CONSTANT HEAD =    14326624.6983         CONSTANT HEAD =       32000.6870
               WELLS =           0.0000                 WELLS =           0.0000
            RECHARGE =    15097200.0000              RECHARGE =       55200.0000
      STREAM LEAKAGE =     3597817.0091        STREAM LEAKAGE =        6963.1944

            TOTAL IN =    65438664.8944              TOTAL IN =       94163.8815

          OUT:                                     OUT:
          ----                                     ----
             STORAGE =      769665.5484               STORAGE =        8445.7306
       CONSTANT HEAD =           0.0000         CONSTANT HEAD =           0.0000
               WELLS =    21490807.3308                 WELLS =       39216.8017
            RECHARGE =           0.0000              RECHARGE =           0.0000
      STREAM LEAKAGE =    43178194.1983        STREAM LEAKAGE =       46501.3462

           TOTAL OUT =    65438667.0776             TOTAL OUT =       94163.8785

            IN - OUT =          -2.1832              IN - OUT =       2.9689E-03

 PERCENT DISCREPANCY =          -0.00     PERCENT DISCREPANCY =           0.00






         TIME SUMMARY AT END OF TIME STEP    1 IN STRESS PERIOD    6
                    SECONDS     MINUTES      HOURS       DAYS        YEARS
                    -----------------------------------------------------------
   TIME STEP LENGTH 7.86240E+06 1.31040E+05  2184.0      91.000     0.24914    
 STRESS PERIOD TIME 7.86240E+06 1.31040E+05  2184.0      91.000     0.24914    
         TOTAL TIME 4.73472E+07 7.89120E+05  13152.      548.00      1.5003    
1
1
                            STRESS PERIOD NO.    7, LENGTH =   91.00000    
                            -----------------------------------------------

                              NUMBER OF TIME STEPS =     1

                               MULTIPLIER FOR DELT =     1.500

                            INITIAL TIME STEP SIZE =   91.00000    

 WELL NO.  LAYER   ROW   COL   STRESS RATE         
 --------------------------------------------------
      1      1      9     21     -0.1443E+05
      2      1      5     25      -7885.    
      3      1     22     18      -7019.    
      4      1     19      6      -9882.    

      4 WELLS

                 RECHARGE =   0.00000    

 REUSING STREAM SEGMENT DATA FROM LAST STRESS PERIOD
 
 SOLVING FOR HEAD 


     7 CALLS TO PCG ROUTINE FOR TIME STEP   1 IN STRESS PERIOD    7
    26 TOTAL ITERATIONS

 OUTPUT CONTROL FOR STRESS PERIOD    7   TIME STEP    1
    SAVE BUDGET
    SAVE HEAD FOR ALL LAYERS
    PRINT HEAD FOR ALL LAYERS
 UBDSV2 SAVING "STREAMFLOW OUT  " ON UNIT  50 AT TIME STEP  1, STRESS PERIOD   7



 STREAM LISTING     PERIOD      7   STEP        1

 LAYER ROW COL. STREAM  RCH.  FLOW INTO     FLOW TO   FLOW OUT OF   OVRLND.     DIRECT     STREAM       STREAM     STREAM     STREAM   STREAMBED  STREAMBED
                SEG.NO.  NO.  STRM. RCH.    AQUIFER    STRM. RCH.    RUNOFF     PRECIP       ET          HEAD       DEPTH      WIDTH   CONDCTNC.   GRADIENT

   1   13    1     1     1    1.0000E+05 -1.4091E+03   1.0141E+05  0.000E+00  0.000E+00  0.000E+00  4.84066E+01  1.453E-01  2.000E+01  2.000E+04 -7.045E-02
   1   13    2     1     2    1.0141E+05 -2.3930E+03   1.0380E+05  0.000E+00  0.000E+00  0.000E+00  4.79310E+01  1.469E-01  2.000E+01  2.000E+04 -1.196E-01
   1   14    3     1     3    1.0380E+05 -2.8809E+02   1.0409E+05  0.000E+00  0.000E+00  0.000E+00  4.74549E+01  1.481E-01  2.000E+01  2.000E+04 -1.440E-02
   1   15    4     1     4    1.0409E+05 -1.6343E+02   1.0425E+05  0.000E+00  0.000E+00  0.000E+00  4.69778E+01  1.482E-01  2.000E+01  2.000E+04 -8.172E-03
   1   16    5     1     5    1.0425E+05  6.4542E+02   1.0361E+05  0.000E+00  0.000E+00  0.000E+00  4.65003E+01  1.480E-01  2.000E+01  2.000E+04  3.227E-02
   1   16    6     1     6    1.0361E+05  4.7928E+02   1.0313E+05  0.000E+00  0.000E+00  0.000E+00  4.60226E+01  1.476E-01  2.000E+01  2.000E+04  2.396E-02
   1   16    7     1     7    1.0313E+05  2.4866E+02   1.0288E+05  0.000E+00  0.000E+00  0.000E+00  4.55450E+01  1.472E-01  2.000E+01  2.000E+04  1.243E-02
   1   16    8     1     8    1.0288E+05 -8.5119E+00   1.0289E+05  0.000E+00  0.000E+00  0.000E+00  4.50676E+01  1.471E-01  2.000E+01  2.000E+04 -4.256E-04
   1   16    9     1     9    1.0289E+05 -1.9905E+02   1.0309E+05  0.000E+00  0.000E+00  0.000E+00  4.45904E+01  1.472E-01  2.000E+01  2.000E+04 -9.952E-03
   1   16   10     1    10    1.0309E+05 -3.1143E+02   1.0340E+05  0.000E+00  0.000E+00  0.000E+00  4.41134E+01  1.474E-01  2.000E+01  2.000E+04 -1.557E-02
   1   16   11     1    11    1.0340E+05 -3.6537E+02   1.0376E+05  0.000E+00  0.000E+00  0.000E+00  4.36364E+01  1.477E-01  2.000E+01  2.000E+04 -1.827E-02
   1   16   12     1    12    1.0376E+05 -7.3466E+02   1.0450E+05  0.000E+00  0.000E+00  0.000E+00  4.31596E+01  1.482E-01  2.000E+01  2.000E+04 -3.673E-02
   1   15   13     1    13    1.0450E+05 -8.9800E+02   1.0540E+05  0.000E+00  0.000E+00  0.000E+00  4.26830E+01  1.489E-01  2.000E+01  2.000E+04 -4.490E-02
   1   14   14     1    14    1.0540E+05 -1.2306E+03   1.0663E+05  0.000E+00  0.000E+00  0.000E+00  4.22066E+01  1.498E-01  2.000E+01  2.000E+04 -6.153E-02
   1   13   15     1    15    1.0663E+05 -1.5219E+03   1.0815E+05  0.000E+00  0.000E+00  0.000E+00  4.17305E+01  1.510E-01  2.000E+01  2.000E+04 -7.610E-02
   1   12   16     1    16    1.0815E+05 -1.9008E+03   1.1005E+05  0.000E+00  0.000E+00  0.000E+00  4.12547E+01  1.524E-01  2.000E+01  2.000E+04 -9.504E-02
   1   12   17     1    17    1.1005E+05 -9.0618E+02   1.1096E+05  0.000E+00  0.000E+00  0.000E+00  4.07786E+01  1.536E-01  2.000E+01  2.000E+04 -4.531E-02
   1   12   18     1    18    1.1096E+05 -5.3731E+02   1.1149E+05  0.000E+00  0.000E+00  0.000E+00  4.03019E+01  1.542E-01  2.000E+01  2.000E+04 -2.687E-02
   1   12   19     1    19    1.1149E+05  8.5912E+01   1.1141E+05  0.000E+00  0.000E+00  0.000E+00  3.98248E+01  1.544E-01  2.000E+01  2.000E+04  4.296E-03
   1   13   20     1    20    1.1141E+05 -1.8906E+01   1.1143E+05  0.000E+00  0.000E+00  0.000E+00  3.93475E+01  1.543E-01  2.000E+01  2.000E+04 -9.453E-04
   1   14   21     1    21    1.1143E+05 -4.2584E+02   1.1185E+05  0.000E+00  0.000E+00  0.000E+00  3.88704E+01  1.545E-01  2.000E+01  2.000E+04 -2.129E-02
   1   14   22     1    22    1.1185E+05  5.2064E+03   1.0665E+05  0.000E+00  0.000E+00  0.000E+00  3.83912E+01  1.525E-01  2.000E+01  2.000E+04  2.603E-01
   1    9   30     2     1    5.0000E+04  2.2674E+02   4.9773E+04  0.000E+00  0.000E+00  0.000E+00  4.02407E+01  1.157E-01  2.000E+01  2.000E+04  1.134E-02
   1    9   29     2     2    4.9773E+04  3.6035E+00   4.9770E+04  0.000E+00  0.000E+00  0.000E+00  3.99905E+01  1.155E-01  2.000E+01  2.000E+04  1.802E-04
   1    9   28     2     3    4.9770E+04 -5.9879E+01   4.9830E+04  0.000E+00  0.000E+00  0.000E+00  3.97406E+01  1.156E-01  2.000E+01  2.000E+04 -2.994E-03
   1    9   27     2     4    4.9830E+04 -1.3171E+02   4.9961E+04  0.000E+00  0.000E+00  0.000E+00  3.94907E+01  1.157E-01  2.000E+01  2.000E+04 -6.586E-03
   1   10   26     2     5    4.9961E+04  3.2636E+02   4.9635E+04  0.000E+00  0.000E+00  0.000E+00  3.92406E+01  1.156E-01  2.000E+01  2.000E+04  1.632E-02
   1   11   25     2     6    4.9635E+04  4.7132E+02   4.9164E+04  0.000E+00  0.000E+00  0.000E+00  3.89900E+01  1.150E-01  2.000E+01  2.000E+04  2.357E-02
   1   12   24     2     7    4.9164E+04  4.3117E+02   4.8732E+04  0.000E+00  0.000E+00  0.000E+00  3.87394E+01  1.144E-01  2.000E+01  2.000E+04  2.156E-02
   1   13   23     2     8    4.8732E+04  8.8262E+01   4.8644E+04  0.000E+00  0.000E+00  0.000E+00  3.84890E+01  1.140E-01  2.000E+01  2.000E+04  4.413E-03
   1   14   22     2     9    4.8644E+04  2.1322E+03   4.6512E+04  0.000E+00  0.000E+00  0.000E+00  3.82375E+01  1.125E-01  2.000E+01  2.000E+04  1.066E-01
   1   14   22     3     1    1.5316E+05 -8.3551E+03   1.6151E+05  0.000E+00  0.000E+00  0.000E+00  3.77131E+01  1.575E-01  2.000E+01  2.000E+04 -4.178E-01
   1   15   23     3     2    1.6151E+05 -3.5902E+02   1.6187E+05  0.000E+00  0.000E+00  0.000E+00  3.68268E+01  1.601E-01  2.000E+01  2.000E+04 -1.795E-02
   1   15   24     3     3    1.6187E+05 -1.8620E+02   1.6206E+05  0.000E+00  0.000E+00  0.000E+00  3.59381E+01  1.603E-01  2.000E+01  2.000E+04 -9.310E-03
   1   15   25     3     4    1.6206E+05 -1.8890E+02   1.6225E+05  0.000E+00  0.000E+00  0.000E+00  3.50493E+01  1.604E-01  2.000E+01  2.000E+04 -9.445E-03
   1   15   26     3     5    1.6225E+05 -2.4404E+02   1.6249E+05  0.000E+00  0.000E+00  0.000E+00  3.41605E+01  1.605E-01  2.000E+01  2.000E+04 -1.220E-02
   1   16   27     3     6    1.6249E+05 -2.5722E+02   1.6275E+05  0.000E+00  0.000E+00  0.000E+00  3.32718E+01  1.607E-01  2.000E+01  2.000E+04 -1.286E-02
   1   17   28     3     7    1.6275E+05 -1.2293E+03   1.6398E+05  0.000E+00  0.000E+00  0.000E+00  3.23834E+01  1.611E-01  2.000E+01  2.000E+04 -6.147E-02
   1   18   29     3     8    1.6398E+05 -2.4575E+03   1.6644E+05  0.000E+00  0.000E+00  0.000E+00  3.14956E+01  1.622E-01  2.000E+01  2.000E+04 -1.229E-01
   1   18   30     3     9    1.6644E+05 -2.8663E+03   1.6930E+05  0.000E+00  0.000E+00  0.000E+00  3.06082E+01  1.638E-01  2.000E+01  2.000E+04 -1.433E-01



1
              HEAD IN LAYER   1 AT END OF TIME STEP   1 IN STRESS PERIOD    7
  ---------------------------------------------------------------------------

          1      2      3      4      5      6      7      8      9     10
         11     12     13     14     15     16     17     18     19     20
         21     22     23     24     25     26     27     28     29     30
 .........................................................................
   1  ****** ****** ****** ****** ****** ****** ****** ****** ****** ******
      ****** ****** ****** ****** ****** ****** ****** ****** ****** ******
      ****** ****** ****** ****** ****** ****** ****** ****** ****** ******
   2  ****** ****** ****** ****** ****** ****** ****** ****** ****** ******
      ****** ****** ****** ****** ****** ****** ****** ****** ****** ******
      ****** ****** ****** ****** ****** ****** ****** ****** ****** ******
   3  ****** ****** ****** ****** ****** ****** ****** ****** ****** ******
      ****** ****** ****** ****** ****** ****** ****** ****** ****** ******
      ****** ****** ****** ****** ****** ****** ****** ****** ****** ******
   4  ****** ****** ****** ****** ****** ****** ****** ****** ****** ******
      ****** ****** ****** ****** ****** ****** ****** ****** ****** ******
      ****** ****** ****** ****** ****** ****** ****** ****** ****** ******
   5  ****** ****** ****** ****** ****** ****** ****** ****** ****** ******
      ****** ****** ****** ****** ****** ****** ****** ****** ****** ******
      ****** ****** ****** ****** ****** ****** ****** ****** ****** ******
   6  ****** ****** ****** ****** ****** ****** ****** ****** ****** ******
      ****** ****** ****** ****** ****** ****** ****** ****** ****** ******
      ****** ****** ****** ****** ****** ****** ****** ****** ****** ******
   7  ****** ****** ****** ****** ****** ****** ****** ****** ****** ******
      ****** ****** ****** ****** ****** ****** ****** ****** ****** ******
      ****** ****** ****** ****** ****** ****** ****** ****** ****** ******
   8  ****** ****** ****** ****** ****** ****** ****** ****** ****** ******
      ****** ****** ****** ****** ****** ****** ****** ****** ****** ******
      ****** ****** ****** ****** ****** ****** ****** ****** ****** ******
   9  ****** ****** ****** ****** ****** ****** ****** ****** ****** ******
      ****** ****** ****** ****** ****** ****** ****** ****** ****** ******
      ****** ****** ****** ****** ****** ****** ****** ****** ****** ******
  10  ****** ****** ****** ****** ****** ****** ****** ****** ****** ******
      ****** ****** ****** ****** ****** ****** ****** ****** ****** ******
      ****** ****** ****** ****** ****** ****** ****** ****** ****** ******
  11  ****** ****** ****** ****** ****** ****** ****** ****** ****** ******
      ****** ****** ****** ****** ****** ****** ****** ****** ****** ******
      ****** ****** ****** ****** ****** ****** ****** ****** ****** ******
  12  ****** ****** ****** ****** ****** ****** ****** ****** ****** ******
      ****** ****** ****** ****** ****** ****** ****** ****** ****** ******
      ****** ****** ****** ****** ****** ****** ****** ****** ****** ******
  13  ****** ****** ****** ****** ****** ****** ****** ****** ****** ******
      ****** ****** ****** ****** ****** ****** ****** ****** ****** ******
      ****** ****** ****** ****** ****** ****** ****** ****** ****** ******
  14  ****** ****** ****** ****** ****** ****** ****** ****** ****** ******
      ****** ****** ****** ****** ****** ****** ****** ****** ****** ******
      ****** ****** ****** ****** ****** ****** ****** ****** ****** ******
  15  ****** ****** ****** ****** ****** ****** ****** ****** ****** ******
      ****** ****** ****** ****** ****** ****** ****** ****** ****** ******
      ****** ****** ****** ****** ****** ****** ****** ****** ****** ******
  16  ****** ****** ****** ****** ****** ****** ****** ****** ****** ******
      ****** ****** ****** ****** ****** ****** ****** ****** ****** ******
      ****** ****** ****** ****** ****** ****** ****** ****** ****** ******
  17  ****** ****** ****** ****** ****** ****** ****** ****** ****** ******
      ****** ****** ****** ****** ****** ****** ****** ****** ****** ******
      ****** ****** ****** ****** ****** ****** ****** ****** ****** ******
  18  ****** ****** ****** ****** ****** ****** ****** ****** ****** ******
      ****** ****** ****** ****** ****** ****** ****** ****** ****** ******
      ****** ****** ****** ****** ****** ****** ****** ****** ****** ******
  19  ****** ****** ****** ****** ****** ****** ****** ****** ****** ******
      ****** ****** ****** ****** ****** ****** ****** ****** ****** ******
      ****** ****** ****** ****** ****** ****** ****** ****** ****** ******
  20  ****** ****** ****** ****** ****** ****** ****** ****** ****** ******
      ****** ****** ****** ****** ****** ****** ****** ****** ****** ******
      ****** ****** ****** ****** ****** ****** ****** ****** ****** ******
  21  ****** ****** ****** ****** ****** ****** ****** ****** ****** ******
      ****** ****** ****** ****** ****** ****** ****** ****** ****** ******
      ****** ****** ****** ****** ****** ****** ****** ****** ****** ******
  22  ****** ****** ****** ****** ****** ****** ****** ****** ****** ******
      ****** ****** ****** ****** ****** ****** ****** ****** ****** ******
      ****** ****** ****** ****** ****** ****** ****** ****** ****** ******
  23  ****** ****** ****** ****** ****** ****** ****** ****** ****** ******
      ****** ****** ****** ****** ****** ****** ****** ****** ****** ******
      ****** ****** ****** ****** ****** ****** ****** ****** ****** ******
  24  ****** ****** ****** ****** ****** ****** ****** ****** ****** ******
      ****** ****** ****** ****** ****** ****** ****** ****** ****** ******
      ****** ****** ****** ****** ****** ****** ****** ****** ****** ******
  25  ****** ****** ****** ****** ****** ****** ****** ****** ****** ******
      ****** ****** ****** ****** ****** ****** ****** ****** ****** ******
      ****** ****** ****** ****** ****** ****** ****** ****** ****** ******

 HEAD WILL BE SAVED ON UNIT   51 AT END OF TIME STEP    1, STRESS PERIOD    7
1
  VOLUMETRIC BUDGET FOR ENTIRE MODEL AT END OF TIME STEP    1, STRESS PERIOD   7
  ------------------------------------------------------------------------------

     CUMULATIVE VOLUMES      L**3       RATES FOR THIS TIME STEP      L**3/T
     ------------------                 ------------------------

           IN:                                      IN:
           ---                                      ---
             STORAGE =    34469273.3845               STORAGE =       22552.2000
       CONSTANT HEAD =    17599594.0910         CONSTANT HEAD =       35966.6966
               WELLS =           0.0000                 WELLS =           0.0000
            RECHARGE =    15097200.0000              RECHARGE =           0.0000
      STREAM LEAKAGE =     4539242.0463        STREAM LEAKAGE =       10345.3301

            TOTAL IN =    71705309.5218              TOTAL IN =       68864.2267

          OUT:                                     OUT:
          ----                                     ----
             STORAGE =      769665.5484               STORAGE =           0.0000
       CONSTANT HEAD =           0.0000         CONSTANT HEAD =           0.0000
               WELLS =    25059536.2854                 WELLS =       39216.8017
            RECHARGE =           0.0000              RECHARGE =           0.0000
      STREAM LEAKAGE =    45876110.4045        STREAM LEAKAGE =       29647.4308

           TOTAL OUT =    71705312.2383             TOTAL OUT =       68864.2325

            IN - OUT =          -2.7165              IN - OUT =      -5.8608E-03

 PERCENT DISCREPANCY =          -0.00     PERCENT DISCREPANCY =          -0.00






         TIME SUMMARY AT END OF TIME STEP    1 IN STRESS PERIOD    7
                    SECONDS     MINUTES      HOURS       DAYS        YEARS
                    -----------------------------------------------------------
   TIME STEP LENGTH 7.86240E+06 1.31040E+05  2184.0      91.000     0.24914    
 STRESS PERIOD TIME 7.86240E+06 1.31040E+05  2184.0      91.000     0.24914    
         TOTAL TIME 5.52096E+07 9.20160E+05  15336.      639.00      1.7495    
1
1
                            STRESS PERIOD NO.    8, LENGTH =   91.00000    
                            -----------------------------------------------

                              NUMBER OF TIME STEPS =     1

                               MULTIPLIER FOR DELT =     1.500

                            INITIAL TIME STEP SIZE =   91.00000    

 WELL NO.  LAYER   ROW   COL   STRESS RATE         
 --------------------------------------------------
      1      1      9     21     -0.1443E+05
      2      1      5     25      -7885.    
      3      1     22     18      -7019.    
      4      1     19      6      -9882.    

      4 WELLS

                 RECHARGE =  1.000000E-03

 REUSING STREAM SEGMENT DATA FROM LAST STRESS PERIOD
 
 SOLVING FOR HEAD 


     6 CALLS TO PCG ROUTINE FOR TIME STEP   1 IN STRESS PERIOD    8
    22 TOTAL ITERATIONS

 OUTPUT CONTROL FOR STRESS PERIOD    8   TIME STEP    1
    SAVE BUDGET
    SAVE HEAD FOR ALL LAYERS
    PRINT HEAD FOR ALL LAYERS
 UBDSV2 SAVING "STREAMFLOW OUT  " ON UNIT  50 AT TIME STEP  1, STRESS PERIOD   8



 STREAM LISTING     PERIOD      8   STEP        1

 LAYER ROW COL. STREAM  RCH.  FLOW INTO     FLOW TO   FLOW OUT OF   OVRLND.     DIRECT     STREAM       STREAM     STREAM     STREAM   STREAMBED  STREAMBED
                SEG.NO.  NO.  STRM. RCH.    AQUIFER    STRM. RCH.    RUNOFF     PRECIP       ET          HEAD       DEPTH      WIDTH   CONDCTNC.   GRADIENT

   1   13    1     1     1    1.0000E+05 -1.4812E+03   1.0148E+05  0.000E+00  0.000E+00  0.000E+00  4.84067E+01  1.453E-01  2.000E+01  2.000E+04 -7.406E-02
   1   13    2     1     2    1.0148E+05 -2.4648E+03   1.0395E+05  0.000E+00  0.000E+00  0.000E+00  4.79311E+01  1.470E-01  2.000E+01  2.000E+04 -1.232E-01
   1   14    3     1     3    1.0395E+05 -3.5170E+02   1.0430E+05  0.000E+00  0.000E+00  0.000E+00  4.74550E+01  1.482E-01  2.000E+01  2.000E+04 -1.759E-02
   1   15    4     1     4    1.0430E+05 -2.3147E+02   1.0453E+05  0.000E+00  0.000E+00  0.000E+00  4.69780E+01  1.484E-01  2.000E+01  2.000E+04 -1.157E-02
   1   16    5     1     5    1.0453E+05  4.7654E+02   1.0405E+05  0.000E+00  0.000E+00  0.000E+00  4.65006E+01  1.483E-01  2.000E+01  2.000E+04  2.383E-02
   1   16    6     1     6    1.0405E+05  3.7470E+02   1.0368E+05  0.000E+00  0.000E+00  0.000E+00  4.60230E+01  1.480E-01  2.000E+01  2.000E+04  1.873E-02
   1   16    7     1     7    1.0368E+05  1.4882E+02   1.0353E+05  0.000E+00  0.000E+00  0.000E+00  4.55455E+01  1.478E-01  2.000E+01  2.000E+04  7.441E-03
   1   16    8     1     8    1.0353E+05 -1.0762E+02   1.0364E+05  0.000E+00  0.000E+00  0.000E+00  4.50682E+01  1.477E-01  2.000E+01  2.000E+04 -5.381E-03
   1   16    9     1     9    1.0364E+05 -2.9935E+02   1.0394E+05  0.000E+00  0.000E+00  0.000E+00  4.45911E+01  1.479E-01  2.000E+01  2.000E+04 -1.497E-02
   1   16   10     1    10    1.0394E+05 -4.1423E+02   1.0435E+05  0.000E+00  0.000E+00  0.000E+00  4.41141E+01  1.482E-01  2.000E+01  2.000E+04 -2.071E-02
   1   16   11     1    11    1.0435E+05 -4.7112E+02   1.0482E+05  0.000E+00  0.000E+00  0.000E+00  4.36372E+01  1.486E-01  2.000E+01  2.000E+04 -2.356E-02
   1   16   12     1    12    1.0482E+05 -8.9230E+02   1.0571E+05  0.000E+00  0.000E+00  0.000E+00  4.31605E+01  1.492E-01  2.000E+01  2.000E+04 -4.462E-02
   1   15   13     1    13    1.0571E+05 -1.0631E+03   1.0678E+05  0.000E+00  0.000E+00  0.000E+00  4.26841E+01  1.500E-01  2.000E+01  2.000E+04 -5.316E-02
   1   14   14     1    14    1.0678E+05 -1.3887E+03   1.0817E+05  0.000E+00  0.000E+00  0.000E+00  4.22079E+01  1.510E-01  2.000E+01  2.000E+04 -6.943E-02
   1   13   15     1    15    1.0817E+05 -1.6669E+03   1.0983E+05  0.000E+00  0.000E+00  0.000E+00  4.17319E+01  1.523E-01  2.000E+01  2.000E+04 -8.335E-02
   1   12   16     1    16    1.0983E+05 -2.0070E+03   1.1184E+05  0.000E+00  0.000E+00  0.000E+00  4.12561E+01  1.539E-01  2.000E+01  2.000E+04 -1.003E-01
   1   12   17     1    17    1.1184E+05 -1.0142E+03   1.1285E+05  0.000E+00  0.000E+00  0.000E+00  4.07801E+01  1.551E-01  2.000E+01  2.000E+04 -5.071E-02
   1   12   18     1    18    1.1285E+05 -6.5215E+02   1.1351E+05  0.000E+00  0.000E+00  0.000E+00  4.03035E+01  1.558E-01  2.000E+01  2.000E+04 -3.261E-02
   1   12   19     1    19    1.1351E+05 -5.8959E+01   1.1356E+05  0.000E+00  0.000E+00  0.000E+00  3.98266E+01  1.561E-01  2.000E+01  2.000E+04 -2.948E-03
   1   13   20     1    20    1.1356E+05 -1.9393E+02   1.1376E+05  0.000E+00  0.000E+00  0.000E+00  3.93494E+01  1.562E-01  2.000E+01  2.000E+04 -9.697E-03
   1   14   21     1    21    1.1376E+05 -5.8113E+02   1.1434E+05  0.000E+00  0.000E+00  0.000E+00  3.88724E+01  1.565E-01  2.000E+01  2.000E+04 -2.906E-02
   1   14   22     1    22    1.1434E+05  5.1590E+03   1.0918E+05  0.000E+00  0.000E+00  0.000E+00  3.83933E+01  1.546E-01  2.000E+01  2.000E+04  2.579E-01
   1    9   30     2     1    5.0000E+04  6.5426E+01   4.9935E+04  0.000E+00  0.000E+00  0.000E+00  4.02408E+01  1.158E-01  2.000E+01  2.000E+04  3.271E-03
   1    9   29     2     2    4.9935E+04 -1.5484E+02   5.0089E+04  0.000E+00  0.000E+00  0.000E+00  3.99909E+01  1.159E-01  2.000E+01  2.000E+04 -7.742E-03
   1    9   28     2     3    5.0089E+04 -2.1252E+02   5.0302E+04  0.000E+00  0.000E+00  0.000E+00  3.97411E+01  1.161E-01  2.000E+01  2.000E+04 -1.063E-02
   1    9   27     2     4    5.0302E+04 -3.0567E+02   5.0608E+04  0.000E+00  0.000E+00  0.000E+00  3.94915E+01  1.165E-01  2.000E+01  2.000E+04 -1.528E-02
   1   10   26     2     5    5.0608E+04  1.2423E+02   5.0483E+04  0.000E+00  0.000E+00  0.000E+00  3.92416E+01  1.166E-01  2.000E+01  2.000E+04  6.211E-03
   1   11   25     2     6    5.0483E+04  2.7028E+02   5.0213E+04  0.000E+00  0.000E+00  0.000E+00  3.89913E+01  1.163E-01  2.000E+01  2.000E+04  1.351E-02
   1   12   24     2     7    5.0213E+04  2.4876E+02   4.9964E+04  0.000E+00  0.000E+00  0.000E+00  3.87410E+01  1.160E-01  2.000E+01  2.000E+04  1.244E-02
   1   13   23     2     8    4.9964E+04  1.4381E+01   4.9950E+04  0.000E+00  0.000E+00  0.000E+00  3.84908E+01  1.158E-01  2.000E+01  2.000E+04  7.191E-04
   1   14   22     2     9    4.9950E+04  2.0805E+03   4.7869E+04  0.000E+00  0.000E+00  0.000E+00  3.82393E+01  1.143E-01  2.000E+01  2.000E+04  1.040E-01
   1   14   22     3     1    1.5705E+05 -8.3977E+03   1.6545E+05  0.000E+00  0.000E+00  0.000E+00  3.77154E+01  1.599E-01  2.000E+01  2.000E+04 -4.199E-01
   1   15   23     3     2    1.6545E+05 -4.2256E+02   1.6587E+05  0.000E+00  0.000E+00  0.000E+00  3.68292E+01  1.625E-01  2.000E+01  2.000E+04 -2.113E-02
   1   15   24     3     3    1.6587E+05 -2.4637E+02   1.6612E+05  0.000E+00  0.000E+00  0.000E+00  3.59405E+01  1.627E-01  2.000E+01  2.000E+04 -1.232E-02
   1   15   25     3     4    1.6612E+05 -2.5084E+02   1.6637E+05  0.000E+00  0.000E+00  0.000E+00  3.50517E+01  1.628E-01  2.000E+01  2.000E+04 -1.254E-02
   1   15   26     3     5    1.6637E+05 -3.1850E+02   1.6669E+05  0.000E+00  0.000E+00  0.000E+00  3.41630E+01  1.630E-01  2.000E+01  2.000E+04 -1.593E-02
   1   16   27     3     6    1.6669E+05 -3.3871E+02   1.6702E+05  0.000E+00  0.000E+00  0.000E+00  3.32743E+01  1.632E-01  2.000E+01  2.000E+04 -1.694E-02
   1   17   28     3     7    1.6702E+05 -1.4319E+03   1.6846E+05  0.000E+00  0.000E+00  0.000E+00  3.23859E+01  1.637E-01  2.000E+01  2.000E+04 -7.159E-02
   1   18   29     3     8    1.6846E+05 -2.6204E+03   1.7108E+05  0.000E+00  0.000E+00  0.000E+00  3.14982E+01  1.649E-01  2.000E+01  2.000E+04 -1.310E-01
   1   18   30     3     9    1.7108E+05 -3.0115E+03   1.7409E+05  0.000E+00  0.000E+00  0.000E+00  3.06110E+01  1.665E-01  2.000E+01  2.000E+04 -1.506E-01



1
              HEAD IN LAYER   1 AT END OF TIME STEP   1 IN STRESS PERIOD    8
  ---------------------------------------------------------------------------

          1      2      3      4      5      6      7      8      9     10
         11     12     13     14     15     16     17     18     19     20
         21     22     23     24     25     26     27     28     29     30
 .........................................................................
   1  ****** ****** ****** ****** ****** ****** ****** ****** ****** ******
      ****** ****** ****** ****** ****** ****** ****** ****** ****** ******
      ****** ****** ****** ****** ****** ****** ****** ****** ****** ******
   2  ****** ****** ****** ****** ****** ****** ****** ****** ****** ******
      ****** ****** ****** ****** ****** ****** ****** ****** ****** ******
      ****** ****** ****** ****** ****** ****** ****** ****** ****** ******
   3  ****** ****** ****** ****** ****** ****** ****** ****** ****** ******
      ****** ****** ****** ****** ****** ****** ****** ****** ****** ******
      ****** ****** ****** ****** ****** ****** ****** ****** ****** ******
   4  ****** ****** ****** ****** ****** ****** ****** ****** ****** ******
      ****** ****** ****** ****** ****** ****** ****** ****** ****** ******
      ****** ****** ****** ****** ****** ****** ****** ****** ****** ******
   5  ****** ****** ****** ****** ****** ****** ****** ****** ****** ******
      ****** ****** ****** ****** ****** ****** ****** ****** ****** ******
      ****** ****** ****** ****** ****** ****** ****** ****** ****** ******
   6  ****** ****** ****** ****** ****** ****** ****** ****** ****** ******
      ****** ****** ****** ****** ****** ****** ****** ****** ****** ******
      ****** ****** ****** ****** ****** ****** ****** ****** ****** ******
   7  ****** ****** ****** ****** ****** ****** ****** ****** ****** ******
      ****** ****** ****** ****** ****** ****** ****** ****** ****** ******
      ****** ****** ****** ****** ****** ****** ****** ****** ****** ******
   8  ****** ****** ****** ****** ****** ****** ****** ****** ****** ******
      ****** ****** ****** ****** ****** ****** ****** ****** ****** ******
      ****** ****** ****** ****** ****** ****** ****** ****** ****** ******
   9  ****** ****** ****** ****** ****** ****** ****** ****** ****** ******
      ****** ****** ****** ****** ****** ****** ****** ****** ****** ******
      ****** ****** ****** ****** ****** ****** ****** ****** ****** ******
  10  ****** ****** ****** ****** ****** ****** ****** ****** ****** ******
      ****** ****** ****** ****** ****** ****** ****** ****** ****** ******
      ****** ****** ****** ****** ****** ****** ****** ****** ****** ******
  11  ****** ****** ****** ****** ****** ****** ****** ****** ****** ******
      ****** ****** ****** ****** ****** ****** ****** ****** ****** ******
      ****** ****** ****** ****** ****** ****** ****** ****** ****** ******
  12  ****** ****** ****** ****** ****** ****** ****** ****** ****** ******
      ****** ****** ****** ****** ****** ****** ****** ****** ****** ******
      ****** ****** ****** ****** ****** ****** ****** ****** ****** ******
  13  ****** ****** ****** ****** ****** ****** ****** ****** ****** ******
      ****** ****** ****** ****** ****** ****** ****** ****** ****** ******
      ****** ****** ****** ****** ****** ****** ****** ****** ****** ******
  14  ****** ****** ****** ****** ****** ****** ****** ****** ****** ******
      ****** ****** ****** ****** ****** ****** ****** ****** ****** ******
      ****** ****** ****** ****** ****** ****** ****** ****** ****** ******
  15  ****** ****** ****** ****** ****** ****** ****** ****** ****** ******
      ****** ****** ****** ****** ****** ****** ****** ****** ****** ******
      ****** ****** ****** ****** ****** ****** ****** ****** ****** ******
  16  ****** ****** ****** ****** ****** ****** ****** ****** ****** ******
      ****** ****** ****** ****** ****** ****** ****** ****** ****** ******
      ****** ****** ****** ****** ****** ****** ****** ****** ****** ******
  17  ****** ****** ****** ****** ****** ****** ****** ****** ****** ******
      ****** ****** ****** ****** ****** ****** ****** ****** ****** ******
      ****** ****** ****** ****** ****** ****** ****** ****** ****** ******
  18  ****** ****** ****** ****** ****** ****** ****** ****** ****** ******
      ****** ****** ****** ****** ****** ****** ****** ****** ****** ******
      ****** ****** ****** ****** ****** ****** ****** ****** ****** ******
  19  ****** ****** ****** ****** ****** ****** ****** ****** ****** ******
      ****** ****** ****** ****** ****** ****** ****** ****** ****** ******
      ****** ****** ****** ****** ****** ****** ****** ****** ****** ******
  20  ****** ****** ****** ****** ****** ****** ****** ****** ****** ******
      ****** ****** ****** ****** ****** ****** ****** ****** ****** ******
      ****** ****** ****** ****** ****** ****** ****** ****** ****** ******
  21  ****** ****** ****** ****** ****** ****** ****** ****** ****** ******
      ****** ****** ****** ****** ****** ****** ****** ****** ****** ******
      ****** ****** ****** ****** ****** ****** ****** ****** ****** ******
  22  ****** ****** ****** ****** ****** ****** ****** ****** ****** ******
      ****** ****** ****** ****** ****** ****** ****** ****** ****** ******
      ****** ****** ****** ****** ****** ****** ****** ****** ****** ******
  23  ****** ****** ****** ****** ****** ****** ****** ****** ****** ******
      ****** ****** ****** ****** ****** ****** ****** ****** ****** ******
      ****** ****** ****** ****** ****** ****** ****** ****** ****** ******
  24  ****** ****** ****** ****** ****** ****** ****** ****** ****** ******
      ****** ****** ****** ****** ****** ****** ****** ****** ****** ******
      ****** ****** ****** ****** ****** ****** ****** ****** ****** ******
  25  ****** ****** ****** ****** ****** ****** ****** ****** ****** ******
      ****** ****** ****** ****** ****** ****** ****** ****** ****** ******
      ****** ****** ****** ****** ****** ****** ****** ****** ****** ******

 HEAD WILL BE SAVED ON UNIT   51 AT END OF TIME STEP    1, STRESS PERIOD    8
1
  VOLUMETRIC BUDGET FOR ENTIRE MODEL AT END OF TIME STEP    1, STRESS PERIOD   8
  ------------------------------------------------------------------------------

     CUMULATIVE VOLUMES      L**3       RATES FOR THIS TIME STEP      L**3/T
     ------------------                 ------------------------

           IN:                                      IN:
           ---                                      ---
             STORAGE =    34605030.8172               STORAGE =        1491.8399
       CONSTANT HEAD =    20847633.9630         CONSTANT HEAD =       35692.7458
               WELLS =           0.0000                 WELLS =           0.0000
            RECHARGE =    17608800.0000              RECHARGE =       27600.0000
      STREAM LEAKAGE =     5354833.9340        STREAM LEAKAGE =        8962.5482

            TOTAL IN =    78416298.7141              TOTAL IN =       73747.1340

          OUT:                                     OUT:
          ----                                     ----
             STORAGE =      904268.2947               STORAGE =        1479.1511
       CONSTANT HEAD =           0.0000         CONSTANT HEAD =           0.0000
               WELLS =    28628265.2400                 WELLS =       39216.8017
            RECHARGE =           0.0000              RECHARGE =           0.0000
      STREAM LEAKAGE =    48883767.1266        STREAM LEAKAGE =       33051.1728

           TOTAL OUT =    78416300.6613             TOTAL OUT =       73747.1255

            IN - OUT =          -1.9472              IN - OUT =       8.4546E-03

 PERCENT DISCREPANCY =          -0.00     PERCENT DISCREPANCY =           0.00






         TIME SUMMARY AT END OF TIME STEP    1 IN STRESS PERIOD    8
                    SECONDS     MINUTES      HOURS       DAYS        YEARS
                    -----------------------------------------------------------
   TIME STEP LENGTH 7.86240E+06 1.31040E+05  2184.0      91.000     0.24914    
 STRESS PERIOD TIME 7.86240E+06 1.31040E+05  2184.0      91.000     0.24914    
         TOTAL TIME 6.30720E+07 1.05120E+06  17520.      730.00      1.9986    
1
1
                            STRESS PERIOD NO.    9, LENGTH =   92.00000    
                            -----------------------------------------------

                              NUMBER OF TIME STEPS =     1

                               MULTIPLIER FOR DELT =     1.500

                            INITIAL TIME STEP SIZE =   92.00000    

 WELL NO.  LAYER   ROW   COL   STRESS RATE         
 --------------------------------------------------
      1      1      9     21     -0.1443E+05
      2      1      5     25      -7885.    
      3      1     22     18      -7019.    
      4      1     19      6      -9882.    

      4 WELLS

                 RECHARGE =  5.000000E-04

 REUSING STREAM SEGMENT DATA FROM LAST STRESS PERIOD
 
 SOLVING FOR HEAD 


     6 CALLS TO PCG ROUTINE FOR TIME STEP   1 IN STRESS PERIOD    9
    23 TOTAL ITERATIONS

 OUTPUT CONTROL FOR STRESS PERIOD    9   TIME STEP    1
    SAVE BUDGET
    SAVE HEAD FOR ALL LAYERS
    PRINT HEAD FOR ALL LAYERS
 UBDSV2 SAVING "STREAMFLOW OUT  " ON UNIT  50 AT TIME STEP  1, STRESS PERIOD   9



 STREAM LISTING     PERIOD      9   STEP        1

 LAYER ROW COL. STREAM  RCH.  FLOW INTO     FLOW TO   FLOW OUT OF   OVRLND.     DIRECT     STREAM       STREAM     STREAM     STREAM   STREAMBED  STREAMBED
                SEG.NO.  NO.  STRM. RCH.    AQUIFER    STRM. RCH.    RUNOFF     PRECIP       ET          HEAD       DEPTH      WIDTH   CONDCTNC.   GRADIENT

   1   13    1     1     1    1.0000E+05 -1.2660E+03   1.0127E+05  0.000E+00  0.000E+00  0.000E+00  4.84066E+01  1.452E-01  2.000E+01  2.000E+04 -6.330E-02
   1   13    2     1     2    1.0127E+05 -2.2212E+03   1.0349E+05  0.000E+00  0.000E+00  0.000E+00  4.79308E+01  1.467E-01  2.000E+01  2.000E+04 -1.111E-01
   1   14    3     1     3    1.0349E+05 -2.8067E+02   1.0377E+05  0.000E+00  0.000E+00  0.000E+00  4.74546E+01  1.478E-01  2.000E+01  2.000E+04 -1.403E-02
   1   15    4     1     4    1.0377E+05 -1.5932E+02   1.0393E+05  0.000E+00  0.000E+00  0.000E+00  4.69775E+01  1.480E-01  2.000E+01  2.000E+04 -7.966E-03
   1   16    5     1     5    1.0393E+05  6.7137E+02   1.0326E+05  0.000E+00  0.000E+00  0.000E+00  4.65000E+01  1.477E-01  2.000E+01  2.000E+04  3.357E-02
   1   16    6     1     6    1.0326E+05  4.9580E+02   1.0276E+05  0.000E+00  0.000E+00  0.000E+00  4.60222E+01  1.472E-01  2.000E+01  2.000E+04  2.479E-02
   1   16    7     1     7    1.0276E+05  2.6608E+02   1.0249E+05  0.000E+00  0.000E+00  0.000E+00  4.55446E+01  1.469E-01  2.000E+01  2.000E+04  1.330E-02
   1   16    8     1     8    1.0249E+05  8.0580E+00   1.0249E+05  0.000E+00  0.000E+00  0.000E+00  4.50673E+01  1.468E-01  2.000E+01  2.000E+04  4.029E-04
   1   16    9     1     9    1.0249E+05 -1.8530E+02   1.0267E+05  0.000E+00  0.000E+00  0.000E+00  4.45901E+01  1.469E-01  2.000E+01  2.000E+04 -9.265E-03
   1   16   10     1    10    1.0267E+05 -3.0219E+02   1.0297E+05  0.000E+00  0.000E+00  0.000E+00  4.41130E+01  1.471E-01  2.000E+01  2.000E+04 -1.511E-02
   1   16   11     1    11    1.0297E+05 -3.6003E+02   1.0333E+05  0.000E+00  0.000E+00  0.000E+00  4.36360E+01  1.474E-01  2.000E+01  2.000E+04 -1.800E-02
   1   16   12     1    12    1.0333E+05 -7.0214E+02   1.0404E+05  0.000E+00  0.000E+00  0.000E+00  4.31592E+01  1.478E-01  2.000E+01  2.000E+04 -3.511E-02
   1   15   13     1    13    1.0404E+05 -8.5201E+02   1.0489E+05  0.000E+00  0.000E+00  0.000E+00  4.26826E+01  1.485E-01  2.000E+01  2.000E+04 -4.260E-02
   1   14   14     1    14    1.0489E+05 -1.1642E+03   1.0605E+05  0.000E+00  0.000E+00  0.000E+00  4.22062E+01  1.493E-01  2.000E+01  2.000E+04 -5.821E-02
   1   13   15     1    15    1.0605E+05 -1.4366E+03   1.0749E+05  0.000E+00  0.000E+00  0.000E+00  4.17300E+01  1.505E-01  2.000E+01  2.000E+04 -7.183E-02
   1   12   16     1    16    1.0749E+05 -1.7683E+03   1.0926E+05  0.000E+00  0.000E+00  0.000E+00  4.12541E+01  1.518E-01  2.000E+01  2.000E+04 -8.841E-02
   1   12   17     1    17    1.0926E+05 -8.5019E+02   1.1011E+05  0.000E+00  0.000E+00  0.000E+00  4.07779E+01  1.529E-01  2.000E+01  2.000E+04 -4.251E-02
   1   12   18     1    18    1.1011E+05 -4.9569E+02   1.1060E+05  0.000E+00  0.000E+00  0.000E+00  4.03012E+01  1.535E-01  2.000E+01  2.000E+04 -2.478E-02
   1   12   19     1    19    1.1060E+05  1.2942E+02   1.1047E+05  0.000E+00  0.000E+00  0.000E+00  3.98241E+01  1.536E-01  2.000E+01  2.000E+04  6.471E-03
   1   13   20     1    20    1.1047E+05 -1.9156E+01   1.1049E+05  0.000E+00  0.000E+00  0.000E+00  3.93467E+01  1.536E-01  2.000E+01  2.000E+04 -9.578E-04
   1   14   21     1    21    1.1049E+05 -4.0809E+02   1.1090E+05  0.000E+00  0.000E+00  0.000E+00  3.88697E+01  1.537E-01  2.000E+01  2.000E+04 -2.040E-02
   1   14   22     1    22    1.1090E+05  5.1974E+03   1.0570E+05  0.000E+00  0.000E+00  0.000E+00  3.83904E+01  1.517E-01  2.000E+01  2.000E+04  2.599E-01
   1    9   30     2     1    5.0000E+04  1.8952E+02   4.9810E+04  0.000E+00  0.000E+00  0.000E+00  4.02407E+01  1.157E-01  2.000E+01  2.000E+04  9.476E-03
   1    9   29     2     2    4.9810E+04 -3.0493E+01   4.9841E+04  0.000E+00  0.000E+00  0.000E+00  3.99906E+01  1.156E-01  2.000E+01  2.000E+04 -1.525E-03
   1    9   28     2     3    4.9841E+04 -8.6182E+01   4.9927E+04  0.000E+00  0.000E+00  0.000E+00  3.97407E+01  1.157E-01  2.000E+01  2.000E+04 -4.309E-03
   1    9   27     2     4    4.9927E+04 -1.2753E+02   5.0055E+04  0.000E+00  0.000E+00  0.000E+00  3.94909E+01  1.159E-01  2.000E+01  2.000E+04 -6.376E-03
   1   10   26     2     5    5.0055E+04  2.9904E+02   4.9756E+04  0.000E+00  0.000E+00  0.000E+00  3.92407E+01  1.157E-01  2.000E+01  2.000E+04  1.495E-02
   1   11   25     2     6    4.9756E+04  4.3743E+02   4.9318E+04  0.000E+00  0.000E+00  0.000E+00  3.89902E+01  1.152E-01  2.000E+01  2.000E+04  2.187E-02
   1   12   24     2     7    4.9318E+04  4.0242E+02   4.8916E+04  0.000E+00  0.000E+00  0.000E+00  3.87396E+01  1.146E-01  2.000E+01  2.000E+04  2.012E-02
   1   13   23     2     8    4.8916E+04  6.1617E+01   4.8854E+04  0.000E+00  0.000E+00  0.000E+00  3.84893E+01  1.143E-01  2.000E+01  2.000E+04  3.081E-03
   1   14   22     2     9    4.8854E+04  2.1449E+03   4.6709E+04  0.000E+00  0.000E+00  0.000E+00  3.82378E+01  1.128E-01  2.000E+01  2.000E+04  1.072E-01
   1   14   22     3     1    1.5241E+05 -8.3571E+03   1.6077E+05  0.000E+00  0.000E+00  0.000E+00  3.77126E+01  1.571E-01  2.000E+01  2.000E+04 -4.179E-01
   1   15   23     3     2    1.6077E+05 -3.6970E+02   1.6114E+05  0.000E+00  0.000E+00  0.000E+00  3.68264E+01  1.597E-01  2.000E+01  2.000E+04 -1.849E-02
   1   15   24     3     3    1.6114E+05 -2.0323E+02   1.6134E+05  0.000E+00  0.000E+00  0.000E+00  3.59377E+01  1.599E-01  2.000E+01  2.000E+04 -1.016E-02
   1   15   25     3     4    1.6134E+05 -2.0747E+02   1.6155E+05  0.000E+00  0.000E+00  0.000E+00  3.50489E+01  1.600E-01  2.000E+01  2.000E+04 -1.037E-02
   1   15   26     3     5    1.6155E+05 -2.7085E+02   1.6182E+05  0.000E+00  0.000E+00  0.000E+00  3.41601E+01  1.601E-01  2.000E+01  2.000E+04 -1.354E-02
   1   16   27     3     6    1.6182E+05 -2.8258E+02   1.6210E+05  0.000E+00  0.000E+00  0.000E+00  3.32714E+01  1.603E-01  2.000E+01  2.000E+04 -1.413E-02
   1   17   28     3     7    1.6210E+05 -1.2779E+03   1.6338E+05  0.000E+00  0.000E+00  0.000E+00  3.23830E+01  1.608E-01  2.000E+01  2.000E+04 -6.389E-02
   1   18   29     3     8    1.6338E+05 -2.4434E+03   1.6582E+05  0.000E+00  0.000E+00  0.000E+00  3.14952E+01  1.619E-01  2.000E+01  2.000E+04 -1.222E-01
   1   18   30     3     9    1.6582E+05 -2.8786E+03   1.6870E+05  0.000E+00  0.000E+00  0.000E+00  3.06079E+01  1.634E-01  2.000E+01  2.000E+04 -1.439E-01



1
              HEAD IN LAYER   1 AT END OF TIME STEP   1 IN STRESS PERIOD    9
  ---------------------------------------------------------------------------

          1      2      3      4      5      6      7      8      9     10
         11     12     13     14     15     16     17     18     19     20
         21     22     23     24     25     26     27     28     29     30
 .........................................................................
   1  ****** ****** ****** ****** ****** ****** ****** ****** ****** ******
      ****** ****** ****** ****** ****** ****** ****** ****** ****** ******
      ****** ****** ****** ****** ****** ****** ****** ****** ****** ******
   2  ****** ****** ****** ****** ****** ****** ****** ****** ****** ******
      ****** ****** ****** ****** ****** ****** ****** ****** ****** ******
      ****** ****** ****** ****** ****** ****** ****** ****** ****** ******
   3  ****** ****** ****** ****** ****** ****** ****** ****** ****** ******
      ****** ****** ****** ****** ****** ****** ****** ****** ****** ******
      ****** ****** ****** ****** ****** ****** ****** ****** ****** ******
   4  ****** ****** ****** ****** ****** ****** ****** ****** ****** ******
      ****** ****** ****** ****** ****** ****** ****** ****** ****** ******
      ****** ****** ****** ****** ****** ****** ****** ****** ****** ******
   5  ****** ****** ****** ****** ****** ****** ****** ****** ****** ******
      ****** ****** ****** ****** ****** ****** ****** ****** ****** ******
      ****** ****** ****** ****** ****** ****** ****** ****** ****** ******
   6  ****** ****** ****** ****** ****** ****** ****** ****** ****** ******
      ****** ****** ****** ****** ****** ****** ****** ****** ****** ******
      ****** ****** ****** ****** ****** ****** ****** ****** ****** ******
   7  ****** ****** ****** ****** ****** ****** ****** ****** ****** ******
      ****** ****** ****** ****** ****** ****** ****** ****** ****** ******
      ****** ****** ****** ****** ****** ****** ****** ****** ****** ******
   8  ****** ****** ****** ****** ****** ****** ****** ****** ****** ******
      ****** ****** ****** ****** ****** ****** ****** ****** ****** ******
      ****** ****** ****** ****** ****** ****** ****** ****** ****** ******
   9  ****** ****** ****** ****** ****** ****** ****** ****** ****** ******
      ****** ****** ****** ****** ****** ****** ****** ****** ****** ******
      ****** ****** ****** ****** ****** ****** ****** ****** ****** ******
  10  ****** ****** ****** ****** ****** ****** ****** ****** ****** ******
      ****** ****** ****** ****** ****** ****** ****** ****** ****** ******
      ****** ****** ****** ****** ****** ****** ****** ****** ****** ******
  11  ****** ****** ****** ****** ****** ****** ****** ****** ****** ******
      ****** ****** ****** ****** ****** ****** ****** ****** ****** ******
      ****** ****** ****** ****** ****** ****** ****** ****** ****** ******
  12  ****** ****** ****** ****** ****** ****** ****** ****** ****** ******
      ****** ****** ****** ****** ****** ****** ****** ****** ****** ******
      ****** ****** ****** ****** ****** ****** ****** ****** ****** ******
  13  ****** ****** ****** ****** ****** ****** ****** ****** ****** ******
      ****** ****** ****** ****** ****** ****** ****** ****** ****** ******
      ****** ****** ****** ****** ****** ****** ****** ****** ****** ******
  14  ****** ****** ****** ****** ****** ****** ****** ****** ****** ******
      ****** ****** ****** ****** ****** ****** ****** ****** ****** ******
      ****** ****** ****** ****** ****** ****** ****** ****** ****** ******
  15  ****** ****** ****** ****** ****** ****** ****** ****** ****** ******
      ****** ****** ****** ****** ****** ****** ****** ****** ****** ******
      ****** ****** ****** ****** ****** ****** ****** ****** ****** ******
  16  ****** ****** ****** ****** ****** ****** ****** ****** ****** ******
      ****** ****** ****** ****** ****** ****** ****** ****** ****** ******
      ****** ****** ****** ****** ****** ****** ****** ****** ****** ******
  17  ****** ****** ****** ****** ****** ****** ****** ****** ****** ******
      ****** ****** ****** ****** ****** ****** ****** ****** ****** ******
      ****** ****** ****** ****** ****** ****** ****** ****** ****** ******
  18  ****** ****** ****** ****** ****** ****** ****** ****** ****** ******
      ****** ****** ****** ****** ****** ****** ****** ****** ****** ******
      ****** ****** ****** ****** ****** ****** ****** ****** ****** ******
  19  ****** ****** ****** ****** ****** ****** ****** ****** ****** ******
      ****** ****** ****** ****** ****** ****** ****** ****** ****** ******
      ****** ****** ****** ****** ****** ****** ****** ****** ****** ******
  20  ****** ****** ****** ****** ****** ****** ****** ****** ****** ******
      ****** ****** ****** ****** ****** ****** ****** ****** ****** ******
      ****** ****** ****** ****** ****** ****** ****** ****** ****** ******
  21  ****** ****** ****** ****** ****** ****** ****** ****** ****** ******
      ****** ****** ****** ****** ****** ****** ****** ****** ****** ******
      ****** ****** ****** ****** ****** ****** ****** ****** ****** ******
  22  ****** ****** ****** ****** ****** ****** ****** ****** ****** ******
      ****** ****** ****** ****** ****** ****** ****** ****** ****** ******
      ****** ****** ****** ****** ****** ****** ****** ****** ****** ******
  23  ****** ****** ****** ****** ****** ****** ****** ****** ****** ******
      ****** ****** ****** ****** ****** ****** ****** ****** ****** ******
      ****** ****** ****** ****** ****** ****** ****** ****** ****** ******
  24  ****** ****** ****** ****** ****** ****** ****** ****** ****** ******
      ****** ****** ****** ****** ****** ****** ****** ****** ****** ******
      ****** ****** ****** ****** ****** ****** ****** ****** ****** ******
  25  ****** ****** ****** ****** ****** ****** ****** ****** ****** ******
      ****** ****** ****** ****** ****** ****** ****** ****** ****** ******
      ****** ****** ****** ****** ****** ****** ****** ****** ****** ******

 HEAD WILL BE SAVED ON UNIT   51 AT END OF TIME STEP    1, STRESS PERIOD    9
1
  VOLUMETRIC BUDGET FOR ENTIRE MODEL AT END OF TIME STEP    1, STRESS PERIOD   9
  ------------------------------------------------------------------------------

     CUMULATIVE VOLUMES      L**3       RATES FOR THIS TIME STEP      L**3/T
     ------------------                 ------------------------

           IN:                                      IN:
           ---                                      ---
             STORAGE =    35272050.5141               STORAGE =        7250.2141
       CONSTANT HEAD =    24239641.7789         CONSTANT HEAD =       36869.6502
               WELLS =           0.0000                 WELLS =           0.0000
            RECHARGE =    18878400.0000              RECHARGE =       13800.0000
      STREAM LEAKAGE =     6302720.5103        STREAM LEAKAGE =       10303.1150

            TOTAL IN =    84692812.8032              TOTAL IN =       68222.9792

          OUT:                                     OUT:
          ----                                     ----
             STORAGE =      904268.2947               STORAGE =           0.0000
       CONSTANT HEAD =           0.0000         CONSTANT HEAD =           0.0000
               WELLS =    32236210.9962                 WELLS =       39216.8017
            RECHARGE =           0.0000              RECHARGE =           0.0000
      STREAM LEAKAGE =    51552335.5346        STREAM LEAKAGE =       29006.1783

           TOTAL OUT =    84692814.8255             TOTAL OUT =       68222.9800

            IN - OUT =          -2.0223              IN - OUT =      -8.1686E-04

 PERCENT DISCREPANCY =          -0.00     PERCENT DISCREPANCY =          -0.00






         TIME SUMMARY AT END OF TIME STEP    1 IN STRESS PERIOD    9
                    SECONDS     MINUTES      HOURS       DAYS        YEARS
                    -----------------------------------------------------------
   TIME STEP LENGTH 7.94880E+06 1.32480E+05  2208.0      92.000     0.25188    
 STRESS PERIOD TIME 7.94880E+06 1.32480E+05  2208.0      92.000     0.25188    
         TOTAL TIME 7.10208E+07 1.18368E+06  19728.      822.00      2.2505    
1
1
                            STRESS PERIOD NO.   10, LENGTH =   91.00000    
                            -----------------------------------------------

                              NUMBER OF TIME STEPS =     1

                               MULTIPLIER FOR DELT =     1.500

                            INITIAL TIME STEP SIZE =   91.00000    

 WELL NO.  LAYER   ROW   COL   STRESS RATE         
 --------------------------------------------------
      1      1      9     21     -0.1443E+05
      2      1      5     25      -7885.    
      3      1     22     18      -7019.    
      4      1     19      6      -9882.    

      4 WELLS

                 RECHARGE =  2.000000E-03

 REUSING STREAM SEGMENT DATA FROM LAST STRESS PERIOD
 
 SOLVING FOR HEAD 


     7 CALLS TO PCG ROUTINE FOR TIME STEP   1 IN STRESS PERIOD   10
    26 TOTAL ITERATIONS

 OUTPUT CONTROL FOR STRESS PERIOD   10   TIME STEP    1
    SAVE BUDGET
    SAVE HEAD FOR ALL LAYERS
    PRINT HEAD FOR ALL LAYERS
 UBDSV2 SAVING "STREAMFLOW OUT  " ON UNIT  50 AT TIME STEP  1, STRESS PERIOD  10



 STREAM LISTING     PERIOD     10   STEP        1

 LAYER ROW COL. STREAM  RCH.  FLOW INTO     FLOW TO   FLOW OUT OF   OVRLND.     DIRECT     STREAM       STREAM     STREAM     STREAM   STREAMBED  STREAMBED
                SEG.NO.  NO.  STRM. RCH.    AQUIFER    STRM. RCH.    RUNOFF     PRECIP       ET          HEAD       DEPTH      WIDTH   CONDCTNC.   GRADIENT

   1   13    1     1     1    1.0000E+05 -1.7180E+03   1.0172E+05  0.000E+00  0.000E+00  0.000E+00  4.84068E+01  1.454E-01  2.000E+01  2.000E+04 -8.590E-02
   1   13    2     1     2    1.0172E+05 -2.7222E+03   1.0444E+05  0.000E+00  0.000E+00  0.000E+00  4.79314E+01  1.473E-01  2.000E+01  2.000E+04 -1.361E-01
   1   14    3     1     3    1.0444E+05 -4.6708E+02   1.0491E+05  0.000E+00  0.000E+00  0.000E+00  4.74555E+01  1.487E-01  2.000E+01  2.000E+04 -2.335E-02
   1   15    4     1     4    1.0491E+05 -3.5859E+02   1.0527E+05  0.000E+00  0.000E+00  0.000E+00  4.69786E+01  1.490E-01  2.000E+01  2.000E+04 -1.793E-02
   1   16    5     1     5    1.0527E+05  5.3547E+01   1.0521E+05  0.000E+00  0.000E+00  0.000E+00  4.65014E+01  1.492E-01  2.000E+01  2.000E+04  2.677E-03
   1   16    6     1     6    1.0521E+05  1.3413E+02   1.0508E+05  0.000E+00  0.000E+00  0.000E+00  4.60241E+01  1.491E-01  2.000E+01  2.000E+04  6.707E-03
   1   16    7     1     7    1.0508E+05 -7.7853E+01   1.0516E+05  0.000E+00  0.000E+00  0.000E+00  4.55468E+01  1.490E-01  2.000E+01  2.000E+04 -3.893E-03
   1   16    8     1     8    1.0516E+05 -3.3044E+02   1.0549E+05  0.000E+00  0.000E+00  0.000E+00  4.50697E+01  1.492E-01  2.000E+01  2.000E+04 -1.652E-02
   1   16    9     1     9    1.0549E+05 -5.2227E+02   1.0601E+05  0.000E+00  0.000E+00  0.000E+00  4.45928E+01  1.496E-01  2.000E+01  2.000E+04 -2.611E-02
   1   16   10     1    10    1.0601E+05 -6.3932E+02   1.0665E+05  0.000E+00  0.000E+00  0.000E+00  4.41160E+01  1.501E-01  2.000E+01  2.000E+04 -3.197E-02
   1   16   11     1    11    1.0665E+05 -7.0059E+02   1.0735E+05  0.000E+00  0.000E+00  0.000E+00  4.36393E+01  1.506E-01  2.000E+01  2.000E+04 -3.503E-02
   1   16   12     1    12    1.0735E+05 -1.2706E+03   1.0862E+05  0.000E+00  0.000E+00  0.000E+00  4.31628E+01  1.515E-01  2.000E+01  2.000E+04 -6.353E-02
   1   15   13     1    13    1.0862E+05 -1.4377E+03   1.1006E+05  0.000E+00  0.000E+00  0.000E+00  4.26867E+01  1.526E-01  2.000E+01  2.000E+04 -7.188E-02
   1   14   14     1    14    1.1006E+05 -1.7571E+03   1.1181E+05  0.000E+00  0.000E+00  0.000E+00  4.22108E+01  1.539E-01  2.000E+01  2.000E+04 -8.785E-02
   1   13   15     1    15    1.1181E+05 -2.0195E+03   1.1383E+05  0.000E+00  0.000E+00  0.000E+00  4.17351E+01  1.555E-01  2.000E+01  2.000E+04 -1.010E-01
   1   12   16     1    16    1.1383E+05 -2.3297E+03   1.1616E+05  0.000E+00  0.000E+00  0.000E+00  4.12596E+01  1.573E-01  2.000E+01  2.000E+04 -1.165E-01
   1   12   17     1    17    1.1616E+05 -1.2753E+03   1.1744E+05  0.000E+00  0.000E+00  0.000E+00  4.07838E+01  1.588E-01  2.000E+01  2.000E+04 -6.376E-02
   1   12   18     1    18    1.1744E+05 -9.1661E+02   1.1836E+05  0.000E+00  0.000E+00  0.000E+00  4.03074E+01  1.597E-01  2.000E+01  2.000E+04 -4.583E-02
   1   12   19     1    19    1.1836E+05 -3.8856E+02   1.1874E+05  0.000E+00  0.000E+00  0.000E+00  3.98307E+01  1.602E-01  2.000E+01  2.000E+04 -1.943E-02
   1   13   20     1    20    1.1874E+05 -5.3981E+02   1.1928E+05  0.000E+00  0.000E+00  0.000E+00  3.93538E+01  1.606E-01  2.000E+01  2.000E+04 -2.699E-02
   1   14   21     1    21    1.1928E+05 -9.3231E+02   1.2022E+05  0.000E+00  0.000E+00  0.000E+00  3.88771E+01  1.612E-01  2.000E+01  2.000E+04 -4.662E-02
   1   14   22     1    22    1.2022E+05  5.0705E+03   1.1515E+05  0.000E+00  0.000E+00  0.000E+00  3.83981E+01  1.595E-01  2.000E+01  2.000E+04  2.535E-01
   1    9   30     2     1    5.0000E+04 -2.2441E+02   5.0224E+04  0.000E+00  0.000E+00  0.000E+00  4.02410E+01  1.160E-01  2.000E+01  2.000E+04 -1.122E-02
   1    9   29     2     2    5.0224E+04 -4.4211E+02   5.0667E+04  0.000E+00  0.000E+00  0.000E+00  3.99915E+01  1.165E-01  2.000E+01  2.000E+04 -2.211E-02
   1    9   28     2     3    5.0667E+04 -4.9696E+02   5.1163E+04  0.000E+00  0.000E+00  0.000E+00  3.97421E+01  1.171E-01  2.000E+01  2.000E+04 -2.485E-02
   1    9   27     2     4    5.1163E+04 -6.7980E+02   5.1843E+04  0.000E+00  0.000E+00  0.000E+00  3.94929E+01  1.179E-01  2.000E+01  2.000E+04 -3.399E-02
   1   10   26     2     5    5.1843E+04 -2.5342E+02   5.2097E+04  0.000E+00  0.000E+00  0.000E+00  3.92436E+01  1.186E-01  2.000E+01  2.000E+04 -1.267E-02
   1   11   25     2     6    5.2097E+04 -9.0579E+01   5.2187E+04  0.000E+00  0.000E+00  0.000E+00  3.89938E+01  1.188E-01  2.000E+01  2.000E+04 -4.529E-03
   1   12   24     2     7    5.2187E+04 -7.5424E+01   5.2263E+04  0.000E+00  0.000E+00  0.000E+00  3.87439E+01  1.189E-01  2.000E+01  2.000E+04 -3.771E-03
   1   13   23     2     8    5.2263E+04 -8.7013E+01   5.2350E+04  0.000E+00  0.000E+00  0.000E+00  3.84940E+01  1.190E-01  2.000E+01  2.000E+04 -4.351E-03
   1   14   22     2     9    5.2350E+04  1.9630E+03   5.0387E+04  0.000E+00  0.000E+00  0.000E+00  3.82428E+01  1.178E-01  2.000E+01  2.000E+04  9.815E-02
   1   14   22     3     1    1.6553E+05 -8.4830E+03   1.7402E+05  0.000E+00  0.000E+00  0.000E+00  3.77205E+01  1.649E-01  2.000E+01  2.000E+04 -4.242E-01
   1   15   23     3     2    1.7402E+05 -5.3206E+02   1.7455E+05  0.000E+00  0.000E+00  0.000E+00  3.68342E+01  1.675E-01  2.000E+01  2.000E+04 -2.660E-02
   1   15   24     3     3    1.7455E+05 -3.4030E+02   1.7489E+05  0.000E+00  0.000E+00  0.000E+00  3.59455E+01  1.678E-01  2.000E+01  2.000E+04 -1.702E-02
   1   15   25     3     4    1.7489E+05 -3.4797E+02   1.7524E+05  0.000E+00  0.000E+00  0.000E+00  3.50569E+01  1.680E-01  2.000E+01  2.000E+04 -1.740E-02
   1   15   26     3     5    1.7524E+05 -4.3303E+02   1.7567E+05  0.000E+00  0.000E+00  0.000E+00  3.41682E+01  1.682E-01  2.000E+01  2.000E+04 -2.165E-02
   1   16   27     3     6    1.7567E+05 -4.6834E+02   1.7614E+05  0.000E+00  0.000E+00  0.000E+00  3.32796E+01  1.684E-01  2.000E+01  2.000E+04 -2.342E-02
   1   17   28     3     7    1.7614E+05 -1.7982E+03   1.7793E+05  0.000E+00  0.000E+00  0.000E+00  3.23913E+01  1.691E-01  2.000E+01  2.000E+04 -8.991E-02
   1   18   29     3     8    1.7793E+05 -2.9942E+03   1.8093E+05  0.000E+00  0.000E+00  0.000E+00  3.15038E+01  1.705E-01  2.000E+01  2.000E+04 -1.497E-01
   1   18   30     3     9    1.8093E+05 -3.3036E+03   1.8423E+05  0.000E+00  0.000E+00  0.000E+00  3.06167E+01  1.723E-01  2.000E+01  2.000E+04 -1.652E-01



1
              HEAD IN LAYER   1 AT END OF TIME STEP   1 IN STRESS PERIOD   10
  ---------------------------------------------------------------------------

          1      2      3      4      5      6      7      8      9     10
         11     12     13     14     15     16     17     18     19     20
         21     22     23     24     25     26     27     28     29     30
 .........................................................................
   1  ****** ****** ****** ****** ****** ****** ****** ****** ****** ******
      ****** ****** ****** ****** ****** ****** ****** ****** ****** ******
      ****** ****** ****** ****** ****** ****** ****** ****** ****** ******
   2  ****** ****** ****** ****** ****** ****** ****** ****** ****** ******
      ****** ****** ****** ****** ****** ****** ****** ****** ****** ******
      ****** ****** ****** ****** ****** ****** ****** ****** ****** ******
   3  ****** ****** ****** ****** ****** ****** ****** ****** ****** ******
      ****** ****** ****** ****** ****** ****** ****** ****** ****** ******
      ****** ****** ****** ****** ****** ****** ****** ****** ****** ******
   4  ****** ****** ****** ****** ****** ****** ****** ****** ****** ******
      ****** ****** ****** ****** ****** ****** ****** ****** ****** ******
      ****** ****** ****** ****** ****** ****** ****** ****** ****** ******
   5  ****** ****** ****** ****** ****** ****** ****** ****** ****** ******
      ****** ****** ****** ****** ****** ****** ****** ****** ****** ******
      ****** ****** ****** ****** ****** ****** ****** ****** ****** ******
   6  ****** ****** ****** ****** ****** ****** ****** ****** ****** ******
      ****** ****** ****** ****** ****** ****** ****** ****** ****** ******
      ****** ****** ****** ****** ****** ****** ****** ****** ****** ******
   7  ****** ****** ****** ****** ****** ****** ****** ****** ****** ******
      ****** ****** ****** ****** ****** ****** ****** ****** ****** ******
      ****** ****** ****** ****** ****** ****** ****** ****** ****** ******
   8  ****** ****** ****** ****** ****** ****** ****** ****** ****** ******
      ****** ****** ****** ****** ****** ****** ****** ****** ****** ******
      ****** ****** ****** ****** ****** ****** ****** ****** ****** ******
   9  ****** ****** ****** ****** ****** ****** ****** ****** ****** ******
      ****** ****** ****** ****** ****** ****** ****** ****** ****** ******
      ****** ****** ****** ****** ****** ****** ****** ****** ****** ******
  10  ****** ****** ****** ****** ****** ****** ****** ****** ****** ******
      ****** ****** ****** ****** ****** ****** ****** ****** ****** ******
      ****** ****** ****** ****** ****** ****** ****** ****** ****** ******
  11  ****** ****** ****** ****** ****** ****** ****** ****** ****** ******
      ****** ****** ****** ****** ****** ****** ****** ****** ****** ******
      ****** ****** ****** ****** ****** ****** ****** ****** ****** ******
  12  ****** ****** ****** ****** ****** ****** ****** ****** ****** ******
      ****** ****** ****** ****** ****** ****** ****** ****** ****** ******
      ****** ****** ****** ****** ****** ****** ****** ****** ****** ******
  13  ****** ****** ****** ****** ****** ****** ****** ****** ****** ******
      ****** ****** ****** ****** ****** ****** ****** ****** ****** ******
      ****** ****** ****** ****** ****** ****** ****** ****** ****** ******
  14  ****** ****** ****** ****** ****** ****** ****** ****** ****** ******
      ****** ****** ****** ****** ****** ****** ****** ****** ****** ******
      ****** ****** ****** ****** ****** ****** ****** ****** ****** ******
  15  ****** ****** ****** ****** ****** ****** ****** ****** ****** ******
      ****** ****** ****** ****** ****** ****** ****** ****** ****** ******
      ****** ****** ****** ****** ****** ****** ****** ****** ****** ******
  16  ****** ****** ****** ****** ****** ****** ****** ****** ****** ******
      ****** ****** ****** ****** ****** ****** ****** ****** ****** ******
      ****** ****** ****** ****** ****** ****** ****** ****** ****** ******
  17  ****** ****** ****** ****** ****** ****** ****** ****** ****** ******
      ****** ****** ****** ****** ****** ****** ****** ****** ****** ******
      ****** ****** ****** ****** ****** ****** ****** ****** ****** ******
  18  ****** ****** ****** ****** ****** ****** ****** ****** ****** ******
      ****** ****** ****** ****** ****** ****** ****** ****** ****** ******
      ****** ****** ****** ****** ****** ****** ****** ****** ****** ******
  19  ****** ****** ****** ****** ****** ****** ****** ****** ****** ******
      ****** ****** ****** ****** ****** ****** ****** ****** ****** ******
      ****** ****** ****** ****** ****** ****** ****** ****** ****** ******
  20  ****** ****** ****** ****** ****** ****** ****** ****** ****** ******
      ****** ****** ****** ****** ****** ****** ****** ****** ****** ******
      ****** ****** ****** ****** ****** ****** ****** ****** ****** ******
  21  ****** ****** ****** ****** ****** ****** ****** ****** ****** ******
      ****** ****** ****** ****** ****** ****** ****** ****** ****** ******
      ****** ****** ****** ****** ****** ****** ****** ****** ****** ******
  22  ****** ****** ****** ****** ****** ****** ****** ****** ****** ******
      ****** ****** ****** ****** ****** ****** ****** ****** ****** ******
      ****** ****** ****** ****** ****** ****** ****** ****** ****** ******
  23  ****** ****** ****** ****** ****** ****** ****** ****** ****** ******
      ****** ****** ****** ****** ****** ****** ****** ****** ****** ******
      ****** ****** ****** ****** ****** ****** ****** ****** ****** ******
  24  ****** ****** ****** ****** ****** ****** ****** ****** ****** ******
      ****** ****** ****** ****** ****** ****** ****** ****** ****** ******
      ****** ****** ****** ****** ****** ****** ****** ****** ****** ******
  25  ****** ****** ****** ****** ****** ****** ****** ****** ****** ******
      ****** ****** ****** ****** ****** ****** ****** ****** ****** ******
      ****** ****** ****** ****** ****** ****** ****** ****** ****** ******

 HEAD WILL BE SAVED ON UNIT   51 AT END OF TIME STEP    1, STRESS PERIOD   10
1
  VOLUMETRIC BUDGET FOR ENTIRE MODEL AT END OF TIME STEP    1, STRESS PERIOD  10
  ------------------------------------------------------------------------------

     CUMULATIVE VOLUMES      L**3       RATES FOR THIS TIME STEP      L**3/T
     ------------------                 ------------------------

           IN:                                      IN:
           ---                                      ---
             STORAGE =    35272050.5141               STORAGE =           0.0000
       CONSTANT HEAD =    27326484.7704         CONSTANT HEAD =       33921.3516
               WELLS =           0.0000                 WELLS =           0.0000
            RECHARGE =    23901600.0000              RECHARGE =       55200.0000
      STREAM LEAKAGE =     6959845.0017        STREAM LEAKAGE =        7221.1483

            TOTAL IN =    93459980.2862              TOTAL IN =       96342.4998

          OUT:                                     OUT:
          ----                                     ----
             STORAGE =     2330408.7668               STORAGE =       15671.8733
       CONSTANT HEAD =           0.0000         CONSTANT HEAD =           0.0000
               WELLS =    35804939.9508                 WELLS =       39216.8017
            RECHARGE =           0.0000              RECHARGE =           0.0000
      STREAM LEAKAGE =    55324633.2293        STREAM LEAKAGE =       41453.8208

           TOTAL OUT =    93459981.9469             TOTAL OUT =       96342.4958

            IN - OUT =          -1.6608              IN - OUT =       3.9732E-03

 PERCENT DISCREPANCY =          -0.00     PERCENT DISCREPANCY =           0.00






         TIME SUMMARY AT END OF TIME STEP    1 IN STRESS PERIOD   10
                    SECONDS     MINUTES      HOURS       DAYS        YEARS
                    -----------------------------------------------------------
   TIME STEP LENGTH 7.86240E+06 1.31040E+05  2184.0      91.000     0.24914    
 STRESS PERIOD TIME 7.86240E+06 1.31040E+05  2184.0      91.000     0.24914    
         TOTAL TIME 7.88832E+07 1.31472E+06  21912.      913.00      2.4997    
1
1
                            STRESS PERIOD NO.   11, LENGTH =   91.00000    
                            -----------------------------------------------

                              NUMBER OF TIME STEPS =     1

                               MULTIPLIER FOR DELT =     1.500

                            INITIAL TIME STEP SIZE =   91.00000    

 WELL NO.  LAYER   ROW   COL   STRESS RATE         
 --------------------------------------------------
      1      1      9     21     -0.1443E+05
      2      1      5     25      -7885.    
      3      1     22     18      -7019.    
      4      1     19      6      -9882.    

      4 WELLS

                 RECHARGE =   0.00000    

 REUSING STREAM SEGMENT DATA FROM LAST STRESS PERIOD
 
 SOLVING FOR HEAD 


     7 CALLS TO PCG ROUTINE FOR TIME STEP   1 IN STRESS PERIOD   11
    26 TOTAL ITERATIONS

 OUTPUT CONTROL FOR STRESS PERIOD   11   TIME STEP    1
    SAVE BUDGET
    SAVE HEAD FOR ALL LAYERS
    PRINT HEAD FOR ALL LAYERS
 UBDSV2 SAVING "STREAMFLOW OUT  " ON UNIT  50 AT TIME STEP  1, STRESS PERIOD  11



 STREAM LISTING     PERIOD     11   STEP        1

 LAYER ROW COL. STREAM  RCH.  FLOW INTO     FLOW TO   FLOW OUT OF   OVRLND.     DIRECT     STREAM       STREAM     STREAM     STREAM   STREAMBED  STREAMBED
                SEG.NO.  NO.  STRM. RCH.    AQUIFER    STRM. RCH.    RUNOFF     PRECIP       ET          HEAD       DEPTH      WIDTH   CONDCTNC.   GRADIENT

   1   13    1     1     1    1.0000E+05 -1.1500E+03   1.0115E+05  0.000E+00  0.000E+00  0.000E+00  4.84065E+01  1.452E-01  2.000E+01  2.000E+04 -5.750E-02
   1   13    2     1     2    1.0115E+05 -2.0898E+03   1.0324E+05  0.000E+00  0.000E+00  0.000E+00  4.79306E+01  1.465E-01  2.000E+01  2.000E+04 -1.045E-01
   1   14    3     1     3    1.0324E+05 -2.3613E+02   1.0348E+05  0.000E+00  0.000E+00  0.000E+00  4.74544E+01  1.475E-01  2.000E+01  2.000E+04 -1.181E-02
   1   15    4     1     4    1.0348E+05 -1.1661E+02   1.0359E+05  0.000E+00  0.000E+00  0.000E+00  4.69772E+01  1.477E-01  2.000E+01  2.000E+04 -5.831E-03
   1   16    5     1     5    1.0359E+05  7.4193E+02   1.0285E+05  0.000E+00  0.000E+00  0.000E+00  4.64997E+01  1.474E-01  2.000E+01  2.000E+04  3.710E-02
   1   16    6     1     6    1.0285E+05  5.4868E+02   1.0230E+05  0.000E+00  0.000E+00  0.000E+00  4.60219E+01  1.469E-01  2.000E+01  2.000E+04  2.743E-02
   1   16    7     1     7    1.0230E+05  3.1907E+02   1.0198E+05  0.000E+00  0.000E+00  0.000E+00  4.55442E+01  1.465E-01  2.000E+01  2.000E+04  1.595E-02
   1   16    8     1     8    1.0198E+05  6.0956E+01   1.0192E+05  0.000E+00  0.000E+00  0.000E+00  4.50668E+01  1.463E-01  2.000E+01  2.000E+04  3.048E-03
   1   16    9     1     9    1.0192E+05 -1.3311E+02   1.0205E+05  0.000E+00  0.000E+00  0.000E+00  4.45896E+01  1.464E-01  2.000E+01  2.000E+04 -6.655E-03
   1   16   10     1    10    1.0205E+05 -2.5123E+02   1.0231E+05  0.000E+00  0.000E+00  0.000E+00  4.41124E+01  1.465E-01  2.000E+01  2.000E+04 -1.256E-02
   1   16   11     1    11    1.0231E+05 -3.1067E+02   1.0262E+05  0.000E+00  0.000E+00  0.000E+00  4.36354E+01  1.468E-01  2.000E+01  2.000E+04 -1.553E-02
   1   16   12     1    12    1.0262E+05 -6.2449E+02   1.0324E+05  0.000E+00  0.000E+00  0.000E+00  4.31585E+01  1.472E-01  2.000E+01  2.000E+04 -3.122E-02
   1   15   13     1    13    1.0324E+05 -7.4878E+02   1.0399E+05  0.000E+00  0.000E+00  0.000E+00  4.26819E+01  1.478E-01  2.000E+01  2.000E+04 -3.744E-02
   1   14   14     1    14    1.0399E+05 -1.0505E+03   1.0504E+05  0.000E+00  0.000E+00  0.000E+00  4.22054E+01  1.485E-01  2.000E+01  2.000E+04 -5.252E-02
   1   13   15     1    15    1.0504E+05 -1.3185E+03   1.0636E+05  0.000E+00  0.000E+00  0.000E+00  4.17291E+01  1.495E-01  2.000E+01  2.000E+04 -6.592E-02
   1   12   16     1    16    1.0636E+05 -1.6522E+03   1.0801E+05  0.000E+00  0.000E+00  0.000E+00  4.12531E+01  1.508E-01  2.000E+01  2.000E+04 -8.261E-02
   1   12   17     1    17    1.0801E+05 -7.6835E+02   1.0878E+05  0.000E+00  0.000E+00  0.000E+00  4.07768E+01  1.518E-01  2.000E+01  2.000E+04 -3.842E-02
   1   12   18     1    18    1.0878E+05 -4.1737E+02   1.0920E+05  0.000E+00  0.000E+00  0.000E+00  4.03000E+01  1.523E-01  2.000E+01  2.000E+04 -2.087E-02
   1   12   19     1    19    1.0920E+05  2.2427E+02   1.0897E+05  0.000E+00  0.000E+00  0.000E+00  3.98229E+01  1.524E-01  2.000E+01  2.000E+04  1.121E-02
   1   13   20     1    20    1.0897E+05  7.2683E+01   1.0890E+05  0.000E+00  0.000E+00  0.000E+00  3.93455E+01  1.523E-01  2.000E+01  2.000E+04  3.634E-03
   1   14   21     1    21    1.0890E+05 -3.3514E+02   1.0924E+05  0.000E+00  0.000E+00  0.000E+00  3.88683E+01  1.524E-01  2.000E+01  2.000E+04 -1.676E-02
   1   14   22     1    22    1.0924E+05  5.2173E+03   1.0402E+05  0.000E+00  0.000E+00  0.000E+00  3.83890E+01  1.503E-01  2.000E+01  2.000E+04  2.609E-01
   1    9   30     2     1    5.0000E+04  2.6377E+02   4.9736E+04  0.000E+00  0.000E+00  0.000E+00  4.02407E+01  1.157E-01  2.000E+01  2.000E+04  1.319E-02
   1    9   29     2     2    4.9736E+04  4.3017E+01   4.9693E+04  0.000E+00  0.000E+00  0.000E+00  3.99905E+01  1.155E-01  2.000E+01  2.000E+04  2.151E-03
   1    9   28     2     3    4.9693E+04 -1.4000E+01   4.9707E+04  0.000E+00  0.000E+00  0.000E+00  3.97404E+01  1.154E-01  2.000E+01  2.000E+04 -7.000E-04
   1    9   27     2     4    4.9707E+04 -3.9838E+01   4.9747E+04  0.000E+00  0.000E+00  0.000E+00  3.94905E+01  1.155E-01  2.000E+01  2.000E+04 -1.992E-03
   1   10   26     2     5    4.9747E+04  4.0088E+02   4.9346E+04  0.000E+00  0.000E+00  0.000E+00  3.92402E+01  1.152E-01  2.000E+01  2.000E+04  2.004E-02
   1   11   25     2     6    4.9346E+04  5.3985E+02   4.8806E+04  0.000E+00  0.000E+00  0.000E+00  3.89896E+01  1.146E-01  2.000E+01  2.000E+04  2.699E-02
   1   12   24     2     7    4.8806E+04  4.9795E+02   4.8308E+04  0.000E+00  0.000E+00  0.000E+00  3.87388E+01  1.138E-01  2.000E+01  2.000E+04  2.490E-02
   1   13   23     2     8    4.8308E+04  9.8840E+01   4.8210E+04  0.000E+00  0.000E+00  0.000E+00  3.84884E+01  1.134E-01  2.000E+01  2.000E+04  4.942E-03
   1   14   22     2     9    4.8210E+04  2.1743E+03   4.6035E+04  0.000E+00  0.000E+00  0.000E+00  3.82368E+01  1.118E-01  2.000E+01  2.000E+04  1.087E-01
   1   14   22     3     1    1.5005E+05 -8.3376E+03   1.5839E+05  0.000E+00  0.000E+00  0.000E+00  3.77112E+01  1.557E-01  2.000E+01  2.000E+04 -4.169E-01
   1   15   23     3     2    1.5839E+05 -3.3997E+02   1.5873E+05  0.000E+00  0.000E+00  0.000E+00  3.68249E+01  1.583E-01  2.000E+01  2.000E+04 -1.700E-02
   1   15   24     3     3    1.5873E+05 -1.7516E+02   1.5891E+05  0.000E+00  0.000E+00  0.000E+00  3.59362E+01  1.584E-01  2.000E+01  2.000E+04 -8.758E-03
   1   15   25     3     4    1.5891E+05 -1.7900E+02   1.5908E+05  0.000E+00  0.000E+00  0.000E+00  3.50474E+01  1.585E-01  2.000E+01  2.000E+04 -8.950E-03
   1   15   26     3     5    1.5908E+05 -2.3734E+02   1.5932E+05  0.000E+00  0.000E+00  0.000E+00  3.41587E+01  1.587E-01  2.000E+01  2.000E+04 -1.187E-02
   1   16   27     3     6    1.5932E+05 -2.4533E+02   1.5957E+05  0.000E+00  0.000E+00  0.000E+00  3.32699E+01  1.588E-01  2.000E+01  2.000E+04 -1.227E-02
   1   17   28     3     7    1.5957E+05 -1.1884E+03   1.6076E+05  0.000E+00  0.000E+00  0.000E+00  3.23815E+01  1.592E-01  2.000E+01  2.000E+04 -5.942E-02
   1   18   29     3     8    1.6076E+05 -2.3721E+03   1.6313E+05  0.000E+00  0.000E+00  0.000E+00  3.14936E+01  1.603E-01  2.000E+01  2.000E+04 -1.186E-01
   1   18   30     3     9    1.6313E+05 -2.8143E+03   1.6594E+05  0.000E+00  0.000E+00  0.000E+00  3.06063E+01  1.618E-01  2.000E+01  2.000E+04 -1.407E-01



1
              HEAD IN LAYER   1 AT END OF TIME STEP   1 IN STRESS PERIOD   11
  ---------------------------------------------------------------------------

          1      2      3      4      5      6      7      8      9     10
         11     12     13     14     15     16     17     18     19     20
         21     22     23     24     25     26     27     28     29     30
 .........................................................................
   1  ****** ****** ****** ****** ****** ****** ****** ****** ****** ******
      ****** ****** ****** ****** ****** ****** ****** ****** ****** ******
      ****** ****** ****** ****** ****** ****** ****** ****** ****** ******
   2  ****** ****** ****** ****** ****** ****** ****** ****** ****** ******
      ****** ****** ****** ****** ****** ****** ****** ****** ****** ******
      ****** ****** ****** ****** ****** ****** ****** ****** ****** ******
   3  ****** ****** ****** ****** ****** ****** ****** ****** ****** ******
      ****** ****** ****** ****** ****** ****** ****** ****** ****** ******
      ****** ****** ****** ****** ****** ****** ****** ****** ****** ******
   4  ****** ****** ****** ****** ****** ****** ****** ****** ****** ******
      ****** ****** ****** ****** ****** ****** ****** ****** ****** ******
      ****** ****** ****** ****** ****** ****** ****** ****** ****** ******
   5  ****** ****** ****** ****** ****** ****** ****** ****** ****** ******
      ****** ****** ****** ****** ****** ****** ****** ****** ****** ******
      ****** ****** ****** ****** ****** ****** ****** ****** ****** ******
   6  ****** ****** ****** ****** ****** ****** ****** ****** ****** ******
      ****** ****** ****** ****** ****** ****** ****** ****** ****** ******
      ****** ****** ****** ****** ****** ****** ****** ****** ****** ******
   7  ****** ****** ****** ****** ****** ****** ****** ****** ****** ******
      ****** ****** ****** ****** ****** ****** ****** ****** ****** ******
      ****** ****** ****** ****** ****** ****** ****** ****** ****** ******
   8  ****** ****** ****** ****** ****** ****** ****** ****** ****** ******
      ****** ****** ****** ****** ****** ****** ****** ****** ****** ******
      ****** ****** ****** ****** ****** ****** ****** ****** ****** ******
   9  ****** ****** ****** ****** ****** ****** ****** ****** ****** ******
      ****** ****** ****** ****** ****** ****** ****** ****** ****** ******
      ****** ****** ****** ****** ****** ****** ****** ****** ****** ******
  10  ****** ****** ****** ****** ****** ****** ****** ****** ****** ******
      ****** ****** ****** ****** ****** ****** ****** ****** ****** ******
      ****** ****** ****** ****** ****** ****** ****** ****** ****** ******
  11  ****** ****** ****** ****** ****** ****** ****** ****** ****** ******
      ****** ****** ****** ****** ****** ****** ****** ****** ****** ******
      ****** ****** ****** ****** ****** ****** ****** ****** ****** ******
  12  ****** ****** ****** ****** ****** ****** ****** ****** ****** ******
      ****** ****** ****** ****** ****** ****** ****** ****** ****** ******
      ****** ****** ****** ****** ****** ****** ****** ****** ****** ******
  13  ****** ****** ****** ****** ****** ****** ****** ****** ****** ******
      ****** ****** ****** ****** ****** ****** ****** ****** ****** ******
      ****** ****** ****** ****** ****** ****** ****** ****** ****** ******
  14  ****** ****** ****** ****** ****** ****** ****** ****** ****** ******
      ****** ****** ****** ****** ****** ****** ****** ****** ****** ******
      ****** ****** ****** ****** ****** ****** ****** ****** ****** ******
  15  ****** ****** ****** ****** ****** ****** ****** ****** ****** ******
      ****** ****** ****** ****** ****** ****** ****** ****** ****** ******
      ****** ****** ****** ****** ****** ****** ****** ****** ****** ******
  16  ****** ****** ****** ****** ****** ****** ****** ****** ****** ******
      ****** ****** ****** ****** ****** ****** ****** ****** ****** ******
      ****** ****** ****** ****** ****** ****** ****** ****** ****** ******
  17  ****** ****** ****** ****** ****** ****** ****** ****** ****** ******
      ****** ****** ****** ****** ****** ****** ****** ****** ****** ******
      ****** ****** ****** ****** ****** ****** ****** ****** ****** ******
  18  ****** ****** ****** ****** ****** ****** ****** ****** ****** ******
      ****** ****** ****** ****** ****** ****** ****** ****** ****** ******
      ****** ****** ****** ****** ****** ****** ****** ****** ****** ******
  19  ****** ****** ****** ****** ****** ****** ****** ****** ****** ******
      ****** ****** ****** ****** ****** ****** ****** ****** ****** ******
      ****** ****** ****** ****** ****** ****** ****** ****** ****** ******
  20  ****** ****** ****** ****** ****** ****** ****** ****** ****** ******
      ****** ****** ****** ****** ****** ****** ****** ****** ****** ******
      ****** ****** ****** ****** ****** ****** ****** ****** ****** ******
  21  ****** ****** ****** ****** ****** ****** ****** ****** ****** ******
      ****** ****** ****** ****** ****** ****** ****** ****** ****** ******
      ****** ****** ****** ****** ****** ****** ****** ****** ****** ******
  22  ****** ****** ****** ****** ****** ****** ****** ****** ****** ******
      ****** ****** ****** ****** ****** ****** ****** ****** ****** ******
      ****** ****** ****** ****** ****** ****** ****** ****** ****** ******
  23  ****** ****** ****** ****** ****** ****** ****** ****** ****** ******
      ****** ****** ****** ****** ****** ****** ****** ****** ****** ******
      ****** ****** ****** ****** ****** ****** ****** ****** ****** ******
  24  ****** ****** ****** ****** ****** ****** ****** ****** ****** ******
      ****** ****** ****** ****** ****** ****** ****** ****** ****** ******
      ****** ****** ****** ****** ****** ****** ****** ****** ****** ******
  25  ****** ****** ****** ****** ****** ****** ****** ****** ****** ******
      ****** ****** ****** ****** ****** ****** ****** ****** ****** ******
      ****** ****** ****** ****** ****** ****** ****** ****** ****** ******

 HEAD WILL BE SAVED ON UNIT   51 AT END OF TIME STEP    1, STRESS PERIOD   11
1
  VOLUMETRIC BUDGET FOR ENTIRE MODEL AT END OF TIME STEP    1, STRESS PERIOD  11
  ------------------------------------------------------------------------------

     CUMULATIVE VOLUMES      L**3       RATES FOR THIS TIME STEP      L**3/T
     ------------------                 ------------------------

           IN:                                      IN:
           ---                                      ---
             STORAGE =    36905470.0542               STORAGE =       17949.6653
       CONSTANT HEAD =    30712546.1899         CONSTANT HEAD =       37209.4661
               WELLS =           0.0000                 WELLS =           0.0000
            RECHARGE =    23901600.0000              RECHARGE =           0.0000
      STREAM LEAKAGE =     7979365.6750        STREAM LEAKAGE =       11203.5239

            TOTAL IN =    99498981.9191              TOTAL IN =       66362.6553

          OUT:                                     OUT:
          ----                                     ----
             STORAGE =     2330408.7668               STORAGE =           0.0000
       CONSTANT HEAD =           0.0000         CONSTANT HEAD =           0.0000
               WELLS =    39373668.9054                 WELLS =       39216.8017
            RECHARGE =           0.0000              RECHARGE =           0.0000
      STREAM LEAKAGE =    57794906.3790        STREAM LEAKAGE =       27145.8588

           TOTAL OUT =    99498984.0512             TOTAL OUT =       66362.6605

            IN - OUT =          -2.1321              IN - OUT =      -5.1799E-03

 PERCENT DISCREPANCY =          -0.00     PERCENT DISCREPANCY =          -0.00






         TIME SUMMARY AT END OF TIME STEP    1 IN STRESS PERIOD   11
                    SECONDS     MINUTES      HOURS       DAYS        YEARS
                    -----------------------------------------------------------
   TIME STEP LENGTH 7.86240E+06 1.31040E+05  2184.0      91.000     0.24914    
 STRESS PERIOD TIME 7.86240E+06 1.31040E+05  2184.0      91.000     0.24914    
         TOTAL TIME 8.67456E+07 1.44576E+06  24096.      1004.0      2.7488    
1
1
                            STRESS PERIOD NO.   12, LENGTH =   91.00000    
                            -----------------------------------------------

                              NUMBER OF TIME STEPS =     1

                               MULTIPLIER FOR DELT =     1.500

                            INITIAL TIME STEP SIZE =   91.00000    

 WELL NO.  LAYER   ROW   COL   STRESS RATE         
 --------------------------------------------------
      1      1      9     21     -0.1443E+05
      2      1      5     25      -7885.    
      3      1     22     18      -7019.    
      4      1     19      6      -9882.    

      4 WELLS

                 RECHARGE =  1.000000E-03

 REUSING STREAM SEGMENT DATA FROM LAST STRESS PERIOD
 
 SOLVING FOR HEAD 


     6 CALLS TO PCG ROUTINE FOR TIME STEP   1 IN STRESS PERIOD   12
    23 TOTAL ITERATIONS

 OUTPUT CONTROL FOR STRESS PERIOD   12   TIME STEP    1
    SAVE BUDGET
    SAVE HEAD FOR ALL LAYERS
    PRINT HEAD FOR ALL LAYERS
 UBDSV2 SAVING "STREAMFLOW OUT  " ON UNIT  50 AT TIME STEP  1, STRESS PERIOD  12



 STREAM LISTING     PERIOD     12   STEP        1

 LAYER ROW COL. STREAM  RCH.  FLOW INTO     FLOW TO   FLOW OUT OF   OVRLND.     DIRECT     STREAM       STREAM     STREAM     STREAM   STREAMBED  STREAMBED
                SEG.NO.  NO.  STRM. RCH.    AQUIFER    STRM. RCH.    RUNOFF     PRECIP       ET          HEAD       DEPTH      WIDTH   CONDCTNC.   GRADIENT

   1   13    1     1     1    1.0000E+05 -1.2940E+03   1.0129E+05  0.000E+00  0.000E+00  0.000E+00  4.84066E+01  1.452E-01  2.000E+01  2.000E+04 -6.470E-02
   1   13    2     1     2    1.0129E+05 -2.2447E+03   1.0354E+05  0.000E+00  0.000E+00  0.000E+00  4.79308E+01  1.467E-01  2.000E+01  2.000E+04 -1.122E-01
   1   14    3     1     3    1.0354E+05 -3.1465E+02   1.0385E+05  0.000E+00  0.000E+00  0.000E+00  4.74547E+01  1.478E-01  2.000E+01  2.000E+04 -1.573E-02
   1   15    4     1     4    1.0385E+05 -1.9893E+02   1.0405E+05  0.000E+00  0.000E+00  0.000E+00  4.69776E+01  1.481E-01  2.000E+01  2.000E+04 -9.946E-03
   1   16    5     1     5    1.0405E+05  5.3243E+02   1.0352E+05  0.000E+00  0.000E+00  0.000E+00  4.65002E+01  1.479E-01  2.000E+01  2.000E+04  2.662E-02
   1   16    6     1     6    1.0352E+05  4.1837E+02   1.0310E+05  0.000E+00  0.000E+00  0.000E+00  4.60225E+01  1.475E-01  2.000E+01  2.000E+04  2.092E-02
   1   16    7     1     7    1.0310E+05  1.9382E+02   1.0291E+05  0.000E+00  0.000E+00  0.000E+00  4.55450E+01  1.472E-01  2.000E+01  2.000E+04  9.691E-03
   1   16    8     1     8    1.0291E+05 -6.3247E+01   1.0297E+05  0.000E+00  0.000E+00  0.000E+00  4.50676E+01  1.472E-01  2.000E+01  2.000E+04 -3.162E-03
   1   16    9     1     9    1.0297E+05 -2.5773E+02   1.0323E+05  0.000E+00  0.000E+00  0.000E+00  4.45905E+01  1.473E-01  2.000E+01  2.000E+04 -1.289E-02
   1   16   10     1    10    1.0323E+05 -3.7718E+02   1.0361E+05  0.000E+00  0.000E+00  0.000E+00  4.41135E+01  1.476E-01  2.000E+01  2.000E+04 -1.886E-02
   1   16   11     1    11    1.0361E+05 -4.3882E+02   1.0404E+05  0.000E+00  0.000E+00  0.000E+00  4.36366E+01  1.479E-01  2.000E+01  2.000E+04 -2.194E-02
   1   16   12     1    12    1.0404E+05 -8.2591E+02   1.0487E+05  0.000E+00  0.000E+00  0.000E+00  4.31599E+01  1.485E-01  2.000E+01  2.000E+04 -4.130E-02
   1   15   13     1    13    1.0487E+05 -9.6551E+02   1.0584E+05  0.000E+00  0.000E+00  0.000E+00  4.26833E+01  1.492E-01  2.000E+01  2.000E+04 -4.828E-02
   1   14   14     1    14    1.0584E+05 -1.2678E+03   1.0710E+05  0.000E+00  0.000E+00  0.000E+00  4.22070E+01  1.502E-01  2.000E+01  2.000E+04 -6.339E-02
   1   13   15     1    15    1.0710E+05 -1.5285E+03   1.0863E+05  0.000E+00  0.000E+00  0.000E+00  4.17309E+01  1.514E-01  2.000E+01  2.000E+04 -7.643E-02
   1   12   16     1    16    1.0863E+05 -1.8358E+03   1.1047E+05  0.000E+00  0.000E+00  0.000E+00  4.12551E+01  1.528E-01  2.000E+01  2.000E+04 -9.179E-02
   1   12   17     1    17    1.1047E+05 -9.2184E+02   1.1139E+05  0.000E+00  0.000E+00  0.000E+00  4.07789E+01  1.539E-01  2.000E+01  2.000E+04 -4.609E-02
   1   12   18     1    18    1.1139E+05 -5.7301E+02   1.1196E+05  0.000E+00  0.000E+00  0.000E+00  4.03023E+01  1.546E-01  2.000E+01  2.000E+04 -2.865E-02
   1   12   19     1    19    1.1196E+05  3.1836E+01   1.1193E+05  0.000E+00  0.000E+00  0.000E+00  3.98252E+01  1.548E-01  2.000E+01  2.000E+04  1.592E-03
   1   13   20     1    20    1.1193E+05 -1.3758E+02   1.1207E+05  0.000E+00  0.000E+00  0.000E+00  3.93480E+01  1.548E-01  2.000E+01  2.000E+04 -6.879E-03
   1   14   21     1    21    1.1207E+05 -5.2900E+02   1.1260E+05  0.000E+00  0.000E+00  0.000E+00  3.88710E+01  1.551E-01  2.000E+01  2.000E+04 -2.645E-02
   1   14   22     1    22    1.1260E+05  5.1641E+03   1.0743E+05  0.000E+00  0.000E+00  0.000E+00  3.83918E+01  1.532E-01  2.000E+01  2.000E+04  2.582E-01
   1    9   30     2     1    5.0000E+04  8.7393E+01   4.9913E+04  0.000E+00  0.000E+00  0.000E+00  4.02408E+01  1.158E-01  2.000E+01  2.000E+04  4.370E-03
   1    9   29     2     2    4.9913E+04 -1.3131E+02   5.0044E+04  0.000E+00  0.000E+00  0.000E+00  3.99908E+01  1.158E-01  2.000E+01  2.000E+04 -6.566E-03
   1    9   28     2     3    5.0044E+04 -1.8481E+02   5.0229E+04  0.000E+00  0.000E+00  0.000E+00  3.97411E+01  1.161E-01  2.000E+01  2.000E+04 -9.240E-03
   1    9   27     2     4    5.0229E+04 -2.4891E+02   5.0478E+04  0.000E+00  0.000E+00  0.000E+00  3.94914E+01  1.164E-01  2.000E+01  2.000E+04 -1.245E-02
   1   10   26     2     5    5.0478E+04  1.7111E+02   5.0307E+04  0.000E+00  0.000E+00  0.000E+00  3.92414E+01  1.164E-01  2.000E+01  2.000E+04  8.556E-03
   1   11   25     2     6    5.0307E+04  3.1398E+02   4.9993E+04  0.000E+00  0.000E+00  0.000E+00  3.89911E+01  1.161E-01  2.000E+01  2.000E+04  1.570E-02
   1   12   24     2     7    4.9993E+04  2.9181E+02   4.9701E+04  0.000E+00  0.000E+00  0.000E+00  3.87407E+01  1.157E-01  2.000E+01  2.000E+04  1.459E-02
   1   13   23     2     8    4.9701E+04  2.1223E+01   4.9680E+04  0.000E+00  0.000E+00  0.000E+00  3.84904E+01  1.154E-01  2.000E+01  2.000E+04  1.061E-03
   1   14   22     2     9    4.9680E+04  2.1067E+03   4.7573E+04  0.000E+00  0.000E+00  0.000E+00  3.82389E+01  1.139E-01  2.000E+01  2.000E+04  1.053E-01
   1   14   22     3     1    1.5501E+05 -8.3878E+03   1.6339E+05  0.000E+00  0.000E+00  0.000E+00  3.77142E+01  1.587E-01  2.000E+01  2.000E+04 -4.194E-01
   1   15   23     3     2    1.6339E+05 -4.1194E+02   1.6381E+05  0.000E+00  0.000E+00  0.000E+00  3.68279E+01  1.613E-01  2.000E+01  2.000E+04 -2.060E-02
   1   15   24     3     3    1.6381E+05 -2.4021E+02   1.6405E+05  0.000E+00  0.000E+00  0.000E+00  3.59392E+01  1.615E-01  2.000E+01  2.000E+04 -1.201E-02
   1   15   25     3     4    1.6405E+05 -2.4532E+02   1.6429E+05  0.000E+00  0.000E+00  0.000E+00  3.50505E+01  1.616E-01  2.000E+01  2.000E+04 -1.227E-02
   1   15   26     3     5    1.6429E+05 -3.1480E+02   1.6461E+05  0.000E+00  0.000E+00  0.000E+00  3.41618E+01  1.618E-01  2.000E+01  2.000E+04 -1.574E-02
   1   16   27     3     6    1.6461E+05 -3.3207E+02   1.6494E+05  0.000E+00  0.000E+00  0.000E+00  3.32731E+01  1.620E-01  2.000E+01  2.000E+04 -1.660E-02
   1   17   28     3     7    1.6494E+05 -1.4090E+03   1.6635E+05  0.000E+00  0.000E+00  0.000E+00  3.23847E+01  1.625E-01  2.000E+01  2.000E+04 -7.045E-02
   1   18   29     3     8    1.6635E+05 -2.5725E+03   1.6892E+05  0.000E+00  0.000E+00  0.000E+00  3.14970E+01  1.637E-01  2.000E+01  2.000E+04 -1.286E-01
   1   18   30     3     9    1.6892E+05 -2.9823E+03   1.7190E+05  0.000E+00  0.000E+00  0.000E+00  3.06097E+01  1.653E-01  2.000E+01  2.000E+04 -1.491E-01



1
              HEAD IN LAYER   1 AT END OF TIME STEP   1 IN STRESS PERIOD   12
  ---------------------------------------------------------------------------

          1      2      3      4      5      6      7      8      9     10
         11     12     13     14     15     16     17     18     19     20
         21     22     23     24     25     26     27     28     29     30
 .........................................................................
   1  ****** ****** ****** ****** ****** ****** ****** ****** ****** ******
      ****** ****** ****** ****** ****** ****** ****** ****** ****** ******
      ****** ****** ****** ****** ****** ****** ****** ****** ****** ******
   2  ****** ****** ****** ****** ****** ****** ****** ****** ****** ******
      ****** ****** ****** ****** ****** ****** ****** ****** ****** ******
      ****** ****** ****** ****** ****** ****** ****** ****** ****** ******
   3  ****** ****** ****** ****** ****** ****** ****** ****** ****** ******
      ****** ****** ****** ****** ****** ****** ****** ****** ****** ******
      ****** ****** ****** ****** ****** ****** ****** ****** ****** ******
   4  ****** ****** ****** ****** ****** ****** ****** ****** ****** ******
      ****** ****** ****** ****** ****** ****** ****** ****** ****** ******
      ****** ****** ****** ****** ****** ****** ****** ****** ****** ******
   5  ****** ****** ****** ****** ****** ****** ****** ****** ****** ******
      ****** ****** ****** ****** ****** ****** ****** ****** ****** ******
      ****** ****** ****** ****** ****** ****** ****** ****** ****** ******
   6  ****** ****** ****** ****** ****** ****** ****** ****** ****** ******
      ****** ****** ****** ****** ****** ****** ****** ****** ****** ******
      ****** ****** ****** ****** ****** ****** ****** ****** ****** ******
   7  ****** ****** ****** ****** ****** ****** ****** ****** ****** ******
      ****** ****** ****** ****** ****** ****** ****** ****** ****** ******
      ****** ****** ****** ****** ****** ****** ****** ****** ****** ******
   8  ****** ****** ****** ****** ****** ****** ****** ****** ****** ******
      ****** ****** ****** ****** ****** ****** ****** ****** ****** ******
      ****** ****** ****** ****** ****** ****** ****** ****** ****** ******
   9  ****** ****** ****** ****** ****** ****** ****** ****** ****** ******
      ****** ****** ****** ****** ****** ****** ****** ****** ****** ******
      ****** ****** ****** ****** ****** ****** ****** ****** ****** ******
  10  ****** ****** ****** ****** ****** ****** ****** ****** ****** ******
      ****** ****** ****** ****** ****** ****** ****** ****** ****** ******
      ****** ****** ****** ****** ****** ****** ****** ****** ****** ******
  11  ****** ****** ****** ****** ****** ****** ****** ****** ****** ******
      ****** ****** ****** ****** ****** ****** ****** ****** ****** ******
      ****** ****** ****** ****** ****** ****** ****** ****** ****** ******
  12  ****** ****** ****** ****** ****** ****** ****** ****** ****** ******
      ****** ****** ****** ****** ****** ****** ****** ****** ****** ******
      ****** ****** ****** ****** ****** ****** ****** ****** ****** ******
  13  ****** ****** ****** ****** ****** ****** ****** ****** ****** ******
      ****** ****** ****** ****** ****** ****** ****** ****** ****** ******
      ****** ****** ****** ****** ****** ****** ****** ****** ****** ******
  14  ****** ****** ****** ****** ****** ****** ****** ****** ****** ******
      ****** ****** ****** ****** ****** ****** ****** ****** ****** ******
      ****** ****** ****** ****** ****** ****** ****** ****** ****** ******
  15  ****** ****** ****** ****** ****** ****** ****** ****** ****** ******
      ****** ****** ****** ****** ****** ****** ****** ****** ****** ******
      ****** ****** ****** ****** ****** ****** ****** ****** ****** ******
  16  ****** ****** ****** ****** ****** ****** ****** ****** ****** ******
      ****** ****** ****** ****** ****** ****** ****** ****** ****** ******
      ****** ****** ****** ****** ****** ****** ****** ****** ****** ******
  17  ****** ****** ****** ****** ****** ****** ****** ****** ****** ******
      ****** ****** ****** ****** ****** ****** ****** ****** ****** ******
      ****** ****** ****** ****** ****** ****** ****** ****** ****** ******
  18  ****** ****** ****** ****** ****** ****** ****** ****** ****** ******
      ****** ****** ****** ****** ****** ****** ****** ****** ****** ******
      ****** ****** ****** ****** ****** ****** ****** ****** ****** ******
  19  ****** ****** ****** ****** ****** ****** ****** ****** ****** ******
      ****** ****** ****** ****** ****** ****** ****** ****** ****** ******
      ****** ****** ****** ****** ****** ****** ****** ****** ****** ******
  20  ****** ****** ****** ****** ****** ****** ****** ****** ****** ******
      ****** ****** ****** ****** ****** ****** ****** ****** ****** ******
      ****** ****** ****** ****** ****** ****** ****** ****** ****** ******
  21  ****** ****** ****** ****** ****** ****** ****** ****** ****** ******
      ****** ****** ****** ****** ****** ****** ****** ****** ****** ******
      ****** ****** ****** ****** ****** ****** ****** ****** ****** ******
  22  ****** ****** ****** ****** ****** ****** ****** ****** ****** ******
      ****** ****** ****** ****** ****** ****** ****** ****** ****** ******
      ****** ****** ****** ****** ****** ****** ****** ****** ****** ******
  23  ****** ****** ****** ****** ****** ****** ****** ****** ****** ******
      ****** ****** ****** ****** ****** ****** ****** ****** ****** ******
      ****** ****** ****** ****** ****** ****** ****** ****** ****** ******
  24  ****** ****** ****** ****** ****** ****** ****** ****** ****** ******
      ****** ****** ****** ****** ****** ****** ****** ****** ****** ******
      ****** ****** ****** ****** ****** ****** ****** ****** ****** ******
  25  ****** ****** ****** ****** ****** ****** ****** ****** ****** ******
      ****** ****** ****** ****** ****** ****** ****** ****** ****** ******
      ****** ****** ****** ****** ****** ****** ****** ****** ****** ******

 HEAD WILL BE SAVED ON UNIT   51 AT END OF TIME STEP    1, STRESS PERIOD   12
1
  VOLUMETRIC BUDGET FOR ENTIRE MODEL AT END OF TIME STEP    1, STRESS PERIOD  12
  ------------------------------------------------------------------------------

     CUMULATIVE VOLUMES      L**3       RATES FOR THIS TIME STEP      L**3/T
     ------------------                 ------------------------

           IN:                                      IN:
           ---                                      ---
             STORAGE =    36906444.9867               STORAGE =          10.7135
       CONSTANT HEAD =    34035370.7435         CONSTANT HEAD =       36514.5555
               WELLS =           0.0000                 WELLS =           0.0000
            RECHARGE =    26413200.0000              RECHARGE =       27600.0000
      STREAM LEAKAGE =     8828656.8806        STREAM LEAKAGE =        9332.8704

            TOTAL IN =   106183672.6108              TOTAL IN =       73458.1395

          OUT:                                     OUT:
          ----                                     ----
             STORAGE =     2603958.9465               STORAGE =        3006.0459
       CONSTANT HEAD =           0.0000         CONSTANT HEAD =           0.0000
               WELLS =    42942397.8600                 WELLS =       39216.8017
            RECHARGE =           0.0000              RECHARGE =           0.0000
      STREAM LEAKAGE =    60637317.8752        STREAM LEAKAGE =       31235.2912

           TOTAL OUT =   106183674.6817             TOTAL OUT =       73458.1388

            IN - OUT =          -2.0708              IN - OUT =       6.7343E-04

 PERCENT DISCREPANCY =          -0.00     PERCENT DISCREPANCY =           0.00






         TIME SUMMARY AT END OF TIME STEP    1 IN STRESS PERIOD   12
                    SECONDS     MINUTES      HOURS       DAYS        YEARS
                    -----------------------------------------------------------
   TIME STEP LENGTH 7.86240E+06 1.31040E+05  2184.0      91.000     0.24914    
 STRESS PERIOD TIME 7.86240E+06 1.31040E+05  2184.0      91.000     0.24914    
         TOTAL TIME 9.46080E+07 1.57680E+06  26280.      1095.0      2.9979    
1

 Run end date and time (yyyy/mm/dd hh:mm:ss): 2019/06/07 22:53:43
 Elapsed run time:  0.156 Seconds

