                                  MODFLOW-2005     
      U.S. GEOLOGICAL SURVEY MODULAR FINITE-DIFFERENCE GROUND-WATER FLOW MODEL
                            VERSION 1.11.00 8/8/2013

 LIST FILE: supply2.lst
                         UNIT   10

 OPENING ..\data\supply.dis
 FILE TYPE:DIS   UNIT   11   STATUS:OLD    
 FORMAT:FORMATTED              ACCESS:SEQUENTIAL          

 OPENING ..\data\supply.ba6
 FILE TYPE:BAS6   UNIT   12   STATUS:OLD    
 FORMAT:FORMATTED              ACCESS:SEQUENTIAL          

 OPENING ..\data\supply.bc6
 FILE TYPE:BCF6   UNIT   13   STATUS:OLD    
 FORMAT:FORMATTED              ACCESS:SEQUENTIAL          

 OPENING ..\data\supply.rch
 FILE TYPE:RCH   UNIT   15   STATUS:OLD    
 FORMAT:FORMATTED              ACCESS:SEQUENTIAL          

 OPENING ..\data\supply2.sfr
 FILE TYPE:SFR   UNIT   16   STATUS:OLD    
 FORMAT:FORMATTED              ACCESS:SEQUENTIAL          

 OPENING ..\data\supply.oc
 FILE TYPE:OC   UNIT   17   STATUS:OLD    
 FORMAT:FORMATTED              ACCESS:SEQUENTIAL          

 OPENING ..\data\supply.pcg
 FILE TYPE:PCG   UNIT   18   STATUS:OLD    
 FORMAT:FORMATTED              ACCESS:SEQUENTIAL          

 OPENING supply2.wel
 FILE TYPE:WEL   UNIT   19   STATUS:OLD    
 FORMAT:FORMATTED              ACCESS:SEQUENTIAL          

 OPENING supply2sf.cbc
 FILE TYPE:DATA(BINARY)   UNIT   50   STATUS:UNKNOWN
 FORMAT:BINARY                 ACCESS:SEQUENTIAL          

 OPENING supply2hd.bhd
 FILE TYPE:DATA(BINARY)   UNIT   51   STATUS:UNKNOWN
 FORMAT:BINARY                 ACCESS:SEQUENTIAL          

 BAS -- BASIC PACKAGE, VERSION 7, 5/2/2005 INPUT READ FROM UNIT   12
 
 MODFLOW was compiled using uniform precision
 Precision of REAL and DOUBLE PRECISION variables:          15

 DISCRETIZATION INPUT DATA READ FROM UNIT   11
    1 LAYERS        25 ROWS        30 COLUMNS
   12 STRESS PERIOD(S) IN SIMULATION
 MODEL TIME UNIT IS DAYS
 MODEL LENGTH UNIT IS UNDEFINED
  Confining bed flag for each layer:
   0

                     DELR =   200.000    

                     DELC =   200.000    

 TOP ELEVATION OF LAYER 1 =  100.0000    

   MODEL LAYER BOTTOM EL. =   0.00000     FOR LAYER   1


 STRESS PERIOD     LENGTH       TIME STEPS     MULTIPLIER FOR DELT    SS FLAG
 ----------------------------------------------------------------------------
        1         92.00000          1                    1.500         TR
        2         91.00000          1                    1.500         TR
        3         91.00000          1                    1.500         TR
        4         91.00000          1                    1.500         TR
        5         92.00000          1                    1.500         TR
        6         91.00000          1                    1.500         TR
        7         91.00000          1                    1.500         TR
        8         91.00000          1                    1.500         TR
        9         92.00000          1                    1.500         TR
       10         91.00000          1                    1.500         TR
       11         91.00000          1                    1.500         TR
       12         91.00000          1                    1.500         TR

 TRANSIENT SIMULATION



 
 #MODOFC transient water supply sample problem                                   
 #                                                                               
 THE FREE FORMAT OPTION HAS BEEN SELECTED



                     BOUNDARY ARRAY FOR LAYER   1
 READING ON UNIT   12 WITH FORMAT: (20I4)              

 AQUIFER HEAD WILL BE SET TO   0.0000     AT ALL NO-FLOW NODES (IBOUND=0).



                       INITIAL HEAD FOR LAYER   1
 READING ON UNIT   12 WITH FORMAT: (10F13.0)           

 OUTPUT CONTROL IS SPECIFIED ONLY AT TIME STEPS FOR WHICH OUTPUT IS DESIRED
 COMPACT CELL-BY-CELL BUDGET FILES WILL BE WRITTEN
 HEAD PRINT FORMAT CODE IS  18    DRAWDOWN PRINT FORMAT CODE IS   0
 HEADS WILL BE SAVED ON UNIT   51    DRAWDOWNS WILL BE SAVED ON UNIT    0

 BCF -- BLOCK-CENTERED FLOW PACKAGE, VERSION 7, 5/2/2005
         INPUT READ FROM UNIT 13
 TRANSIENT SIMULATION
 HEAD AT CELLS THAT CONVERT TO DRY=   0.0000    
 WETTING CAPABILITY IS NOT ACTIVE
      LAYER  LAYER-TYPE CODE     INTERBLOCK T
      --------------------------------------------
         1            0          0 -- HARMONIC    

 COLUMN TO ROW ANISOTROPY =  1.000000    

     PRIMARY STORAGE COEF =  5.000000E-02 FOR LAYER   1

     TRANSMIS. ALONG ROWS =   500.000     FOR LAYER   1

 WEL -- WELL PACKAGE, VERSION 7, 5/2/2005 INPUT READ FROM UNIT   19
 # Well package input file written by MMProc
 No named parameters
 MAXIMUM OF      4 ACTIVE WELLS AT ONE TIME


     0 Well parameters

 RCH -- RECHARGE PACKAGE, VERSION 7, 5/2/2005 INPUT READ FROM UNIT   15
 No named parameters
 OPTION 1 -- RECHARGE TO TOP LAYER


     0 Recharge parameters

 SFR7 -- STREAMFLOW ROUTING PACKAGE, VERSION 1.0.7, 2013-01-15
         INPUT READ FROM UNIT  16
 #  Supply2 test problem for GWM-VI
 #  The eighth entry in the first data line is ISTCB2 -
 #    Setting this to a negative number indicates that
 #    streamflows out of the reach will be saved to a
 #    binary file.  The absolute value of ISTCB2 is the
 #    unit to which unformatted flows will be written.
 #
 No named parameters
 Segment information will not be 
 read by reach
 No named parameters
 No specifed inflow files


 NUMBER OF STREAM REACHES IS   40

 NUMBER OF STREAM SEGMENTS IS    3

 NUMBER OF STREAM PARAMETERS IS    0

 NUMBER OF STREAM SEGMENTS DEFINED USING PARAMETERS IS              0

 MAXIMUM ERROR FOR STREAM LEAKAGE RATES IS  1.00E-04

 CONSTANT FOR MANNINGS EQUATION IS  1.2839E+05





   STREAM NETWORK DESCRIPTION: 

   LAYER    ROW    COL   SEGMENT   REACH     LENGTH
                          NUMBER   NUMBER    IN CELL        
   --------------------------------------------------
      1     13      1       1        1    2.0000E+02
      1     13      2       1        2    2.0000E+02
      1     14      3       1        3    2.0000E+02
      1     15      4       1        4    2.0000E+02
      1     16      5       1        5    2.0000E+02
      1     16      6       1        6    2.0000E+02
      1     16      7       1        7    2.0000E+02
      1     16      8       1        8    2.0000E+02
      1     16      9       1        9    2.0000E+02
      1     16     10       1       10    2.0000E+02
      1     16     11       1       11    2.0000E+02
      1     16     12       1       12    2.0000E+02
      1     15     13       1       13    2.0000E+02
      1     14     14       1       14    2.0000E+02
      1     13     15       1       15    2.0000E+02
      1     12     16       1       16    2.0000E+02
      1     12     17       1       17    2.0000E+02
      1     12     18       1       18    2.0000E+02
      1     12     19       1       19    2.0000E+02
      1     13     20       1       20    2.0000E+02
      1     14     21       1       21    2.0000E+02
      1     14     22       1       22    2.0000E+02
      1      9     30       2        1    2.0000E+02
      1      9     29       2        2    2.0000E+02
      1      9     28       2        3    2.0000E+02
      1      9     27       2        4    2.0000E+02
      1     10     26       2        5    2.0000E+02
      1     11     25       2        6    2.0000E+02
      1     12     24       2        7    2.0000E+02
      1     13     23       2        8    2.0000E+02
      1     14     22       2        9    2.0000E+02
      1     14     22       3        1    2.0000E+02
      1     15     23       3        2    2.0000E+02
      1     15     24       3        3    2.0000E+02
      1     15     25       3        4    2.0000E+02
      1     15     26       3        5    2.0000E+02
      1     16     27       3        6    2.0000E+02
      1     17     28       3        7    2.0000E+02
      1     18     29       3        8    2.0000E+02
      1     18     30       3        9    2.0000E+02




 PCG -- CONJUGATE-GRADIENT SOLUTION PACKAGE, VERSION 7, 5/2/2005
 MAXIMUM OF    500 CALLS OF SOLUTION ROUTINE
 MAXIMUM OF      5 INTERNAL ITERATIONS PER CALL TO SOLUTION ROUTINE
 MATRIX PRECONDITIONING TYPE :    1



                                    SOLUTION BY THE CONJUGATE-GRADIENT METHOD
                                   -------------------------------------------
                    MAXIMUM NUMBER OF CALLS TO PCG ROUTINE =      500
                        MAXIMUM ITERATIONS PER CALL TO PCG =        5
                               MATRIX PRECONDITIONING TYPE =        1
        RELAXATION FACTOR (ONLY USED WITH PRECOND. TYPE 1) =    0.10000E+01
 PARAMETER OF POLYNOMIAL PRECOND. = 2 (2) OR IS CALCULATED :        0
                         HEAD CHANGE CRITERION FOR CLOSURE =    0.10000E-05
                     RESIDUAL CHANGE CRITERION FOR CLOSURE =    0.10000E+01
            PCG HEAD AND RESIDUAL CHANGE PRINTOUT INTERVAL =        1
     PRINTING FROM SOLVER IS LIMITED(1) OR SUPPRESSED (>1) =        1
                            STEADY-STATE DAMPING PARAMETER =    0.10000E+01
                               TRANSIENT DAMPING PARAMETER =    0.10000E+01
1
                            STRESS PERIOD NO.    1, LENGTH =   92.00000    
                            -----------------------------------------------

                              NUMBER OF TIME STEPS =     1

                               MULTIPLIER FOR DELT =     1.500

                            INITIAL TIME STEP SIZE =   92.00000    

 WELL NO.  LAYER   ROW   COL   STRESS RATE         
 --------------------------------------------------
      1      1     21     15      -9504.    
      2      1     23     15     -0.2528E+05
      3      1     23     11     -0.3338E+05
      4      1     21     17     -0.2263E+05

      4 WELLS

                 RECHARGE =  5.000000E-04



 CLASSIFICATION & COUNT OF STREAM SEGMENTS BASED ON SOURCE OF INFLOW:

                HEADWATER     DIVERSION     RECEIVES TRIBUTARY FLOW
                ---------     ---------     -----------------------
                     2              0               1



                    INPUT DATA FOR EACH STREAM SEGMENT
 ---------------------------------------------------------------------------------------------

 SEGMENT    SEG.     INFLOW   OVERLAND   STREAM    STREAM   ICALC  OUTFLOW  DIVERSION PRIORITY
    NO.    LENGTH     RATE     RUNOFF      ET       PPT.    METH.  TO SEG.  FROM SEG.    NO.

      1  4.400E+03 1.000E+05 0.000E+00 0.000E+00 0.000E+00    1        3        0        0
      2  1.800E+03 5.000E+04 0.000E+00 0.000E+00 0.000E+00    1        3        0        0
      3  1.800E+03 0.000E+00 0.000E+00 0.000E+00 0.000E+00    1        0        0        0


         STREAMBED PROPERTIES AND STREAM DIMENSIONS

 SEGMENT     BED HYD. COND.      BED THICKNESS     ELEV.-TOP OF BED     WIDTH OF STREAM     DEPTH OF STREAM    STREAM ROUGHNESS
    No.     UPPER     LOWER     UPPER     LOWER     UPPER     LOWER     UPPER     LOWER     UPPER     LOWER   CHANNEL      BANK

     1  5.000E+00 5.000E+00 1.000E+00 1.000E+00 4.850E+01 3.800E+01 2.000E+01 2.000E+01                     5.000E-02
     2  5.000E+00 5.000E+00 1.000E+00 1.000E+00 4.025E+01 3.800E+01 2.000E+01 2.000E+01                     5.000E-02
     3  5.000E+00 5.000E+00 1.000E+00 1.000E+00 3.800E+01 3.000E+01 2.000E+01 2.000E+01                     5.000E-02



 
 SOLVING FOR HEAD 


     8 CALLS TO PCG ROUTINE FOR TIME STEP   1 IN STRESS PERIOD    1
    34 TOTAL ITERATIONS

 OUTPUT CONTROL FOR STRESS PERIOD    1   TIME STEP    1
    SAVE BUDGET
    SAVE HEAD FOR ALL LAYERS
    PRINT HEAD FOR ALL LAYERS
 UBDSV2 SAVING "STREAMFLOW OUT  " ON UNIT  50 AT TIME STEP  1, STRESS PERIOD   1



 STREAM LISTING     PERIOD      1   STEP        1

 LAYER ROW COL. STREAM  RCH.  FLOW INTO     FLOW TO   FLOW OUT OF   OVRLND.     DIRECT     STREAM       STREAM     STREAM     STREAM   STREAMBED  STREAMBED
                SEG.NO.  NO.  STRM. RCH.    AQUIFER    STRM. RCH.    RUNOFF     PRECIP       ET          HEAD       DEPTH      WIDTH   CONDCTNC.   GRADIENT

   1   13    1     1     1    1.0000E+05 -5.7308E+03   1.0573E+05  0.000E+00  0.000E+00  0.000E+00  4.84085E+01  1.471E-01  2.000E+01  2.000E+04 -2.865E-01
   1   13    2     1     2    1.0573E+05 -8.5837E+03   1.1431E+05  0.000E+00  0.000E+00  0.000E+00  4.79373E+01  1.532E-01  2.000E+01  2.000E+04 -4.292E-01
   1   14    3     1     3    1.1431E+05 -7.8257E+03   1.2214E+05  0.000E+00  0.000E+00  0.000E+00  4.74668E+01  1.599E-01  2.000E+01  2.000E+04 -3.913E-01
   1   15    4     1     4    1.2214E+05 -7.6034E+03   1.2974E+05  0.000E+00  0.000E+00  0.000E+00  4.69957E+01  1.661E-01  2.000E+01  2.000E+04 -3.802E-01
   1   16    5     1     5    1.2974E+05 -7.2195E+03   1.3696E+05  0.000E+00  0.000E+00  0.000E+00  4.65242E+01  1.719E-01  2.000E+01  2.000E+04 -3.610E-01
   1   16    6     1     6    1.3696E+05 -5.7212E+03   1.4268E+05  0.000E+00  0.000E+00  0.000E+00  4.60519E+01  1.769E-01  2.000E+01  2.000E+04 -2.861E-01
   1   16    7     1     7    1.4268E+05 -5.7645E+03   1.4845E+05  0.000E+00  0.000E+00  0.000E+00  4.55789E+01  1.812E-01  2.000E+01  2.000E+04 -2.882E-01
   1   16    8     1     8    1.4845E+05 -5.7242E+03   1.5417E+05  0.000E+00  0.000E+00  0.000E+00  4.51059E+01  1.855E-01  2.000E+01  2.000E+04 -2.862E-01
   1   16    9     1     9    1.5417E+05 -5.5864E+03   1.5976E+05  0.000E+00  0.000E+00  0.000E+00  4.46328E+01  1.896E-01  2.000E+01  2.000E+04 -2.793E-01
   1   16   10     1    10    1.5976E+05 -5.3572E+03   1.6512E+05  0.000E+00  0.000E+00  0.000E+00  4.41594E+01  1.935E-01  2.000E+01  2.000E+04 -2.679E-01
   1   16   11     1    11    1.6512E+05 -5.0476E+03   1.7016E+05  0.000E+00  0.000E+00  0.000E+00  4.36859E+01  1.972E-01  2.000E+01  2.000E+04 -2.524E-01
   1   16   12     1    12    1.7016E+05 -5.8734E+03   1.7604E+05  0.000E+00  0.000E+00  0.000E+00  4.32124E+01  2.011E-01  2.000E+01  2.000E+04 -2.937E-01
   1   15   13     1    13    1.7604E+05 -6.9073E+03   1.8295E+05  0.000E+00  0.000E+00  0.000E+00  4.27396E+01  2.055E-01  2.000E+01  2.000E+04 -3.454E-01
   1   14   14     1    14    1.8295E+05 -7.5541E+03   1.9050E+05  0.000E+00  0.000E+00  0.000E+00  4.22672E+01  2.104E-01  2.000E+01  2.000E+04 -3.777E-01
   1   13   15     1    15    1.9050E+05 -8.1140E+03   1.9861E+05  0.000E+00  0.000E+00  0.000E+00  4.17952E+01  2.157E-01  2.000E+01  2.000E+04 -4.057E-01
   1   12   16     1    16    1.9861E+05 -9.2432E+03   2.0786E+05  0.000E+00  0.000E+00  0.000E+00  4.13236E+01  2.214E-01  2.000E+01  2.000E+04 -4.622E-01
   1   12   17     1    17    2.0786E+05 -6.3995E+03   2.1426E+05  0.000E+00  0.000E+00  0.000E+00  4.08514E+01  2.264E-01  2.000E+01  2.000E+04 -3.200E-01
   1   12   18     1    18    2.1426E+05 -6.2369E+03   2.2049E+05  0.000E+00  0.000E+00  0.000E+00  4.03782E+01  2.305E-01  2.000E+01  2.000E+04 -3.118E-01
   1   12   19     1    19    2.2049E+05 -7.9869E+03   2.2848E+05  0.000E+00  0.000E+00  0.000E+00  3.99054E+01  2.350E-01  2.000E+01  2.000E+04 -3.993E-01
   1   13   20     1    20    2.2848E+05 -6.2993E+03   2.3478E+05  0.000E+00  0.000E+00  0.000E+00  3.94326E+01  2.394E-01  2.000E+01  2.000E+04 -3.150E-01
   1   14   21     1    21    2.3478E+05 -4.9786E+03   2.3976E+05  0.000E+00  0.000E+00  0.000E+00  3.89588E+01  2.429E-01  2.000E+01  2.000E+04 -2.489E-01
   1   14   22     1    22    2.3976E+05  4.3841E+03   2.3537E+05  0.000E+00  0.000E+00  0.000E+00  3.84817E+01  2.431E-01  2.000E+01  2.000E+04  2.192E-01
   1    9   30     2     1    5.0000E+04 -5.5713E+03   5.5571E+04  0.000E+00  0.000E+00  0.000E+00  4.02447E+01  1.197E-01  2.000E+01  2.000E+04 -2.786E-01
   1    9   29     2     2    5.5571E+04 -5.8704E+03   6.1442E+04  0.000E+00  0.000E+00  0.000E+00  4.00023E+01  1.273E-01  2.000E+01  2.000E+04 -2.935E-01
   1    9   28     2     3    6.1442E+04 -6.1945E+03   6.7636E+04  0.000E+00  0.000E+00  0.000E+00  3.97600E+01  1.350E-01  2.000E+01  2.000E+04 -3.097E-01
   1    9   27     2     4    6.7636E+04 -9.5876E+03   7.7224E+04  0.000E+00  0.000E+00  0.000E+00  3.95197E+01  1.447E-01  2.000E+01  2.000E+04 -4.794E-01
   1   10   26     2     5    7.7224E+04 -7.7182E+03   8.4942E+04  0.000E+00  0.000E+00  0.000E+00  3.92799E+01  1.549E-01  2.000E+01  2.000E+04 -3.859E-01
   1   11   25     2     6    8.4942E+04 -6.5924E+03   9.1534E+04  0.000E+00  0.000E+00  0.000E+00  3.90379E+01  1.629E-01  2.000E+01  2.000E+04 -3.296E-01
   1   12   24     2     7    9.1534E+04 -5.3327E+03   9.6867E+04  0.000E+00  0.000E+00  0.000E+00  3.87944E+01  1.694E-01  2.000E+01  2.000E+04 -2.666E-01
   1   13   23     2     8    9.6867E+04 -3.7844E+03   1.0065E+05  0.000E+00  0.000E+00  0.000E+00  3.85493E+01  1.743E-01  2.000E+01  2.000E+04 -1.892E-01
   1   14   22     2     9    1.0065E+05  7.6734E+02   9.9884E+04  0.000E+00  0.000E+00  0.000E+00  3.83009E+01  1.759E-01  2.000E+01  2.000E+04  3.837E-02
   1   14   22     3     1    3.3526E+05 -9.1383E+03   3.4440E+05  0.000E+00  0.000E+00  0.000E+00  3.78056E+01  2.501E-01  2.000E+01  2.000E+04 -4.569E-01
   1   15   23     3     2    3.4440E+05 -5.4776E+03   3.4987E+05  0.000E+00  0.000E+00  0.000E+00  3.69199E+01  2.533E-01  2.000E+01  2.000E+04 -2.739E-01
   1   15   24     3     3    3.4987E+05 -4.1475E+03   3.5402E+05  0.000E+00  0.000E+00  0.000E+00  3.60332E+01  2.554E-01  2.000E+01  2.000E+04 -2.074E-01
   1   15   25     3     4    3.5402E+05 -4.2225E+03   3.5824E+05  0.000E+00  0.000E+00  0.000E+00  3.51461E+01  2.572E-01  2.000E+01  2.000E+04 -2.111E-01
   1   15   26     3     5    3.5824E+05 -5.6000E+03   3.6384E+05  0.000E+00  0.000E+00  0.000E+00  3.42593E+01  2.593E-01  2.000E+01  2.000E+04 -2.800E-01
   1   16   27     3     6    3.6384E+05 -7.1479E+03   3.7099E+05  0.000E+00  0.000E+00  0.000E+00  3.33732E+01  2.621E-01  2.000E+01  2.000E+04 -3.574E-01
   1   17   28     3     7    3.7099E+05 -7.9410E+03   3.7893E+05  0.000E+00  0.000E+00  0.000E+00  3.24875E+01  2.653E-01  2.000E+01  2.000E+04 -3.970E-01
   1   18   29     3     8    3.7893E+05 -9.0052E+03   3.8794E+05  0.000E+00  0.000E+00  0.000E+00  3.16022E+01  2.689E-01  2.000E+01  2.000E+04 -4.503E-01
   1   18   30     3     9    3.8794E+05 -7.4946E+03   3.9543E+05  0.000E+00  0.000E+00  0.000E+00  3.07168E+01  2.723E-01  2.000E+01  2.000E+04 -3.747E-01



1
              HEAD IN LAYER   1 AT END OF TIME STEP   1 IN STRESS PERIOD    1
  ---------------------------------------------------------------------------

          1      2      3      4      5      6      7      8      9     10
         11     12     13     14     15     16     17     18     19     20
         21     22     23     24     25     26     27     28     29     30
 .........................................................................
   1  ****** ****** ****** ****** ****** ****** ****** ****** ****** ******
      ****** ****** ****** ****** ****** ****** ****** ****** ****** ******
      ****** ****** ****** ****** ****** ****** ****** ****** ****** ******
   2  ****** ****** ****** ****** ****** ****** ****** ****** ****** ******
      ****** ****** ****** ****** ****** ****** ****** ****** ****** ******
      ****** ****** ****** ****** ****** ****** ****** ****** ****** ******
   3  ****** ****** ****** ****** ****** ****** ****** ****** ****** ******
      ****** ****** ****** ****** ****** ****** ****** ****** ****** ******
      ****** ****** ****** ****** ****** ****** ****** ****** ****** ******
   4  ****** ****** ****** ****** ****** ****** ****** ****** ****** ******
      ****** ****** ****** ****** ****** ****** ****** ****** ****** ******
      ****** ****** ****** ****** ****** ****** ****** ****** ****** ******
   5  ****** ****** ****** ****** ****** ****** ****** ****** ****** ******
      ****** ****** ****** ****** ****** ****** ****** ****** ****** ******
      ****** ****** ****** ****** ****** ****** ****** ****** ****** ******
   6  ****** ****** ****** ****** ****** ****** ****** ****** ****** ******
      ****** ****** ****** ****** ****** ****** ****** ****** ****** ******
      ****** ****** ****** ****** ****** ****** ****** ****** ****** ******
   7  ****** ****** ****** ****** ****** ****** ****** ****** ****** ******
      ****** ****** ****** ****** ****** ****** ****** ****** ****** ******
      ****** ****** ****** ****** ****** ****** ****** ****** ****** ******
   8  ****** ****** ****** ****** ****** ****** ****** ****** ****** ******
      ****** ****** ****** ****** ****** ****** ****** ****** ****** ******
      ****** ****** ****** ****** ****** ****** ****** ****** ****** ******
   9  ****** ****** ****** ****** ****** ****** ****** ****** ****** ******
      ****** ****** ****** ****** ****** ****** ****** ****** ****** ******
      ****** ****** ****** ****** ****** ****** ****** ****** ****** ******
  10  ****** ****** ****** ****** ****** ****** ****** ****** ****** ******
      ****** ****** ****** ****** ****** ****** ****** ****** ****** ******
      ****** ****** ****** ****** ****** ****** ****** ****** ****** ******
  11  ****** ****** ****** ****** ****** ****** ****** ****** ****** ******
      ****** ****** ****** ****** ****** ****** ****** ****** ****** ******
      ****** ****** ****** ****** ****** ****** ****** ****** ****** ******
  12  ****** ****** ****** ****** ****** ****** ****** ****** ****** ******
      ****** ****** ****** ****** ****** ****** ****** ****** ****** ******
      ****** ****** ****** ****** ****** ****** ****** ****** ****** ******
  13  ****** ****** ****** ****** ****** ****** ****** ****** ****** ******
      ****** ****** ****** ****** ****** ****** ****** ****** ****** ******
      ****** ****** ****** ****** ****** ****** ****** ****** ****** ******
  14  ****** ****** ****** ****** ****** ****** ****** ****** ****** ******
      ****** ****** ****** ****** ****** ****** ****** ****** ****** ******
      ****** ****** ****** ****** ****** ****** ****** ****** ****** ******
  15  ****** ****** ****** ****** ****** ****** ****** ****** ****** ******
      ****** ****** ****** ****** ****** ****** ****** ****** ****** ******
      ****** ****** ****** ****** ****** ****** ****** ****** ****** ******
  16  ****** ****** ****** ****** ****** ****** ****** ****** ****** ******
      ****** ****** ****** ****** ****** ****** ****** ****** ****** ******
      ****** ****** ****** ****** ****** ****** ****** ****** ****** ******
  17  ****** ****** ****** ****** ****** ****** ****** ****** ****** ******
      ****** ****** ****** ****** ****** ****** ****** ****** ****** ******
      ****** ****** ****** ****** ****** ****** ****** ****** ****** ******
  18  ****** ****** ****** ****** ****** ****** ****** ****** ****** ******
      ****** ****** ****** ****** ****** ****** ****** ****** ****** ******
      ****** ****** ****** ****** ****** ****** ****** ****** ****** ******
  19  ****** ****** ****** ****** ****** ****** ****** ****** ****** ******
      ****** ****** ****** ****** ****** ****** ****** ****** ****** ******
      ****** ****** ****** ****** ****** ****** ****** ****** ****** ******
  20  ****** ****** ****** ****** ****** ****** ****** ****** ****** ******
      ****** ****** ****** ****** ****** ****** ****** ****** ****** ******
      ****** ****** ****** ****** ****** ****** ****** ****** ****** ******
  21  ****** ****** ****** ****** ****** ****** ****** ****** ****** ******
      ****** ****** ****** ****** ****** ****** ****** ****** ****** ******
      ****** ****** ****** ****** ****** ****** ****** ****** ****** ******
  22  ****** ****** ****** ****** ****** ****** ****** ****** ****** ******
      ****** ****** ****** ****** ****** ****** ****** ****** ****** ******
      ****** ****** ****** ****** ****** ****** ****** ****** ****** ******
  23  ****** ****** ****** ****** ****** ****** ****** ****** ****** ******
      ****** ****** ****** ****** ****** ****** ****** ****** ****** ******
      ****** ****** ****** ****** ****** ****** ****** ****** ****** ******
  24  ****** ****** ****** ****** ****** ****** ****** ****** ****** ******
      ****** ****** ****** ****** ****** ****** ****** ****** ****** ******
      ****** ****** ****** ****** ****** ****** ****** ****** ****** ******
  25  ****** ****** ****** ****** ****** ****** ****** ****** ****** ******
      ****** ****** ****** ****** ****** ****** ****** ****** ****** ******
      ****** ****** ****** ****** ****** ****** ****** ****** ****** ******

 HEAD WILL BE SAVED ON UNIT   51 AT END OF TIME STEP    1, STRESS PERIOD    1
1
  VOLUMETRIC BUDGET FOR ENTIRE MODEL AT END OF TIME STEP    1, STRESS PERIOD   1
  ------------------------------------------------------------------------------

     CUMULATIVE VOLUMES      L**3       RATES FOR THIS TIME STEP      L**3/T
     ------------------                 ------------------------

           IN:                                      IN:
           ---                                      ---
             STORAGE =    17709892.6680               STORAGE =      192498.8333
       CONSTANT HEAD =    11953451.8366         CONSTANT HEAD =      129928.8243
               WELLS =           0.0000                 WELLS =           0.0000
            RECHARGE =     1269600.0000              RECHARGE =       13800.0000
      STREAM LEAKAGE =      473936.9840        STREAM LEAKAGE =        5151.4890

            TOTAL IN =    31406881.4886              TOTAL IN =      341379.1466

          OUT:                                     OUT:
          ----                                     ----
             STORAGE =           0.0000               STORAGE =           0.0000
       CONSTANT HEAD =           0.0000         CONSTANT HEAD =           0.0000
               WELLS =     8353185.1161                 WELLS =       90795.4904
            RECHARGE =           0.0000              RECHARGE =           0.0000
      STREAM LEAKAGE =    23053696.5126        STREAM LEAKAGE =      250583.6577

           TOTAL OUT =    31406881.6287             TOTAL OUT =      341379.1481

            IN - OUT =          -0.1401              IN - OUT =      -1.5227E-03

 PERCENT DISCREPANCY =          -0.00     PERCENT DISCREPANCY =          -0.00






         TIME SUMMARY AT END OF TIME STEP    1 IN STRESS PERIOD    1
                    SECONDS     MINUTES      HOURS       DAYS        YEARS
                    -----------------------------------------------------------
   TIME STEP LENGTH 7.94880E+06 1.32480E+05  2208.0      92.000     0.25188    
 STRESS PERIOD TIME 7.94880E+06 1.32480E+05  2208.0      92.000     0.25188    
         TOTAL TIME 7.94880E+06 1.32480E+05  2208.0      92.000     0.25188    
1
1
                            STRESS PERIOD NO.    2, LENGTH =   91.00000    
                            -----------------------------------------------

                              NUMBER OF TIME STEPS =     1

                               MULTIPLIER FOR DELT =     1.500

                            INITIAL TIME STEP SIZE =   91.00000    

 WELL NO.  LAYER   ROW   COL   STRESS RATE         
 --------------------------------------------------
      1      1     21     15      -9504.    
      2      1     23     15     -0.2528E+05
      3      1     23     11     -0.3338E+05
      4      1     21     17     -0.2263E+05

      4 WELLS

                 RECHARGE =  2.000000E-03

 REUSING STREAM SEGMENT DATA FROM LAST STRESS PERIOD
 
 SOLVING FOR HEAD 


     7 CALLS TO PCG ROUTINE FOR TIME STEP   1 IN STRESS PERIOD    2
    27 TOTAL ITERATIONS

 OUTPUT CONTROL FOR STRESS PERIOD    2   TIME STEP    1
    SAVE BUDGET
    SAVE HEAD FOR ALL LAYERS
    PRINT HEAD FOR ALL LAYERS
 UBDSV2 SAVING "STREAMFLOW OUT  " ON UNIT  50 AT TIME STEP  1, STRESS PERIOD   2



 STREAM LISTING     PERIOD      2   STEP        1

 LAYER ROW COL. STREAM  RCH.  FLOW INTO     FLOW TO   FLOW OUT OF   OVRLND.     DIRECT     STREAM       STREAM     STREAM     STREAM   STREAMBED  STREAMBED
                SEG.NO.  NO.  STRM. RCH.    AQUIFER    STRM. RCH.    RUNOFF     PRECIP       ET          HEAD       DEPTH      WIDTH   CONDCTNC.   GRADIENT

   1   13    1     1     1    1.0000E+05 -3.7997E+03   1.0380E+05  0.000E+00  0.000E+00  0.000E+00  4.84077E+01  1.463E-01  2.000E+01  2.000E+04 -1.900E-01
   1   13    2     1     2    1.0380E+05 -6.1603E+03   1.0996E+05  0.000E+00  0.000E+00  0.000E+00  4.79346E+01  1.505E-01  2.000E+01  2.000E+04 -3.080E-01
   1   14    3     1     3    1.0996E+05 -5.0616E+03   1.1502E+05  0.000E+00  0.000E+00  0.000E+00  4.74621E+01  1.552E-01  2.000E+01  2.000E+04 -2.531E-01
   1   15    4     1     4    1.1502E+05 -4.8219E+03   1.1984E+05  0.000E+00  0.000E+00  0.000E+00  4.69888E+01  1.593E-01  2.000E+01  2.000E+04 -2.411E-01
   1   16    5     1     5    1.1984E+05 -4.7261E+03   1.2457E+05  0.000E+00  0.000E+00  0.000E+00  4.65154E+01  1.631E-01  2.000E+01  2.000E+04 -2.363E-01
   1   16    6     1     6    1.2457E+05 -3.6713E+03   1.2824E+05  0.000E+00  0.000E+00  0.000E+00  4.60415E+01  1.665E-01  2.000E+01  2.000E+04 -1.836E-01
   1   16    7     1     7    1.2824E+05 -3.6385E+03   1.3188E+05  0.000E+00  0.000E+00  0.000E+00  4.55671E+01  1.694E-01  2.000E+01  2.000E+04 -1.819E-01
   1   16    8     1     8    1.3188E+05 -3.5233E+03   1.3540E+05  0.000E+00  0.000E+00  0.000E+00  4.50926E+01  1.721E-01  2.000E+01  2.000E+04 -1.762E-01
   1   16    9     1     9    1.3540E+05 -3.3159E+03   1.3872E+05  0.000E+00  0.000E+00  0.000E+00  4.46180E+01  1.748E-01  2.000E+01  2.000E+04 -1.658E-01
   1   16   10     1    10    1.3872E+05 -3.0216E+03   1.4174E+05  0.000E+00  0.000E+00  0.000E+00  4.41431E+01  1.772E-01  2.000E+01  2.000E+04 -1.511E-01
   1   16   11     1    11    1.4174E+05 -2.6387E+03   1.4438E+05  0.000E+00  0.000E+00  0.000E+00  4.36680E+01  1.793E-01  2.000E+01  2.000E+04 -1.319E-01
   1   16   12     1    12    1.4438E+05 -2.5577E+03   1.4694E+05  0.000E+00  0.000E+00  0.000E+00  4.31926E+01  1.813E-01  2.000E+01  2.000E+04 -1.279E-01
   1   15   13     1    13    1.4694E+05 -3.4264E+03   1.5036E+05  0.000E+00  0.000E+00  0.000E+00  4.27176E+01  1.835E-01  2.000E+01  2.000E+04 -1.713E-01
   1   14   14     1    14    1.5036E+05 -4.1161E+03   1.5448E+05  0.000E+00  0.000E+00  0.000E+00  4.22431E+01  1.863E-01  2.000E+01  2.000E+04 -2.058E-01
   1   13   15     1    15    1.5448E+05 -4.8670E+03   1.5935E+05  0.000E+00  0.000E+00  0.000E+00  4.17691E+01  1.895E-01  2.000E+01  2.000E+04 -2.434E-01
   1   12   16     1    16    1.5935E+05 -6.5358E+03   1.6588E+05  0.000E+00  0.000E+00  0.000E+00  4.12959E+01  1.937E-01  2.000E+01  2.000E+04 -3.268E-01
   1   12   17     1    17    1.6588E+05 -4.1614E+03   1.7004E+05  0.000E+00  0.000E+00  0.000E+00  4.08224E+01  1.974E-01  2.000E+01  2.000E+04 -2.081E-01
   1   12   18     1    18    1.7004E+05 -4.0091E+03   1.7405E+05  0.000E+00  0.000E+00  0.000E+00  4.03480E+01  2.003E-01  2.000E+01  2.000E+04 -2.005E-01
   1   12   19     1    19    1.7405E+05 -5.3669E+03   1.7942E+05  0.000E+00  0.000E+00  0.000E+00  3.98740E+01  2.036E-01  2.000E+01  2.000E+04 -2.683E-01
   1   13   20     1    20    1.7942E+05 -3.3686E+03   1.8279E+05  0.000E+00  0.000E+00  0.000E+00  3.93998E+01  2.066E-01  2.000E+01  2.000E+04 -1.684E-01
   1   14   21     1    21    1.8279E+05 -2.2643E+03   1.8505E+05  0.000E+00  0.000E+00  0.000E+00  3.89244E+01  2.085E-01  2.000E+01  2.000E+04 -1.132E-01
   1   14   22     1    22    1.8505E+05  4.9481E+03   1.8010E+05  0.000E+00  0.000E+00  0.000E+00  3.84462E+01  2.076E-01  2.000E+01  2.000E+04  2.474E-01
   1    9   30     2     1    5.0000E+04 -3.4579E+03   5.3458E+04  0.000E+00  0.000E+00  0.000E+00  4.02433E+01  1.183E-01  2.000E+01  2.000E+04 -1.729E-01
   1    9   29     2     2    5.3458E+04 -3.7819E+03   5.7240E+04  0.000E+00  0.000E+00  0.000E+00  3.99982E+01  1.232E-01  2.000E+01  2.000E+04 -1.891E-01
   1    9   28     2     3    5.7240E+04 -4.1577E+03   6.1398E+04  0.000E+00  0.000E+00  0.000E+00  3.97534E+01  1.284E-01  2.000E+01  2.000E+04 -2.079E-01
   1    9   27     2     4    6.1398E+04 -7.1641E+03   6.8562E+04  0.000E+00  0.000E+00  0.000E+00  3.95106E+01  1.356E-01  2.000E+01  2.000E+04 -3.582E-01
   1   10   26     2     5    6.8562E+04 -4.8341E+03   7.3396E+04  0.000E+00  0.000E+00  0.000E+00  3.92680E+01  1.430E-01  2.000E+01  2.000E+04 -2.417E-01
   1   11   25     2     6    7.3396E+04 -3.7373E+03   7.7133E+04  0.000E+00  0.000E+00  0.000E+00  3.90231E+01  1.481E-01  2.000E+01  2.000E+04 -1.869E-01
   1   12   24     2     7    7.7133E+04 -2.7444E+03   7.9877E+04  0.000E+00  0.000E+00  0.000E+00  3.87769E+01  1.519E-01  2.000E+01  2.000E+04 -1.372E-01
   1   13   23     2     8    7.9877E+04 -1.6949E+03   8.1572E+04  0.000E+00  0.000E+00  0.000E+00  3.85294E+01  1.544E-01  2.000E+01  2.000E+04 -8.475E-02
   1   14   22     2     9    8.1572E+04  1.6136E+03   7.9959E+04  0.000E+00  0.000E+00  0.000E+00  3.82795E+01  1.545E-01  2.000E+01  2.000E+04  8.068E-02
   1   14   22     3     1    2.6006E+05 -8.5635E+03   2.6863E+05  0.000E+00  0.000E+00  0.000E+00  3.77706E+01  2.151E-01  2.000E+01  2.000E+04 -4.282E-01
   1   15   23     3     2    2.6863E+05 -3.0470E+03   2.7167E+05  0.000E+00  0.000E+00  0.000E+00  3.68846E+01  2.179E-01  2.000E+01  2.000E+04 -1.524E-01
   1   15   24     3     3    2.7167E+05 -2.3061E+03   2.7398E+05  0.000E+00  0.000E+00  0.000E+00  3.59970E+01  2.192E-01  2.000E+01  2.000E+04 -1.153E-01
   1   15   25     3     4    2.7398E+05 -2.2968E+03   2.7628E+05  0.000E+00  0.000E+00  0.000E+00  3.51092E+01  2.203E-01  2.000E+01  2.000E+04 -1.148E-01
   1   15   26     3     5    2.7628E+05 -2.9404E+03   2.7922E+05  0.000E+00  0.000E+00  0.000E+00  3.42216E+01  2.216E-01  2.000E+01  2.000E+04 -1.470E-01
   1   16   27     3     6    2.7922E+05 -4.0119E+03   2.8323E+05  0.000E+00  0.000E+00  0.000E+00  3.33343E+01  2.232E-01  2.000E+01  2.000E+04 -2.006E-01
   1   17   28     3     7    2.8323E+05 -4.8625E+03   2.8809E+05  0.000E+00  0.000E+00  0.000E+00  3.24475E+01  2.253E-01  2.000E+01  2.000E+04 -2.431E-01
   1   18   29     3     8    2.8809E+05 -6.4740E+03   2.9457E+05  0.000E+00  0.000E+00  0.000E+00  3.15613E+01  2.280E-01  2.000E+01  2.000E+04 -3.237E-01
   1   18   30     3     9    2.9457E+05 -5.3872E+03   2.9995E+05  0.000E+00  0.000E+00  0.000E+00  3.06752E+01  2.308E-01  2.000E+01  2.000E+04 -2.694E-01



1
              HEAD IN LAYER   1 AT END OF TIME STEP   1 IN STRESS PERIOD    2
  ---------------------------------------------------------------------------

          1      2      3      4      5      6      7      8      9     10
         11     12     13     14     15     16     17     18     19     20
         21     22     23     24     25     26     27     28     29     30
 .........................................................................
   1  ****** ****** ****** ****** ****** ****** ****** ****** ****** ******
      ****** ****** ****** ****** ****** ****** ****** ****** ****** ******
      ****** ****** ****** ****** ****** ****** ****** ****** ****** ******
   2  ****** ****** ****** ****** ****** ****** ****** ****** ****** ******
      ****** ****** ****** ****** ****** ****** ****** ****** ****** ******
      ****** ****** ****** ****** ****** ****** ****** ****** ****** ******
   3  ****** ****** ****** ****** ****** ****** ****** ****** ****** ******
      ****** ****** ****** ****** ****** ****** ****** ****** ****** ******
      ****** ****** ****** ****** ****** ****** ****** ****** ****** ******
   4  ****** ****** ****** ****** ****** ****** ****** ****** ****** ******
      ****** ****** ****** ****** ****** ****** ****** ****** ****** ******
      ****** ****** ****** ****** ****** ****** ****** ****** ****** ******
   5  ****** ****** ****** ****** ****** ****** ****** ****** ****** ******
      ****** ****** ****** ****** ****** ****** ****** ****** ****** ******
      ****** ****** ****** ****** ****** ****** ****** ****** ****** ******
   6  ****** ****** ****** ****** ****** ****** ****** ****** ****** ******
      ****** ****** ****** ****** ****** ****** ****** ****** ****** ******
      ****** ****** ****** ****** ****** ****** ****** ****** ****** ******
   7  ****** ****** ****** ****** ****** ****** ****** ****** ****** ******
      ****** ****** ****** ****** ****** ****** ****** ****** ****** ******
      ****** ****** ****** ****** ****** ****** ****** ****** ****** ******
   8  ****** ****** ****** ****** ****** ****** ****** ****** ****** ******
      ****** ****** ****** ****** ****** ****** ****** ****** ****** ******
      ****** ****** ****** ****** ****** ****** ****** ****** ****** ******
   9  ****** ****** ****** ****** ****** ****** ****** ****** ****** ******
      ****** ****** ****** ****** ****** ****** ****** ****** ****** ******
      ****** ****** ****** ****** ****** ****** ****** ****** ****** ******
  10  ****** ****** ****** ****** ****** ****** ****** ****** ****** ******
      ****** ****** ****** ****** ****** ****** ****** ****** ****** ******
      ****** ****** ****** ****** ****** ****** ****** ****** ****** ******
  11  ****** ****** ****** ****** ****** ****** ****** ****** ****** ******
      ****** ****** ****** ****** ****** ****** ****** ****** ****** ******
      ****** ****** ****** ****** ****** ****** ****** ****** ****** ******
  12  ****** ****** ****** ****** ****** ****** ****** ****** ****** ******
      ****** ****** ****** ****** ****** ****** ****** ****** ****** ******
      ****** ****** ****** ****** ****** ****** ****** ****** ****** ******
  13  ****** ****** ****** ****** ****** ****** ****** ****** ****** ******
      ****** ****** ****** ****** ****** ****** ****** ****** ****** ******
      ****** ****** ****** ****** ****** ****** ****** ****** ****** ******
  14  ****** ****** ****** ****** ****** ****** ****** ****** ****** ******
      ****** ****** ****** ****** ****** ****** ****** ****** ****** ******
      ****** ****** ****** ****** ****** ****** ****** ****** ****** ******
  15  ****** ****** ****** ****** ****** ****** ****** ****** ****** ******
      ****** ****** ****** ****** ****** ****** ****** ****** ****** ******
      ****** ****** ****** ****** ****** ****** ****** ****** ****** ******
  16  ****** ****** ****** ****** ****** ****** ****** ****** ****** ******
      ****** ****** ****** ****** ****** ****** ****** ****** ****** ******
      ****** ****** ****** ****** ****** ****** ****** ****** ****** ******
  17  ****** ****** ****** ****** ****** ****** ****** ****** ****** ******
      ****** ****** ****** ****** ****** ****** ****** ****** ****** ******
      ****** ****** ****** ****** ****** ****** ****** ****** ****** ******
  18  ****** ****** ****** ****** ****** ****** ****** ****** ****** ******
      ****** ****** ****** ****** ****** ****** ****** ****** ****** ******
      ****** ****** ****** ****** ****** ****** ****** ****** ****** ******
  19  ****** ****** ****** ****** ****** ****** ****** ****** ****** ******
      ****** ****** ****** ****** ****** ****** ****** ****** ****** ******
      ****** ****** ****** ****** ****** ****** ****** ****** ****** ******
  20  ****** ****** ****** ****** ****** ****** ****** ****** ****** ******
      ****** ****** ****** ****** ****** ****** ****** ****** ****** ******
      ****** ****** ****** ****** ****** ****** ****** ****** ****** ******
  21  ****** ****** ****** ****** ****** ****** ****** ****** ****** ******
      ****** ****** ****** ****** ****** ****** ****** ****** ****** ******
      ****** ****** ****** ****** ****** ****** ****** ****** ****** ******
  22  ****** ****** ****** ****** ****** ****** ****** ****** ****** ******
      ****** ****** ****** ****** ****** ****** ****** ****** ****** ******
      ****** ****** ****** ****** ****** ****** ****** ****** ****** ******
  23  ****** ****** ****** ****** ****** ****** ****** ****** ****** ******
      ****** ****** ****** ****** ****** ****** ****** ****** ****** ******
      ****** ****** ****** ****** ****** ****** ****** ****** ****** ******
  24  ****** ****** ****** ****** ****** ****** ****** ****** ****** ******
      ****** ****** ****** ****** ****** ****** ****** ****** ****** ******
      ****** ****** ****** ****** ****** ****** ****** ****** ****** ******
  25  ****** ****** ****** ****** ****** ****** ****** ****** ****** ******
      ****** ****** ****** ****** ****** ****** ****** ****** ****** ******
      ****** ****** ****** ****** ****** ****** ****** ****** ****** ******

 HEAD WILL BE SAVED ON UNIT   51 AT END OF TIME STEP    1, STRESS PERIOD    2
1
  VOLUMETRIC BUDGET FOR ENTIRE MODEL AT END OF TIME STEP    1, STRESS PERIOD   2
  ------------------------------------------------------------------------------

     CUMULATIVE VOLUMES      L**3       RATES FOR THIS TIME STEP      L**3/T
     ------------------                 ------------------------

           IN:                                      IN:
           ---                                      ---
             STORAGE =    20873977.9978               STORAGE =       34770.1685
       CONSTANT HEAD =    25674217.2836         CONSTANT HEAD =      150777.6423
               WELLS =           0.0000                 WELLS =           0.0000
            RECHARGE =     6292800.0000              RECHARGE =       55200.0000
      STREAM LEAKAGE =     1071052.8599        STREAM LEAKAGE =        6561.7129

            TOTAL IN =    53912048.1413              TOTAL IN =      247309.5237

          OUT:                                     OUT:
          ----                                     ----
             STORAGE =           0.0000               STORAGE =           0.0000
       CONSTANT HEAD =           0.0000         CONSTANT HEAD =           0.0000
               WELLS =    16615574.7418                 WELLS =       90795.4904
            RECHARGE =           0.0000              RECHARGE =           0.0000
      STREAM LEAKAGE =    37296474.0123        STREAM LEAKAGE =      156514.0385

           TOTAL OUT =    53912048.7541             TOTAL OUT =      247309.5289

            IN - OUT =          -0.6128              IN - OUT =      -5.1947E-03

 PERCENT DISCREPANCY =          -0.00     PERCENT DISCREPANCY =          -0.00






         TIME SUMMARY AT END OF TIME STEP    1 IN STRESS PERIOD    2
                    SECONDS     MINUTES      HOURS       DAYS        YEARS
                    -----------------------------------------------------------
   TIME STEP LENGTH 7.86240E+06 1.31040E+05  2184.0      91.000     0.24914    
 STRESS PERIOD TIME 7.86240E+06 1.31040E+05  2184.0      91.000     0.24914    
         TOTAL TIME 1.58112E+07 2.63520E+05  4392.0      183.00     0.50103    
1
1
                            STRESS PERIOD NO.    3, LENGTH =   91.00000    
                            -----------------------------------------------

                              NUMBER OF TIME STEPS =     1

                               MULTIPLIER FOR DELT =     1.500

                            INITIAL TIME STEP SIZE =   91.00000    

 WELL NO.  LAYER   ROW   COL   STRESS RATE         
 --------------------------------------------------
      1      1     21     15      -9504.    
      2      1     23     15     -0.2528E+05
      3      1     23     11     -0.3338E+05
      4      1     21     17     -0.2263E+05

      4 WELLS

                 RECHARGE =   0.00000    

 REUSING STREAM SEGMENT DATA FROM LAST STRESS PERIOD
 
 SOLVING FOR HEAD 


     7 CALLS TO PCG ROUTINE FOR TIME STEP   1 IN STRESS PERIOD    3
    27 TOTAL ITERATIONS

 OUTPUT CONTROL FOR STRESS PERIOD    3   TIME STEP    1
    SAVE BUDGET
    SAVE HEAD FOR ALL LAYERS
    PRINT HEAD FOR ALL LAYERS
 UBDSV2 SAVING "STREAMFLOW OUT  " ON UNIT  50 AT TIME STEP  1, STRESS PERIOD   3



 STREAM LISTING     PERIOD      3   STEP        1

 LAYER ROW COL. STREAM  RCH.  FLOW INTO     FLOW TO   FLOW OUT OF   OVRLND.     DIRECT     STREAM       STREAM     STREAM     STREAM   STREAMBED  STREAMBED
                SEG.NO.  NO.  STRM. RCH.    AQUIFER    STRM. RCH.    RUNOFF     PRECIP       ET          HEAD       DEPTH      WIDTH   CONDCTNC.   GRADIENT

   1   13    1     1     1    1.0000E+05 -2.8780E+03   1.0288E+05  0.000E+00  0.000E+00  0.000E+00  4.84073E+01  1.459E-01  2.000E+01  2.000E+04 -1.439E-01
   1   13    2     1     2    1.0288E+05 -4.9054E+03   1.0778E+05  0.000E+00  0.000E+00  0.000E+00  4.79333E+01  1.492E-01  2.000E+01  2.000E+04 -2.453E-01
   1   14    3     1     3    1.0778E+05 -3.7994E+03   1.1158E+05  0.000E+00  0.000E+00  0.000E+00  4.74597E+01  1.529E-01  2.000E+01  2.000E+04 -1.900E-01
   1   15    4     1     4    1.1158E+05 -3.5672E+03   1.1515E+05  0.000E+00  0.000E+00  0.000E+00  4.69855E+01  1.560E-01  2.000E+01  2.000E+04 -1.784E-01
   1   16    5     1     5    1.1515E+05 -3.5502E+03   1.1870E+05  0.000E+00  0.000E+00  0.000E+00  4.65112E+01  1.589E-01  2.000E+01  2.000E+04 -1.775E-01
   1   16    6     1     6    1.1870E+05 -2.7423E+03   1.2144E+05  0.000E+00  0.000E+00  0.000E+00  4.60364E+01  1.614E-01  2.000E+01  2.000E+04 -1.371E-01
   1   16    7     1     7    1.2144E+05 -2.6784E+03   1.2412E+05  0.000E+00  0.000E+00  0.000E+00  4.55613E+01  1.636E-01  2.000E+01  2.000E+04 -1.339E-01
   1   16    8     1     8    1.2412E+05 -2.5365E+03   1.2666E+05  0.000E+00  0.000E+00  0.000E+00  4.50861E+01  1.657E-01  2.000E+01  2.000E+04 -1.268E-01
   1   16    9     1     9    1.2666E+05 -2.3106E+03   1.2897E+05  0.000E+00  0.000E+00  0.000E+00  4.46108E+01  1.676E-01  2.000E+01  2.000E+04 -1.155E-01
   1   16   10     1    10    1.2897E+05 -2.0050E+03   1.3097E+05  0.000E+00  0.000E+00  0.000E+00  4.41352E+01  1.693E-01  2.000E+01  2.000E+04 -1.002E-01
   1   16   11     1    11    1.3097E+05 -1.6083E+03   1.3258E+05  0.000E+00  0.000E+00  0.000E+00  4.36593E+01  1.707E-01  2.000E+01  2.000E+04 -8.042E-02
   1   16   12     1    12    1.3258E+05 -1.1155E+03   1.3370E+05  0.000E+00  0.000E+00  0.000E+00  4.31831E+01  1.718E-01  2.000E+01  2.000E+04 -5.578E-02
   1   15   13     1    13    1.3370E+05 -1.9362E+03   1.3563E+05  0.000E+00  0.000E+00  0.000E+00  4.27070E+01  1.729E-01  2.000E+01  2.000E+04 -9.681E-02
   1   14   14     1    14    1.3563E+05 -2.6339E+03   1.3827E+05  0.000E+00  0.000E+00  0.000E+00  4.22315E+01  1.747E-01  2.000E+01  2.000E+04 -1.317E-01
   1   13   15     1    15    1.3827E+05 -3.4573E+03   1.4172E+05  0.000E+00  0.000E+00  0.000E+00  4.17566E+01  1.770E-01  2.000E+01  2.000E+04 -1.729E-01
   1   12   16     1    16    1.4172E+05 -5.2434E+03   1.4697E+05  0.000E+00  0.000E+00  0.000E+00  4.12826E+01  1.803E-01  2.000E+01  2.000E+04 -2.622E-01
   1   12   17     1    17    1.4697E+05 -3.2029E+03   1.5017E+05  0.000E+00  0.000E+00  0.000E+00  4.08084E+01  1.834E-01  2.000E+01  2.000E+04 -1.601E-01
   1   12   18     1    18    1.5017E+05 -3.0725E+03   1.5324E+05  0.000E+00  0.000E+00  0.000E+00  4.03335E+01  1.857E-01  2.000E+01  2.000E+04 -1.536E-01
   1   12   19     1    19    1.5324E+05 -4.2526E+03   1.5750E+05  0.000E+00  0.000E+00  0.000E+00  3.98589E+01  1.884E-01  2.000E+01  2.000E+04 -2.126E-01
   1   13   20     1    20    1.5750E+05 -2.2403E+03   1.5974E+05  0.000E+00  0.000E+00  0.000E+00  3.93840E+01  1.908E-01  2.000E+01  2.000E+04 -1.120E-01
   1   14   21     1    21    1.5974E+05 -1.1492E+03   1.6089E+05  0.000E+00  0.000E+00  0.000E+00  3.89079E+01  1.920E-01  2.000E+01  2.000E+04 -5.746E-02
   1   14   22     1    22    1.6089E+05  5.1135E+03   1.5577E+05  0.000E+00  0.000E+00  0.000E+00  3.84292E+01  1.906E-01  2.000E+01  2.000E+04  2.557E-01
   1    9   30     2     1    5.0000E+04 -2.6909E+03   5.2691E+04  0.000E+00  0.000E+00  0.000E+00  4.02427E+01  1.177E-01  2.000E+01  2.000E+04 -1.345E-01
   1    9   29     2     2    5.2691E+04 -3.0250E+03   5.5716E+04  0.000E+00  0.000E+00  0.000E+00  3.99966E+01  1.216E-01  2.000E+01  2.000E+04 -1.513E-01
   1    9   28     2     3    5.5716E+04 -3.4119E+03   5.9128E+04  0.000E+00  0.000E+00  0.000E+00  3.97509E+01  1.259E-01  2.000E+01  2.000E+04 -1.706E-01
   1    9   27     2     4    5.9128E+04 -6.1567E+03   6.5284E+04  0.000E+00  0.000E+00  0.000E+00  3.95071E+01  1.321E-01  2.000E+01  2.000E+04 -3.078E-01
   1   10   26     2     5    6.5284E+04 -3.7683E+03   6.9053E+04  0.000E+00  0.000E+00  0.000E+00  3.92633E+01  1.383E-01  2.000E+01  2.000E+04 -1.884E-01
   1   11   25     2     6    6.9053E+04 -2.7210E+03   7.1774E+04  0.000E+00  0.000E+00  0.000E+00  3.90173E+01  1.423E-01  2.000E+01  2.000E+04 -1.360E-01
   1   12   24     2     7    7.1774E+04 -1.8718E+03   7.3646E+04  0.000E+00  0.000E+00  0.000E+00  3.87701E+01  1.451E-01  2.000E+01  2.000E+04 -9.359E-02
   1   13   23     2     8    7.3646E+04 -1.0480E+03   7.4694E+04  0.000E+00  0.000E+00  0.000E+00  3.85218E+01  1.468E-01  2.000E+01  2.000E+04 -5.240E-02
   1   14   22     2     9    7.4694E+04  1.9544E+03   7.2739E+04  0.000E+00  0.000E+00  0.000E+00  3.82713E+01  1.463E-01  2.000E+01  2.000E+04  9.772E-02
   1   14   22     3     1    2.2851E+05 -8.3747E+03   2.3689E+05  0.000E+00  0.000E+00  0.000E+00  3.77548E+01  1.992E-01  2.000E+01  2.000E+04 -4.187E-01
   1   15   23     3     2    2.3689E+05 -2.0284E+03   2.3891E+05  0.000E+00  0.000E+00  0.000E+00  3.68686E+01  2.019E-01  2.000E+01  2.000E+04 -1.014E-01
   1   15   24     3     3    2.3891E+05 -1.6452E+03   2.4056E+05  0.000E+00  0.000E+00  0.000E+00  3.59806E+01  2.028E-01  2.000E+01  2.000E+04 -8.226E-02
   1   15   25     3     4    2.4056E+05 -1.6562E+03   2.4222E+05  0.000E+00  0.000E+00  0.000E+00  3.50926E+01  2.037E-01  2.000E+01  2.000E+04 -8.281E-02
   1   15   26     3     5    2.4222E+05 -2.0975E+03   2.4431E+05  0.000E+00  0.000E+00  0.000E+00  3.42046E+01  2.046E-01  2.000E+01  2.000E+04 -1.049E-01
   1   16   27     3     6    2.4431E+05 -2.9246E+03   2.4724E+05  0.000E+00  0.000E+00  0.000E+00  3.33170E+01  2.059E-01  2.000E+01  2.000E+04 -1.462E-01
   1   17   28     3     7    2.4724E+05 -3.7675E+03   2.5100E+05  0.000E+00  0.000E+00  0.000E+00  3.24298E+01  2.076E-01  2.000E+01  2.000E+04 -1.884E-01
   1   18   29     3     8    2.5100E+05 -5.4795E+03   2.5648E+05  0.000E+00  0.000E+00  0.000E+00  3.15432E+01  2.099E-01  2.000E+01  2.000E+04 -2.740E-01
   1   18   30     3     9    2.5648E+05 -4.6581E+03   2.6114E+05  0.000E+00  0.000E+00  0.000E+00  3.06568E+01  2.124E-01  2.000E+01  2.000E+04 -2.329E-01



1
              HEAD IN LAYER   1 AT END OF TIME STEP   1 IN STRESS PERIOD    3
  ---------------------------------------------------------------------------

          1      2      3      4      5      6      7      8      9     10
         11     12     13     14     15     16     17     18     19     20
         21     22     23     24     25     26     27     28     29     30
 .........................................................................
   1  ****** ****** ****** ****** ****** ****** ****** ****** ****** ******
      ****** ****** ****** ****** ****** ****** ****** ****** ****** ******
      ****** ****** ****** ****** ****** ****** ****** ****** ****** ******
   2  ****** ****** ****** ****** ****** ****** ****** ****** ****** ******
      ****** ****** ****** ****** ****** ****** ****** ****** ****** ******
      ****** ****** ****** ****** ****** ****** ****** ****** ****** ******
   3  ****** ****** ****** ****** ****** ****** ****** ****** ****** ******
      ****** ****** ****** ****** ****** ****** ****** ****** ****** ******
      ****** ****** ****** ****** ****** ****** ****** ****** ****** ******
   4  ****** ****** ****** ****** ****** ****** ****** ****** ****** ******
      ****** ****** ****** ****** ****** ****** ****** ****** ****** ******
      ****** ****** ****** ****** ****** ****** ****** ****** ****** ******
   5  ****** ****** ****** ****** ****** ****** ****** ****** ****** ******
      ****** ****** ****** ****** ****** ****** ****** ****** ****** ******
      ****** ****** ****** ****** ****** ****** ****** ****** ****** ******
   6  ****** ****** ****** ****** ****** ****** ****** ****** ****** ******
      ****** ****** ****** ****** ****** ****** ****** ****** ****** ******
      ****** ****** ****** ****** ****** ****** ****** ****** ****** ******
   7  ****** ****** ****** ****** ****** ****** ****** ****** ****** ******
      ****** ****** ****** ****** ****** ****** ****** ****** ****** ******
      ****** ****** ****** ****** ****** ****** ****** ****** ****** ******
   8  ****** ****** ****** ****** ****** ****** ****** ****** ****** ******
      ****** ****** ****** ****** ****** ****** ****** ****** ****** ******
      ****** ****** ****** ****** ****** ****** ****** ****** ****** ******
   9  ****** ****** ****** ****** ****** ****** ****** ****** ****** ******
      ****** ****** ****** ****** ****** ****** ****** ****** ****** ******
      ****** ****** ****** ****** ****** ****** ****** ****** ****** ******
  10  ****** ****** ****** ****** ****** ****** ****** ****** ****** ******
      ****** ****** ****** ****** ****** ****** ****** ****** ****** ******
      ****** ****** ****** ****** ****** ****** ****** ****** ****** ******
  11  ****** ****** ****** ****** ****** ****** ****** ****** ****** ******
      ****** ****** ****** ****** ****** ****** ****** ****** ****** ******
      ****** ****** ****** ****** ****** ****** ****** ****** ****** ******
  12  ****** ****** ****** ****** ****** ****** ****** ****** ****** ******
      ****** ****** ****** ****** ****** ****** ****** ****** ****** ******
      ****** ****** ****** ****** ****** ****** ****** ****** ****** ******
  13  ****** ****** ****** ****** ****** ****** ****** ****** ****** ******
      ****** ****** ****** ****** ****** ****** ****** ****** ****** ******
      ****** ****** ****** ****** ****** ****** ****** ****** ****** ******
  14  ****** ****** ****** ****** ****** ****** ****** ****** ****** ******
      ****** ****** ****** ****** ****** ****** ****** ****** ****** ******
      ****** ****** ****** ****** ****** ****** ****** ****** ****** ******
  15  ****** ****** ****** ****** ****** ****** ****** ****** ****** ******
      ****** ****** ****** ****** ****** ****** ****** ****** ****** ******
      ****** ****** ****** ****** ****** ****** ****** ****** ****** ******
  16  ****** ****** ****** ****** ****** ****** ****** ****** ****** ******
      ****** ****** ****** ****** ****** ****** ****** ****** ****** ******
      ****** ****** ****** ****** ****** ****** ****** ****** ****** ******
  17  ****** ****** ****** ****** ****** ****** ****** ****** ****** ******
      ****** ****** ****** ****** ****** ****** ****** ****** ****** ******
      ****** ****** ****** ****** ****** ****** ****** ****** ****** ******
  18  ****** ****** ****** ****** ****** ****** ****** ****** ****** ******
      ****** ****** ****** ****** ****** ****** ****** ****** ****** ******
      ****** ****** ****** ****** ****** ****** ****** ****** ****** ******
  19  ****** ****** ****** ****** ****** ****** ****** ****** ****** ******
      ****** ****** ****** ****** ****** ****** ****** ****** ****** ******
      ****** ****** ****** ****** ****** ****** ****** ****** ****** ******
  20  ****** ****** ****** ****** ****** ****** ****** ****** ****** ******
      ****** ****** ****** ****** ****** ****** ****** ****** ****** ******
      ****** ****** ****** ****** ****** ****** ****** ****** ****** ******
  21  ****** ****** ****** ****** ****** ****** ****** ****** ****** ******
      ****** ****** ****** ****** ****** ****** ****** ****** ****** ******
      ****** ****** ****** ****** ****** ****** ****** ****** ****** ******
  22  ****** ****** ****** ****** ****** ****** ****** ****** ****** ******
      ****** ****** ****** ****** ****** ****** ****** ****** ****** ******
      ****** ****** ****** ****** ****** ****** ****** ****** ****** ******
  23  ****** ****** ****** ****** ****** ****** ****** ****** ****** ******
      ****** ****** ****** ****** ****** ****** ****** ****** ****** ******
      ****** ****** ****** ****** ****** ****** ****** ****** ****** ******
  24  ****** ****** ****** ****** ****** ****** ****** ****** ****** ******
      ****** ****** ****** ****** ****** ****** ****** ****** ****** ******
      ****** ****** ****** ****** ****** ****** ****** ****** ****** ******
  25  ****** ****** ****** ****** ****** ****** ****** ****** ****** ******
      ****** ****** ****** ****** ****** ****** ****** ****** ****** ******
      ****** ****** ****** ****** ****** ****** ****** ****** ****** ******

 HEAD WILL BE SAVED ON UNIT   51 AT END OF TIME STEP    1, STRESS PERIOD    3
1
  VOLUMETRIC BUDGET FOR ENTIRE MODEL AT END OF TIME STEP    1, STRESS PERIOD   3
  ------------------------------------------------------------------------------

     CUMULATIVE VOLUMES      L**3       RATES FOR THIS TIME STEP      L**3/T
     ------------------                 ------------------------

           IN:                                      IN:
           ---                                      ---
             STORAGE =    23304993.6250               STORAGE =       26714.4574
       CONSTANT HEAD =    41619535.4971         CONSTANT HEAD =      175223.2771
               WELLS =           0.0000                 WELLS =           0.0000
            RECHARGE =     6292800.0000              RECHARGE =           0.0000
      STREAM LEAKAGE =     1714237.6456        STREAM LEAKAGE =        7067.9647

            TOTAL IN =    72931566.7678              TOTAL IN =      209005.6992

          OUT:                                     OUT:
          ----                                     ----
             STORAGE =           0.0000               STORAGE =           0.0000
       CONSTANT HEAD =           0.0000         CONSTANT HEAD =           0.0000
               WELLS =    24877964.3675                 WELLS =       90795.4904
            RECHARGE =           0.0000              RECHARGE =           0.0000
      STREAM LEAKAGE =    48053603.2612        STREAM LEAKAGE =      118210.2115

           TOTAL OUT =    72931567.6287             TOTAL OUT =      209005.7019

            IN - OUT =          -0.8609              IN - OUT =      -2.7268E-03

 PERCENT DISCREPANCY =          -0.00     PERCENT DISCREPANCY =          -0.00






         TIME SUMMARY AT END OF TIME STEP    1 IN STRESS PERIOD    3
                    SECONDS     MINUTES      HOURS       DAYS        YEARS
                    -----------------------------------------------------------
   TIME STEP LENGTH 7.86240E+06 1.31040E+05  2184.0      91.000     0.24914    
 STRESS PERIOD TIME 7.86240E+06 1.31040E+05  2184.0      91.000     0.24914    
         TOTAL TIME 2.36736E+07 3.94560E+05  6576.0      274.00     0.75017    
1
1
                            STRESS PERIOD NO.    4, LENGTH =   91.00000    
                            -----------------------------------------------

                              NUMBER OF TIME STEPS =     1

                               MULTIPLIER FOR DELT =     1.500

                            INITIAL TIME STEP SIZE =   91.00000    

 WELL NO.  LAYER   ROW   COL   STRESS RATE         
 --------------------------------------------------
      1      1     21     15      -9504.    
      2      1     23     15     -0.2528E+05
      3      1     23     11     -0.3338E+05
      4      1     21     17     -0.2263E+05

      4 WELLS

                 RECHARGE =  1.000000E-03

 REUSING STREAM SEGMENT DATA FROM LAST STRESS PERIOD
 
 SOLVING FOR HEAD 


     6 CALLS TO PCG ROUTINE FOR TIME STEP   1 IN STRESS PERIOD    4
    20 TOTAL ITERATIONS

 OUTPUT CONTROL FOR STRESS PERIOD    4   TIME STEP    1
    SAVE BUDGET
    SAVE HEAD FOR ALL LAYERS
    PRINT HEAD FOR ALL LAYERS
 UBDSV2 SAVING "STREAMFLOW OUT  " ON UNIT  50 AT TIME STEP  1, STRESS PERIOD   4



 STREAM LISTING     PERIOD      4   STEP        1

 LAYER ROW COL. STREAM  RCH.  FLOW INTO     FLOW TO   FLOW OUT OF   OVRLND.     DIRECT     STREAM       STREAM     STREAM     STREAM   STREAMBED  STREAMBED
                SEG.NO.  NO.  STRM. RCH.    AQUIFER    STRM. RCH.    RUNOFF     PRECIP       ET          HEAD       DEPTH      WIDTH   CONDCTNC.   GRADIENT

   1   13    1     1     1    1.0000E+05 -2.8974E+03   1.0290E+05  0.000E+00  0.000E+00  0.000E+00  4.84073E+01  1.459E-01  2.000E+01  2.000E+04 -1.449E-01
   1   13    2     1     2    1.0290E+05 -4.8964E+03   1.0779E+05  0.000E+00  0.000E+00  0.000E+00  4.79333E+01  1.492E-01  2.000E+01  2.000E+04 -2.448E-01
   1   14    3     1     3    1.0779E+05 -3.8397E+03   1.1163E+05  0.000E+00  0.000E+00  0.000E+00  4.74597E+01  1.529E-01  2.000E+01  2.000E+04 -1.920E-01
   1   15    4     1     4    1.1163E+05 -3.6196E+03   1.1525E+05  0.000E+00  0.000E+00  0.000E+00  4.69856E+01  1.560E-01  2.000E+01  2.000E+04 -1.810E-01
   1   16    5     1     5    1.1525E+05 -3.5988E+03   1.1885E+05  0.000E+00  0.000E+00  0.000E+00  4.65113E+01  1.590E-01  2.000E+01  2.000E+04 -1.799E-01
   1   16    6     1     6    1.1885E+05 -2.7779E+03   1.2163E+05  0.000E+00  0.000E+00  0.000E+00  4.60366E+01  1.616E-01  2.000E+01  2.000E+04 -1.389E-01
   1   16    7     1     7    1.2163E+05 -2.7080E+03   1.2434E+05  0.000E+00  0.000E+00  0.000E+00  4.55615E+01  1.638E-01  2.000E+01  2.000E+04 -1.354E-01
   1   16    8     1     8    1.2434E+05 -2.5606E+03   1.2690E+05  0.000E+00  0.000E+00  0.000E+00  4.50863E+01  1.659E-01  2.000E+01  2.000E+04 -1.280E-01
   1   16    9     1     9    1.2690E+05 -2.3297E+03   1.2923E+05  0.000E+00  0.000E+00  0.000E+00  4.46110E+01  1.678E-01  2.000E+01  2.000E+04 -1.165E-01
   1   16   10     1    10    1.2923E+05 -2.0193E+03   1.3125E+05  0.000E+00  0.000E+00  0.000E+00  4.41354E+01  1.695E-01  2.000E+01  2.000E+04 -1.010E-01
   1   16   11     1    11    1.3125E+05 -1.6162E+03   1.3286E+05  0.000E+00  0.000E+00  0.000E+00  4.36596E+01  1.709E-01  2.000E+01  2.000E+04 -8.081E-02
   1   16   12     1    12    1.3286E+05 -1.0884E+03   1.3395E+05  0.000E+00  0.000E+00  0.000E+00  4.31833E+01  1.720E-01  2.000E+01  2.000E+04 -5.442E-02
   1   15   13     1    13    1.3395E+05 -1.9257E+03   1.3588E+05  0.000E+00  0.000E+00  0.000E+00  4.27072E+01  1.731E-01  2.000E+01  2.000E+04 -9.628E-02
   1   14   14     1    14    1.3588E+05 -2.6277E+03   1.3851E+05  0.000E+00  0.000E+00  0.000E+00  4.22317E+01  1.749E-01  2.000E+01  2.000E+04 -1.314E-01
   1   13   15     1    15    1.3851E+05 -3.4595E+03   1.4197E+05  0.000E+00  0.000E+00  0.000E+00  4.17567E+01  1.772E-01  2.000E+01  2.000E+04 -1.730E-01
   1   12   16     1    16    1.4197E+05 -5.2380E+03   1.4720E+05  0.000E+00  0.000E+00  0.000E+00  4.12827E+01  1.805E-01  2.000E+01  2.000E+04 -2.619E-01
   1   12   17     1    17    1.4720E+05 -3.2228E+03   1.5043E+05  0.000E+00  0.000E+00  0.000E+00  4.08086E+01  1.836E-01  2.000E+01  2.000E+04 -1.611E-01
   1   12   18     1    18    1.5043E+05 -3.1007E+03   1.5353E+05  0.000E+00  0.000E+00  0.000E+00  4.03337E+01  1.859E-01  2.000E+01  2.000E+04 -1.550E-01
   1   12   19     1    19    1.5353E+05 -4.3008E+03   1.5783E+05  0.000E+00  0.000E+00  0.000E+00  3.98591E+01  1.887E-01  2.000E+01  2.000E+04 -2.150E-01
   1   13   20     1    20    1.5783E+05 -2.2990E+03   1.6013E+05  0.000E+00  0.000E+00  0.000E+00  3.93842E+01  1.910E-01  2.000E+01  2.000E+04 -1.150E-01
   1   14   21     1    21    1.6013E+05 -1.1702E+03   1.6130E+05  0.000E+00  0.000E+00  0.000E+00  3.89082E+01  1.923E-01  2.000E+01  2.000E+04 -5.851E-02
   1   14   22     1    22    1.6130E+05  5.0838E+03   1.5621E+05  0.000E+00  0.000E+00  0.000E+00  3.84295E+01  1.909E-01  2.000E+01  2.000E+04  2.542E-01
   1    9   30     2     1    5.0000E+04 -2.8032E+03   5.2803E+04  0.000E+00  0.000E+00  0.000E+00  4.02428E+01  1.178E-01  2.000E+01  2.000E+04 -1.402E-01
   1    9   29     2     2    5.2803E+04 -3.1357E+03   5.5939E+04  0.000E+00  0.000E+00  0.000E+00  3.99968E+01  1.218E-01  2.000E+01  2.000E+04 -1.568E-01
   1    9   28     2     3    5.5939E+04 -3.5184E+03   5.9457E+04  0.000E+00  0.000E+00  0.000E+00  3.97513E+01  1.263E-01  2.000E+01  2.000E+04 -1.759E-01
   1    9   27     2     4    5.9457E+04 -6.2672E+03   6.5724E+04  0.000E+00  0.000E+00  0.000E+00  3.95076E+01  1.326E-01  2.000E+01  2.000E+04 -3.134E-01
   1   10   26     2     5    6.5724E+04 -3.8972E+03   6.9622E+04  0.000E+00  0.000E+00  0.000E+00  3.92639E+01  1.389E-01  2.000E+01  2.000E+04 -1.949E-01
   1   11   25     2     6    6.9622E+04 -2.8507E+03   7.2472E+04  0.000E+00  0.000E+00  0.000E+00  3.90181E+01  1.431E-01  2.000E+01  2.000E+04 -1.425E-01
   1   12   24     2     7    7.2472E+04 -1.9984E+03   7.4471E+04  0.000E+00  0.000E+00  0.000E+00  3.87710E+01  1.460E-01  2.000E+01  2.000E+04 -9.992E-02
   1   13   23     2     8    7.4471E+04 -1.1614E+03   7.5632E+04  0.000E+00  0.000E+00  0.000E+00  3.85228E+01  1.478E-01  2.000E+01  2.000E+04 -5.807E-02
   1   14   22     2     9    7.5632E+04  1.9411E+03   7.3691E+04  0.000E+00  0.000E+00  0.000E+00  3.82724E+01  1.474E-01  2.000E+01  2.000E+04  9.705E-02
   1   14   22     3     1    2.2990E+05 -8.3962E+03   2.3830E+05  0.000E+00  0.000E+00  0.000E+00  3.77555E+01  2.000E-01  2.000E+01  2.000E+04 -4.198E-01
   1   15   23     3     2    2.3830E+05 -2.0531E+03   2.4035E+05  0.000E+00  0.000E+00  0.000E+00  3.68693E+01  2.026E-01  2.000E+01  2.000E+04 -1.027E-01
   1   15   24     3     3    2.4035E+05 -1.7055E+03   2.4206E+05  0.000E+00  0.000E+00  0.000E+00  3.59814E+01  2.036E-01  2.000E+01  2.000E+04 -8.528E-02
   1   15   25     3     4    2.4206E+05 -1.7358E+03   2.4379E+05  0.000E+00  0.000E+00  0.000E+00  3.50933E+01  2.044E-01  2.000E+01  2.000E+04 -8.679E-02
   1   15   26     3     5    2.4379E+05 -2.2169E+03   2.4601E+05  0.000E+00  0.000E+00  0.000E+00  3.42054E+01  2.054E-01  2.000E+01  2.000E+04 -1.108E-01
   1   16   27     3     6    2.4601E+05 -3.0441E+03   2.4906E+05  0.000E+00  0.000E+00  0.000E+00  3.33179E+01  2.068E-01  2.000E+01  2.000E+04 -1.522E-01
   1   17   28     3     7    2.4906E+05 -3.8871E+03   2.5294E+05  0.000E+00  0.000E+00  0.000E+00  3.24307E+01  2.085E-01  2.000E+01  2.000E+04 -1.944E-01
   1   18   29     3     8    2.5294E+05 -5.5837E+03   2.5853E+05  0.000E+00  0.000E+00  0.000E+00  3.15442E+01  2.108E-01  2.000E+01  2.000E+04 -2.792E-01
   1   18   30     3     9    2.5853E+05 -4.7591E+03   2.6329E+05  0.000E+00  0.000E+00  0.000E+00  3.06578E+01  2.134E-01  2.000E+01  2.000E+04 -2.380E-01



1
              HEAD IN LAYER   1 AT END OF TIME STEP   1 IN STRESS PERIOD    4
  ---------------------------------------------------------------------------

          1      2      3      4      5      6      7      8      9     10
         11     12     13     14     15     16     17     18     19     20
         21     22     23     24     25     26     27     28     29     30
 .........................................................................
   1  ****** ****** ****** ****** ****** ****** ****** ****** ****** ******
      ****** ****** ****** ****** ****** ****** ****** ****** ****** ******
      ****** ****** ****** ****** ****** ****** ****** ****** ****** ******
   2  ****** ****** ****** ****** ****** ****** ****** ****** ****** ******
      ****** ****** ****** ****** ****** ****** ****** ****** ****** ******
      ****** ****** ****** ****** ****** ****** ****** ****** ****** ******
   3  ****** ****** ****** ****** ****** ****** ****** ****** ****** ******
      ****** ****** ****** ****** ****** ****** ****** ****** ****** ******
      ****** ****** ****** ****** ****** ****** ****** ****** ****** ******
   4  ****** ****** ****** ****** ****** ****** ****** ****** ****** ******
      ****** ****** ****** ****** ****** ****** ****** ****** ****** ******
      ****** ****** ****** ****** ****** ****** ****** ****** ****** ******
   5  ****** ****** ****** ****** ****** ****** ****** ****** ****** ******
      ****** ****** ****** ****** ****** ****** ****** ****** ****** ******
      ****** ****** ****** ****** ****** ****** ****** ****** ****** ******
   6  ****** ****** ****** ****** ****** ****** ****** ****** ****** ******
      ****** ****** ****** ****** ****** ****** ****** ****** ****** ******
      ****** ****** ****** ****** ****** ****** ****** ****** ****** ******
   7  ****** ****** ****** ****** ****** ****** ****** ****** ****** ******
      ****** ****** ****** ****** ****** ****** ****** ****** ****** ******
      ****** ****** ****** ****** ****** ****** ****** ****** ****** ******
   8  ****** ****** ****** ****** ****** ****** ****** ****** ****** ******
      ****** ****** ****** ****** ****** ****** ****** ****** ****** ******
      ****** ****** ****** ****** ****** ****** ****** ****** ****** ******
   9  ****** ****** ****** ****** ****** ****** ****** ****** ****** ******
      ****** ****** ****** ****** ****** ****** ****** ****** ****** ******
      ****** ****** ****** ****** ****** ****** ****** ****** ****** ******
  10  ****** ****** ****** ****** ****** ****** ****** ****** ****** ******
      ****** ****** ****** ****** ****** ****** ****** ****** ****** ******
      ****** ****** ****** ****** ****** ****** ****** ****** ****** ******
  11  ****** ****** ****** ****** ****** ****** ****** ****** ****** ******
      ****** ****** ****** ****** ****** ****** ****** ****** ****** ******
      ****** ****** ****** ****** ****** ****** ****** ****** ****** ******
  12  ****** ****** ****** ****** ****** ****** ****** ****** ****** ******
      ****** ****** ****** ****** ****** ****** ****** ****** ****** ******
      ****** ****** ****** ****** ****** ****** ****** ****** ****** ******
  13  ****** ****** ****** ****** ****** ****** ****** ****** ****** ******
      ****** ****** ****** ****** ****** ****** ****** ****** ****** ******
      ****** ****** ****** ****** ****** ****** ****** ****** ****** ******
  14  ****** ****** ****** ****** ****** ****** ****** ****** ****** ******
      ****** ****** ****** ****** ****** ****** ****** ****** ****** ******
      ****** ****** ****** ****** ****** ****** ****** ****** ****** ******
  15  ****** ****** ****** ****** ****** ****** ****** ****** ****** ******
      ****** ****** ****** ****** ****** ****** ****** ****** ****** ******
      ****** ****** ****** ****** ****** ****** ****** ****** ****** ******
  16  ****** ****** ****** ****** ****** ****** ****** ****** ****** ******
      ****** ****** ****** ****** ****** ****** ****** ****** ****** ******
      ****** ****** ****** ****** ****** ****** ****** ****** ****** ******
  17  ****** ****** ****** ****** ****** ****** ****** ****** ****** ******
      ****** ****** ****** ****** ****** ****** ****** ****** ****** ******
      ****** ****** ****** ****** ****** ****** ****** ****** ****** ******
  18  ****** ****** ****** ****** ****** ****** ****** ****** ****** ******
      ****** ****** ****** ****** ****** ****** ****** ****** ****** ******
      ****** ****** ****** ****** ****** ****** ****** ****** ****** ******
  19  ****** ****** ****** ****** ****** ****** ****** ****** ****** ******
      ****** ****** ****** ****** ****** ****** ****** ****** ****** ******
      ****** ****** ****** ****** ****** ****** ****** ****** ****** ******
  20  ****** ****** ****** ****** ****** ****** ****** ****** ****** ******
      ****** ****** ****** ****** ****** ****** ****** ****** ****** ******
      ****** ****** ****** ****** ****** ****** ****** ****** ****** ******
  21  ****** ****** ****** ****** ****** ****** ****** ****** ****** ******
      ****** ****** ****** ****** ****** ****** ****** ****** ****** ******
      ****** ****** ****** ****** ****** ****** ****** ****** ****** ******
  22  ****** ****** ****** ****** ****** ****** ****** ****** ****** ******
      ****** ****** ****** ****** ****** ****** ****** ****** ****** ******
      ****** ****** ****** ****** ****** ****** ****** ****** ****** ******
  23  ****** ****** ****** ****** ****** ****** ****** ****** ****** ******
      ****** ****** ****** ****** ****** ****** ****** ****** ****** ******
      ****** ****** ****** ****** ****** ****** ****** ****** ****** ******
  24  ****** ****** ****** ****** ****** ****** ****** ****** ****** ******
      ****** ****** ****** ****** ****** ****** ****** ****** ****** ******
      ****** ****** ****** ****** ****** ****** ****** ****** ****** ******
  25  ****** ****** ****** ****** ****** ****** ****** ****** ****** ******
      ****** ****** ****** ****** ****** ****** ****** ****** ****** ******
      ****** ****** ****** ****** ****** ****** ****** ****** ****** ******

 HEAD WILL BE SAVED ON UNIT   51 AT END OF TIME STEP    1, STRESS PERIOD    4
1
  VOLUMETRIC BUDGET FOR ENTIRE MODEL AT END OF TIME STEP    1, STRESS PERIOD   4
  ------------------------------------------------------------------------------

     CUMULATIVE VOLUMES      L**3       RATES FOR THIS TIME STEP      L**3/T
     ------------------                 ------------------------

           IN:                                      IN:
           ---                                      ---
             STORAGE =    23459739.0644               STORAGE =        1700.4993
       CONSTANT HEAD =    57546293.7757         CONSTANT HEAD =      175019.3217
               WELLS =           0.0000                 WELLS =           0.0000
            RECHARGE =     8804400.0000              RECHARGE =       27600.0000
      STREAM LEAKAGE =     2353502.6072        STREAM LEAKAGE =        7024.8897

            TOTAL IN =    92163935.4474              TOTAL IN =      211344.7108

          OUT:                                     OUT:
          ----                                     ----
             STORAGE =       21747.5024               STORAGE =         238.9835
       CONSTANT HEAD =           0.0000         CONSTANT HEAD =           0.0000
               WELLS =    33140353.9932                 WELLS =       90795.4904
            RECHARGE =           0.0000              RECHARGE =           0.0000
      STREAM LEAKAGE =    59001834.6486        STREAM LEAKAGE =      120310.2350

           TOTAL OUT =    92163936.1441             TOTAL OUT =      211344.7090

            IN - OUT =          -0.6967              IN - OUT =       1.8050E-03

 PERCENT DISCREPANCY =          -0.00     PERCENT DISCREPANCY =           0.00






         TIME SUMMARY AT END OF TIME STEP    1 IN STRESS PERIOD    4
                    SECONDS     MINUTES      HOURS       DAYS        YEARS
                    -----------------------------------------------------------
   TIME STEP LENGTH 7.86240E+06 1.31040E+05  2184.0      91.000     0.24914    
 STRESS PERIOD TIME 7.86240E+06 1.31040E+05  2184.0      91.000     0.24914    
         TOTAL TIME 3.15360E+07 5.25600E+05  8760.0      365.00     0.99932    
1
1
                            STRESS PERIOD NO.    5, LENGTH =   92.00000    
                            -----------------------------------------------

                              NUMBER OF TIME STEPS =     1

                               MULTIPLIER FOR DELT =     1.500

                            INITIAL TIME STEP SIZE =   92.00000    

 WELL NO.  LAYER   ROW   COL   STRESS RATE         
 --------------------------------------------------
      1      1     21     15      -9504.    
      2      1     23     15     -0.2528E+05
      3      1     23     11     -0.3338E+05
      4      1     21     17     -0.2263E+05

      4 WELLS

                 RECHARGE =  5.000000E-04

 REUSING STREAM SEGMENT DATA FROM LAST STRESS PERIOD
 
 SOLVING FOR HEAD 


     6 CALLS TO PCG ROUTINE FOR TIME STEP   1 IN STRESS PERIOD    5
    23 TOTAL ITERATIONS

 OUTPUT CONTROL FOR STRESS PERIOD    5   TIME STEP    1
    SAVE BUDGET
    SAVE HEAD FOR ALL LAYERS
    PRINT HEAD FOR ALL LAYERS
 UBDSV2 SAVING "STREAMFLOW OUT  " ON UNIT  50 AT TIME STEP  1, STRESS PERIOD   5



 STREAM LISTING     PERIOD      5   STEP        1

 LAYER ROW COL. STREAM  RCH.  FLOW INTO     FLOW TO   FLOW OUT OF   OVRLND.     DIRECT     STREAM       STREAM     STREAM     STREAM   STREAMBED  STREAMBED
                SEG.NO.  NO.  STRM. RCH.    AQUIFER    STRM. RCH.    RUNOFF     PRECIP       ET          HEAD       DEPTH      WIDTH   CONDCTNC.   GRADIENT

   1   13    1     1     1    1.0000E+05 -2.7224E+03   1.0272E+05  0.000E+00  0.000E+00  0.000E+00  4.84072E+01  1.458E-01  2.000E+01  2.000E+04 -1.361E-01
   1   13    2     1     2    1.0272E+05 -4.6547E+03   1.0738E+05  0.000E+00  0.000E+00  0.000E+00  4.79331E+01  1.490E-01  2.000E+01  2.000E+04 -2.327E-01
   1   14    3     1     3    1.0738E+05 -3.6125E+03   1.1099E+05  0.000E+00  0.000E+00  0.000E+00  4.74593E+01  1.525E-01  2.000E+01  2.000E+04 -1.806E-01
   1   15    4     1     4    1.1099E+05 -3.4018E+03   1.1439E+05  0.000E+00  0.000E+00  0.000E+00  4.69849E+01  1.554E-01  2.000E+01  2.000E+04 -1.701E-01
   1   16    5     1     5    1.1439E+05 -3.4046E+03   1.1780E+05  0.000E+00  0.000E+00  0.000E+00  4.65105E+01  1.582E-01  2.000E+01  2.000E+04 -1.702E-01
   1   16    6     1     6    1.1780E+05 -2.6194E+03   1.2042E+05  0.000E+00  0.000E+00  0.000E+00  4.60357E+01  1.607E-01  2.000E+01  2.000E+04 -1.310E-01
   1   16    7     1     7    1.2042E+05 -2.5445E+03   1.2296E+05  0.000E+00  0.000E+00  0.000E+00  4.55605E+01  1.627E-01  2.000E+01  2.000E+04 -1.272E-01
   1   16    8     1     8    1.2296E+05 -2.3940E+03   1.2535E+05  0.000E+00  0.000E+00  0.000E+00  4.50852E+01  1.647E-01  2.000E+01  2.000E+04 -1.197E-01
   1   16    9     1     9    1.2535E+05 -2.1620E+03   1.2752E+05  0.000E+00  0.000E+00  0.000E+00  4.46097E+01  1.665E-01  2.000E+01  2.000E+04 -1.081E-01
   1   16   10     1    10    1.2752E+05 -1.8522E+03   1.2937E+05  0.000E+00  0.000E+00  0.000E+00  4.41340E+01  1.681E-01  2.000E+01  2.000E+04 -9.261E-02
   1   16   11     1    11    1.2937E+05 -1.4503E+03   1.3082E+05  0.000E+00  0.000E+00  0.000E+00  4.36580E+01  1.694E-01  2.000E+01  2.000E+04 -7.251E-02
   1   16   12     1    12    1.3082E+05 -8.7014E+02   1.3169E+05  0.000E+00  0.000E+00  0.000E+00  4.31817E+01  1.703E-01  2.000E+01  2.000E+04 -4.351E-02
   1   15   13     1    13    1.3169E+05 -1.6875E+03   1.3338E+05  0.000E+00  0.000E+00  0.000E+00  4.27054E+01  1.713E-01  2.000E+01  2.000E+04 -8.438E-02
   1   14   14     1    14    1.3338E+05 -2.3848E+03   1.3576E+05  0.000E+00  0.000E+00  0.000E+00  4.22297E+01  1.729E-01  2.000E+01  2.000E+04 -1.192E-01
   1   13   15     1    15    1.3576E+05 -3.2213E+03   1.3898E+05  0.000E+00  0.000E+00  0.000E+00  4.17546E+01  1.750E-01  2.000E+01  2.000E+04 -1.611E-01
   1   12   16     1    16    1.3898E+05 -5.0084E+03   1.4399E+05  0.000E+00  0.000E+00  0.000E+00  4.12804E+01  1.781E-01  2.000E+01  2.000E+04 -2.504E-01
   1   12   17     1    17    1.4399E+05 -3.0593E+03   1.4705E+05  0.000E+00  0.000E+00  0.000E+00  4.08062E+01  1.812E-01  2.000E+01  2.000E+04 -1.530E-01
   1   12   18     1    18    1.4705E+05 -2.9434E+03   1.4999E+05  0.000E+00  0.000E+00  0.000E+00  4.03311E+01  1.834E-01  2.000E+01  2.000E+04 -1.472E-01
   1   12   19     1    19    1.4999E+05 -4.1149E+03   1.5411E+05  0.000E+00  0.000E+00  0.000E+00  3.98565E+01  1.860E-01  2.000E+01  2.000E+04 -2.057E-01
   1   13   20     1    20    1.5411E+05 -2.1192E+03   1.5623E+05  0.000E+00  0.000E+00  0.000E+00  3.93815E+01  1.883E-01  2.000E+01  2.000E+04 -1.060E-01
   1   14   21     1    21    1.5623E+05 -9.9792E+02   1.5723E+05  0.000E+00  0.000E+00  0.000E+00  3.89053E+01  1.894E-01  2.000E+01  2.000E+04 -4.990E-02
   1   14   22     1    22    1.5723E+05  5.1098E+03   1.5212E+05  0.000E+00  0.000E+00  0.000E+00  3.84266E+01  1.879E-01  2.000E+01  2.000E+04  2.555E-01
   1    9   30     2     1    5.0000E+04 -2.6877E+03   5.2688E+04  0.000E+00  0.000E+00  0.000E+00  4.02427E+01  1.177E-01  2.000E+01  2.000E+04 -1.344E-01
   1    9   29     2     2    5.2688E+04 -3.0206E+03   5.5708E+04  0.000E+00  0.000E+00  0.000E+00  3.99966E+01  1.216E-01  2.000E+01  2.000E+04 -1.510E-01
   1    9   28     2     3    5.5708E+04 -3.4025E+03   5.9111E+04  0.000E+00  0.000E+00  0.000E+00  3.97509E+01  1.259E-01  2.000E+01  2.000E+04 -1.701E-01
   1    9   27     2     4    5.9111E+04 -6.1061E+03   6.5217E+04  0.000E+00  0.000E+00  0.000E+00  3.95070E+01  1.320E-01  2.000E+01  2.000E+04 -3.053E-01
   1   10   26     2     5    6.5217E+04 -3.7312E+03   6.8948E+04  0.000E+00  0.000E+00  0.000E+00  3.92632E+01  1.382E-01  2.000E+01  2.000E+04 -1.866E-01
   1   11   25     2     6    6.8948E+04 -2.6910E+03   7.1639E+04  0.000E+00  0.000E+00  0.000E+00  3.90171E+01  1.421E-01  2.000E+01  2.000E+04 -1.346E-01
   1   12   24     2     7    7.1639E+04 -1.8564E+03   7.3496E+04  0.000E+00  0.000E+00  0.000E+00  3.87699E+01  1.449E-01  2.000E+01  2.000E+04 -9.282E-02
   1   13   23     2     8    7.3496E+04 -1.0500E+03   7.4546E+04  0.000E+00  0.000E+00  0.000E+00  3.85216E+01  1.466E-01  2.000E+01  2.000E+04 -5.250E-02
   1   14   22     2     9    7.4546E+04  1.9997E+03   7.2546E+04  0.000E+00  0.000E+00  0.000E+00  3.82711E+01  1.461E-01  2.000E+01  2.000E+04  9.999E-02
   1   14   22     3     1    2.2466E+05 -8.3651E+03   2.3303E+05  0.000E+00  0.000E+00  0.000E+00  3.77528E+01  1.973E-01  2.000E+01  2.000E+04 -4.183E-01
   1   15   23     3     2    2.3303E+05 -1.8937E+03   2.3492E+05  0.000E+00  0.000E+00  0.000E+00  3.68666E+01  1.999E-01  2.000E+01  2.000E+04 -9.468E-02
   1   15   24     3     3    2.3492E+05 -1.5984E+03   2.3652E+05  0.000E+00  0.000E+00  0.000E+00  3.59786E+01  2.008E-01  2.000E+01  2.000E+04 -7.992E-02
   1   15   25     3     4    2.3652E+05 -1.6334E+03   2.3815E+05  0.000E+00  0.000E+00  0.000E+00  3.50905E+01  2.016E-01  2.000E+01  2.000E+04 -8.167E-02
   1   15   26     3     5    2.3815E+05 -2.0937E+03   2.4025E+05  0.000E+00  0.000E+00  0.000E+00  3.42026E+01  2.026E-01  2.000E+01  2.000E+04 -1.047E-01
   1   16   27     3     6    2.4025E+05 -2.8841E+03   2.4313E+05  0.000E+00  0.000E+00  0.000E+00  3.33149E+01  2.038E-01  2.000E+01  2.000E+04 -1.442E-01
   1   17   28     3     7    2.4313E+05 -3.7236E+03   2.4685E+05  0.000E+00  0.000E+00  0.000E+00  3.24277E+01  2.055E-01  2.000E+01  2.000E+04 -1.862E-01
   1   18   29     3     8    2.4685E+05 -5.4291E+03   2.5228E+05  0.000E+00  0.000E+00  0.000E+00  3.15411E+01  2.078E-01  2.000E+01  2.000E+04 -2.715E-01
   1   18   30     3     9    2.5228E+05 -4.6468E+03   2.5693E+05  0.000E+00  0.000E+00  0.000E+00  3.06547E+01  2.103E-01  2.000E+01  2.000E+04 -2.323E-01



1
              HEAD IN LAYER   1 AT END OF TIME STEP   1 IN STRESS PERIOD    5
  ---------------------------------------------------------------------------

          1      2      3      4      5      6      7      8      9     10
         11     12     13     14     15     16     17     18     19     20
         21     22     23     24     25     26     27     28     29     30
 .........................................................................
   1  ****** ****** ****** ****** ****** ****** ****** ****** ****** ******
      ****** ****** ****** ****** ****** ****** ****** ****** ****** ******
      ****** ****** ****** ****** ****** ****** ****** ****** ****** ******
   2  ****** ****** ****** ****** ****** ****** ****** ****** ****** ******
      ****** ****** ****** ****** ****** ****** ****** ****** ****** ******
      ****** ****** ****** ****** ****** ****** ****** ****** ****** ******
   3  ****** ****** ****** ****** ****** ****** ****** ****** ****** ******
      ****** ****** ****** ****** ****** ****** ****** ****** ****** ******
      ****** ****** ****** ****** ****** ****** ****** ****** ****** ******
   4  ****** ****** ****** ****** ****** ****** ****** ****** ****** ******
      ****** ****** ****** ****** ****** ****** ****** ****** ****** ******
      ****** ****** ****** ****** ****** ****** ****** ****** ****** ******
   5  ****** ****** ****** ****** ****** ****** ****** ****** ****** ******
      ****** ****** ****** ****** ****** ****** ****** ****** ****** ******
      ****** ****** ****** ****** ****** ****** ****** ****** ****** ******
   6  ****** ****** ****** ****** ****** ****** ****** ****** ****** ******
      ****** ****** ****** ****** ****** ****** ****** ****** ****** ******
      ****** ****** ****** ****** ****** ****** ****** ****** ****** ******
   7  ****** ****** ****** ****** ****** ****** ****** ****** ****** ******
      ****** ****** ****** ****** ****** ****** ****** ****** ****** ******
      ****** ****** ****** ****** ****** ****** ****** ****** ****** ******
   8  ****** ****** ****** ****** ****** ****** ****** ****** ****** ******
      ****** ****** ****** ****** ****** ****** ****** ****** ****** ******
      ****** ****** ****** ****** ****** ****** ****** ****** ****** ******
   9  ****** ****** ****** ****** ****** ****** ****** ****** ****** ******
      ****** ****** ****** ****** ****** ****** ****** ****** ****** ******
      ****** ****** ****** ****** ****** ****** ****** ****** ****** ******
  10  ****** ****** ****** ****** ****** ****** ****** ****** ****** ******
      ****** ****** ****** ****** ****** ****** ****** ****** ****** ******
      ****** ****** ****** ****** ****** ****** ****** ****** ****** ******
  11  ****** ****** ****** ****** ****** ****** ****** ****** ****** ******
      ****** ****** ****** ****** ****** ****** ****** ****** ****** ******
      ****** ****** ****** ****** ****** ****** ****** ****** ****** ******
  12  ****** ****** ****** ****** ****** ****** ****** ****** ****** ******
      ****** ****** ****** ****** ****** ****** ****** ****** ****** ******
      ****** ****** ****** ****** ****** ****** ****** ****** ****** ******
  13  ****** ****** ****** ****** ****** ****** ****** ****** ****** ******
      ****** ****** ****** ****** ****** ****** ****** ****** ****** ******
      ****** ****** ****** ****** ****** ****** ****** ****** ****** ******
  14  ****** ****** ****** ****** ****** ****** ****** ****** ****** ******
      ****** ****** ****** ****** ****** ****** ****** ****** ****** ******
      ****** ****** ****** ****** ****** ****** ****** ****** ****** ******
  15  ****** ****** ****** ****** ****** ****** ****** ****** ****** ******
      ****** ****** ****** ****** ****** ****** ****** ****** ****** ******
      ****** ****** ****** ****** ****** ****** ****** ****** ****** ******
  16  ****** ****** ****** ****** ****** ****** ****** ****** ****** ******
      ****** ****** ****** ****** ****** ****** ****** ****** ****** ******
      ****** ****** ****** ****** ****** ****** ****** ****** ****** ******
  17  ****** ****** ****** ****** ****** ****** ****** ****** ****** ******
      ****** ****** ****** ****** ****** ****** ****** ****** ****** ******
      ****** ****** ****** ****** ****** ****** ****** ****** ****** ******
  18  ****** ****** ****** ****** ****** ****** ****** ****** ****** ******
      ****** ****** ****** ****** ****** ****** ****** ****** ****** ******
      ****** ****** ****** ****** ****** ****** ****** ****** ****** ******
  19  ****** ****** ****** ****** ****** ****** ****** ****** ****** ******
      ****** ****** ****** ****** ****** ****** ****** ****** ****** ******
      ****** ****** ****** ****** ****** ****** ****** ****** ****** ******
  20  ****** ****** ****** ****** ****** ****** ****** ****** ****** ******
      ****** ****** ****** ****** ****** ****** ****** ****** ****** ******
      ****** ****** ****** ****** ****** ****** ****** ****** ****** ******
  21  ****** ****** ****** ****** ****** ****** ****** ****** ****** ******
      ****** ****** ****** ****** ****** ****** ****** ****** ****** ******
      ****** ****** ****** ****** ****** ****** ****** ****** ****** ******
  22  ****** ****** ****** ****** ****** ****** ****** ****** ****** ******
      ****** ****** ****** ****** ****** ****** ****** ****** ****** ******
      ****** ****** ****** ****** ****** ****** ****** ****** ****** ******
  23  ****** ****** ****** ****** ****** ****** ****** ****** ****** ******
      ****** ****** ****** ****** ****** ****** ****** ****** ****** ******
      ****** ****** ****** ****** ****** ****** ****** ****** ****** ******
  24  ****** ****** ****** ****** ****** ****** ****** ****** ****** ******
      ****** ****** ****** ****** ****** ****** ****** ****** ****** ******
      ****** ****** ****** ****** ****** ****** ****** ****** ****** ******
  25  ****** ****** ****** ****** ****** ****** ****** ****** ****** ******
      ****** ****** ****** ****** ****** ****** ****** ****** ****** ******
      ****** ****** ****** ****** ****** ****** ****** ****** ****** ******

 HEAD WILL BE SAVED ON UNIT   51 AT END OF TIME STEP    1, STRESS PERIOD    5
1
  VOLUMETRIC BUDGET FOR ENTIRE MODEL AT END OF TIME STEP    1, STRESS PERIOD   5
  ------------------------------------------------------------------------------

     CUMULATIVE VOLUMES      L**3       RATES FOR THIS TIME STEP      L**3/T
     ------------------                 ------------------------

           IN:                                      IN:
           ---                                      ---
             STORAGE =    23875143.3115               STORAGE =        4515.2636
       CONSTANT HEAD =    74051955.9902         CONSTANT HEAD =      179409.3719
               WELLS =           0.0000                 WELLS =           0.0000
            RECHARGE =    10074000.0000              RECHARGE =       13800.0000
      STREAM LEAKAGE =     3007576.1807        STREAM LEAKAGE =        7109.4954

            TOTAL IN =   111008675.4823              TOTAL IN =      204834.1308

          OUT:                                     OUT:
          ----                                     ----
             STORAGE =       21747.5024               STORAGE =           0.0000
       CONSTANT HEAD =           0.0000         CONSTANT HEAD =           0.0000
               WELLS =    41493539.1092                 WELLS =       90795.4904
            RECHARGE =           0.0000              RECHARGE =           0.0000
      STREAM LEAKAGE =    69493389.6410        STREAM LEAKAGE =      114038.6412

           TOTAL OUT =   111008676.2526             TOTAL OUT =      204834.1316

            IN - OUT =          -0.7703              IN - OUT =      -8.0023E-04

 PERCENT DISCREPANCY =          -0.00     PERCENT DISCREPANCY =          -0.00






         TIME SUMMARY AT END OF TIME STEP    1 IN STRESS PERIOD    5
                    SECONDS     MINUTES      HOURS       DAYS        YEARS
                    -----------------------------------------------------------
   TIME STEP LENGTH 7.94880E+06 1.32480E+05  2208.0      92.000     0.25188    
 STRESS PERIOD TIME 7.94880E+06 1.32480E+05  2208.0      92.000     0.25188    
         TOTAL TIME 3.94848E+07 6.58080E+05  10968.      457.00      1.2512    
1
1
                            STRESS PERIOD NO.    6, LENGTH =   91.00000    
                            -----------------------------------------------

                              NUMBER OF TIME STEPS =     1

                               MULTIPLIER FOR DELT =     1.500

                            INITIAL TIME STEP SIZE =   91.00000    

 WELL NO.  LAYER   ROW   COL   STRESS RATE         
 --------------------------------------------------
      1      1     21     15      -9504.    
      2      1     23     15     -0.2528E+05
      3      1     23     11     -0.3338E+05
      4      1     21     17     -0.2263E+05

      4 WELLS

                 RECHARGE =  2.000000E-03

 REUSING STREAM SEGMENT DATA FROM LAST STRESS PERIOD
 
 SOLVING FOR HEAD 


     7 CALLS TO PCG ROUTINE FOR TIME STEP   1 IN STRESS PERIOD    6
    26 TOTAL ITERATIONS

 OUTPUT CONTROL FOR STRESS PERIOD    6   TIME STEP    1
    SAVE BUDGET
    SAVE HEAD FOR ALL LAYERS
    PRINT HEAD FOR ALL LAYERS
 UBDSV2 SAVING "STREAMFLOW OUT  " ON UNIT  50 AT TIME STEP  1, STRESS PERIOD   6



 STREAM LISTING     PERIOD      6   STEP        1

 LAYER ROW COL. STREAM  RCH.  FLOW INTO     FLOW TO   FLOW OUT OF   OVRLND.     DIRECT     STREAM       STREAM     STREAM     STREAM   STREAMBED  STREAMBED
                SEG.NO.  NO.  STRM. RCH.    AQUIFER    STRM. RCH.    RUNOFF     PRECIP       ET          HEAD       DEPTH      WIDTH   CONDCTNC.   GRADIENT

   1   13    1     1     1    1.0000E+05 -3.1214E+03   1.0312E+05  0.000E+00  0.000E+00  0.000E+00  4.84074E+01  1.460E-01  2.000E+01  2.000E+04 -1.561E-01
   1   13    2     1     2    1.0312E+05 -5.1799E+03   1.0830E+05  0.000E+00  0.000E+00  0.000E+00  4.79336E+01  1.496E-01  2.000E+01  2.000E+04 -2.590E-01
   1   14    3     1     3    1.0830E+05 -4.1509E+03   1.1245E+05  0.000E+00  0.000E+00  0.000E+00  4.74603E+01  1.535E-01  2.000E+01  2.000E+04 -2.075E-01
   1   15    4     1     4    1.1245E+05 -3.9370E+03   1.1639E+05  0.000E+00  0.000E+00  0.000E+00  4.69864E+01  1.568E-01  2.000E+01  2.000E+04 -1.968E-01
   1   16    5     1     5    1.1639E+05 -3.9005E+03   1.2029E+05  0.000E+00  0.000E+00  0.000E+00  4.65123E+01  1.600E-01  2.000E+01  2.000E+04 -1.950E-01
   1   16    6     1     6    1.2029E+05 -3.0095E+03   1.2330E+05  0.000E+00  0.000E+00  0.000E+00  4.60378E+01  1.628E-01  2.000E+01  2.000E+04 -1.505E-01
   1   16    7     1     7    1.2330E+05 -2.9402E+03   1.2624E+05  0.000E+00  0.000E+00  0.000E+00  4.55629E+01  1.652E-01  2.000E+01  2.000E+04 -1.470E-01
   1   16    8     1     8    1.2624E+05 -2.7928E+03   1.2903E+05  0.000E+00  0.000E+00  0.000E+00  4.50879E+01  1.675E-01  2.000E+01  2.000E+04 -1.396E-01
   1   16    9     1     9    1.2903E+05 -2.5604E+03   1.3159E+05  0.000E+00  0.000E+00  0.000E+00  4.46127E+01  1.696E-01  2.000E+01  2.000E+04 -1.280E-01
   1   16   10     1    10    1.3159E+05 -2.2468E+03   1.3384E+05  0.000E+00  0.000E+00  0.000E+00  4.41373E+01  1.714E-01  2.000E+01  2.000E+04 -1.123E-01
   1   16   11     1    11    1.3384E+05 -1.8393E+03   1.3568E+05  0.000E+00  0.000E+00  0.000E+00  4.36616E+01  1.730E-01  2.000E+01  2.000E+04 -9.196E-02
   1   16   12     1    12    1.3568E+05 -1.3693E+03   1.3705E+05  0.000E+00  0.000E+00  0.000E+00  4.31856E+01  1.742E-01  2.000E+01  2.000E+04 -6.846E-02
   1   15   13     1    13    1.3705E+05 -2.2303E+03   1.3928E+05  0.000E+00  0.000E+00  0.000E+00  4.27097E+01  1.756E-01  2.000E+01  2.000E+04 -1.115E-01
   1   14   14     1    14    1.3928E+05 -2.9377E+03   1.4222E+05  0.000E+00  0.000E+00  0.000E+00  4.22344E+01  1.776E-01  2.000E+01  2.000E+04 -1.469E-01
   1   13   15     1    15    1.4222E+05 -3.7656E+03   1.4598E+05  0.000E+00  0.000E+00  0.000E+00  4.17596E+01  1.801E-01  2.000E+01  2.000E+04 -1.883E-01
   1   12   16     1    16    1.4598E+05 -5.5294E+03   1.5151E+05  0.000E+00  0.000E+00  0.000E+00  4.12858E+01  1.836E-01  2.000E+01  2.000E+04 -2.765E-01
   1   12   17     1    17    1.5151E+05 -3.4486E+03   1.5496E+05  0.000E+00  0.000E+00  0.000E+00  4.08119E+01  1.869E-01  2.000E+01  2.000E+04 -1.724E-01
   1   12   18     1    18    1.5496E+05 -3.3267E+03   1.5829E+05  0.000E+00  0.000E+00  0.000E+00  4.03371E+01  1.893E-01  2.000E+01  2.000E+04 -1.663E-01
   1   12   19     1    19    1.5829E+05 -4.5834E+03   1.6287E+05  0.000E+00  0.000E+00  0.000E+00  3.98626E+01  1.922E-01  2.000E+01  2.000E+04 -2.292E-01
   1   13   20     1    20    1.6287E+05 -2.5756E+03   1.6545E+05  0.000E+00  0.000E+00  0.000E+00  3.93879E+01  1.948E-01  2.000E+01  2.000E+04 -1.288E-01
   1   14   21     1    21    1.6545E+05 -1.4161E+03   1.6686E+05  0.000E+00  0.000E+00  0.000E+00  3.89121E+01  1.962E-01  2.000E+01  2.000E+04 -7.081E-02
   1   14   22     1    22    1.6686E+05  5.0315E+03   1.6183E+05  0.000E+00  0.000E+00  0.000E+00  3.84335E+01  1.949E-01  2.000E+01  2.000E+04  2.516E-01
   1    9   30     2     1    5.0000E+04 -3.0448E+03   5.3045E+04  0.000E+00  0.000E+00  0.000E+00  4.02430E+01  1.180E-01  2.000E+01  2.000E+04 -1.522E-01
   1    9   29     2     2    5.3045E+04 -3.3748E+03   5.6420E+04  0.000E+00  0.000E+00  0.000E+00  3.99973E+01  1.223E-01  2.000E+01  2.000E+04 -1.687E-01
   1    9   28     2     3    5.6420E+04 -3.7546E+03   6.0174E+04  0.000E+00  0.000E+00  0.000E+00  3.97520E+01  1.270E-01  2.000E+01  2.000E+04 -1.877E-01
   1    9   27     2     4    6.0174E+04 -6.5757E+03   6.6750E+04  0.000E+00  0.000E+00  0.000E+00  3.95087E+01  1.337E-01  2.000E+01  2.000E+04 -3.288E-01
   1   10   26     2     5    6.6750E+04 -4.2172E+03   7.0967E+04  0.000E+00  0.000E+00  0.000E+00  3.92654E+01  1.404E-01  2.000E+01  2.000E+04 -2.109E-01
   1   11   25     2     6    7.0967E+04 -3.1560E+03   7.4123E+04  0.000E+00  0.000E+00  0.000E+00  3.90199E+01  1.449E-01  2.000E+01  2.000E+04 -1.578E-01
   1   12   24     2     7    7.4123E+04 -2.2675E+03   7.6390E+04  0.000E+00  0.000E+00  0.000E+00  3.87731E+01  1.481E-01  2.000E+01  2.000E+04 -1.134E-01
   1   13   23     2     8    7.6390E+04 -1.3706E+03   7.7761E+04  0.000E+00  0.000E+00  0.000E+00  3.85252E+01  1.502E-01  2.000E+01  2.000E+04 -6.853E-02
   1   14   22     2     9    7.7761E+04  1.8597E+03   7.5901E+04  0.000E+00  0.000E+00  0.000E+00  3.82749E+01  1.499E-01  2.000E+01  2.000E+04  9.299E-02
   1   14   22     3     1    2.3773E+05 -8.4487E+03   2.4618E+05  0.000E+00  0.000E+00  0.000E+00  3.77595E+01  2.040E-01  2.000E+01  2.000E+04 -4.224E-01
   1   15   23     3     2    2.4618E+05 -2.2845E+03   2.4846E+05  0.000E+00  0.000E+00  0.000E+00  3.68733E+01  2.067E-01  2.000E+01  2.000E+04 -1.142E-01
   1   15   24     3     3    2.4846E+05 -1.8827E+03   2.5035E+05  0.000E+00  0.000E+00  0.000E+00  3.59855E+01  2.077E-01  2.000E+01  2.000E+04 -9.414E-02
   1   15   25     3     4    2.5035E+05 -1.9194E+03   2.5227E+05  0.000E+00  0.000E+00  0.000E+00  3.50975E+01  2.087E-01  2.000E+01  2.000E+04 -9.597E-02
   1   15   26     3     5    2.5227E+05 -2.4636E+03   2.5473E+05  0.000E+00  0.000E+00  0.000E+00  3.42097E+01  2.097E-01  2.000E+01  2.000E+04 -1.232E-01
   1   16   27     3     6    2.5473E+05 -3.3474E+03   2.5808E+05  0.000E+00  0.000E+00  0.000E+00  3.33223E+01  2.112E-01  2.000E+01  2.000E+04 -1.674E-01
   1   17   28     3     7    2.5808E+05 -4.1965E+03   2.6227E+05  0.000E+00  0.000E+00  0.000E+00  3.24353E+01  2.130E-01  2.000E+01  2.000E+04 -2.098E-01
   1   18   29     3     8    2.6227E+05 -5.8726E+03   2.6815E+05  0.000E+00  0.000E+00  0.000E+00  3.15488E+01  2.155E-01  2.000E+01  2.000E+04 -2.936E-01
   1   18   30     3     9    2.6815E+05 -4.9821E+03   2.7313E+05  0.000E+00  0.000E+00  0.000E+00  3.06626E+01  2.181E-01  2.000E+01  2.000E+04 -2.491E-01



1
              HEAD IN LAYER   1 AT END OF TIME STEP   1 IN STRESS PERIOD    6
  ---------------------------------------------------------------------------

          1      2      3      4      5      6      7      8      9     10
         11     12     13     14     15     16     17     18     19     20
         21     22     23     24     25     26     27     28     29     30
 .........................................................................
   1  ****** ****** ****** ****** ****** ****** ****** ****** ****** ******
      ****** ****** ****** ****** ****** ****** ****** ****** ****** ******
      ****** ****** ****** ****** ****** ****** ****** ****** ****** ******
   2  ****** ****** ****** ****** ****** ****** ****** ****** ****** ******
      ****** ****** ****** ****** ****** ****** ****** ****** ****** ******
      ****** ****** ****** ****** ****** ****** ****** ****** ****** ******
   3  ****** ****** ****** ****** ****** ****** ****** ****** ****** ******
      ****** ****** ****** ****** ****** ****** ****** ****** ****** ******
      ****** ****** ****** ****** ****** ****** ****** ****** ****** ******
   4  ****** ****** ****** ****** ****** ****** ****** ****** ****** ******
      ****** ****** ****** ****** ****** ****** ****** ****** ****** ******
      ****** ****** ****** ****** ****** ****** ****** ****** ****** ******
   5  ****** ****** ****** ****** ****** ****** ****** ****** ****** ******
      ****** ****** ****** ****** ****** ****** ****** ****** ****** ******
      ****** ****** ****** ****** ****** ****** ****** ****** ****** ******
   6  ****** ****** ****** ****** ****** ****** ****** ****** ****** ******
      ****** ****** ****** ****** ****** ****** ****** ****** ****** ******
      ****** ****** ****** ****** ****** ****** ****** ****** ****** ******
   7  ****** ****** ****** ****** ****** ****** ****** ****** ****** ******
      ****** ****** ****** ****** ****** ****** ****** ****** ****** ******
      ****** ****** ****** ****** ****** ****** ****** ****** ****** ******
   8  ****** ****** ****** ****** ****** ****** ****** ****** ****** ******
      ****** ****** ****** ****** ****** ****** ****** ****** ****** ******
      ****** ****** ****** ****** ****** ****** ****** ****** ****** ******
   9  ****** ****** ****** ****** ****** ****** ****** ****** ****** ******
      ****** ****** ****** ****** ****** ****** ****** ****** ****** ******
      ****** ****** ****** ****** ****** ****** ****** ****** ****** ******
  10  ****** ****** ****** ****** ****** ****** ****** ****** ****** ******
      ****** ****** ****** ****** ****** ****** ****** ****** ****** ******
      ****** ****** ****** ****** ****** ****** ****** ****** ****** ******
  11  ****** ****** ****** ****** ****** ****** ****** ****** ****** ******
      ****** ****** ****** ****** ****** ****** ****** ****** ****** ******
      ****** ****** ****** ****** ****** ****** ****** ****** ****** ******
  12  ****** ****** ****** ****** ****** ****** ****** ****** ****** ******
      ****** ****** ****** ****** ****** ****** ****** ****** ****** ******
      ****** ****** ****** ****** ****** ****** ****** ****** ****** ******
  13  ****** ****** ****** ****** ****** ****** ****** ****** ****** ******
      ****** ****** ****** ****** ****** ****** ****** ****** ****** ******
      ****** ****** ****** ****** ****** ****** ****** ****** ****** ******
  14  ****** ****** ****** ****** ****** ****** ****** ****** ****** ******
      ****** ****** ****** ****** ****** ****** ****** ****** ****** ******
      ****** ****** ****** ****** ****** ****** ****** ****** ****** ******
  15  ****** ****** ****** ****** ****** ****** ****** ****** ****** ******
      ****** ****** ****** ****** ****** ****** ****** ****** ****** ******
      ****** ****** ****** ****** ****** ****** ****** ****** ****** ******
  16  ****** ****** ****** ****** ****** ****** ****** ****** ****** ******
      ****** ****** ****** ****** ****** ****** ****** ****** ****** ******
      ****** ****** ****** ****** ****** ****** ****** ****** ****** ******
  17  ****** ****** ****** ****** ****** ****** ****** ****** ****** ******
      ****** ****** ****** ****** ****** ****** ****** ****** ****** ******
      ****** ****** ****** ****** ****** ****** ****** ****** ****** ******
  18  ****** ****** ****** ****** ****** ****** ****** ****** ****** ******
      ****** ****** ****** ****** ****** ****** ****** ****** ****** ******
      ****** ****** ****** ****** ****** ****** ****** ****** ****** ******
  19  ****** ****** ****** ****** ****** ****** ****** ****** ****** ******
      ****** ****** ****** ****** ****** ****** ****** ****** ****** ******
      ****** ****** ****** ****** ****** ****** ****** ****** ****** ******
  20  ****** ****** ****** ****** ****** ****** ****** ****** ****** ******
      ****** ****** ****** ****** ****** ****** ****** ****** ****** ******
      ****** ****** ****** ****** ****** ****** ****** ****** ****** ******
  21  ****** ****** ****** ****** ****** ****** ****** ****** ****** ******
      ****** ****** ****** ****** ****** ****** ****** ****** ****** ******
      ****** ****** ****** ****** ****** ****** ****** ****** ****** ******
  22  ****** ****** ****** ****** ****** ****** ****** ****** ****** ******
      ****** ****** ****** ****** ****** ****** ****** ****** ****** ******
      ****** ****** ****** ****** ****** ****** ****** ****** ****** ******
  23  ****** ****** ****** ****** ****** ****** ****** ****** ****** ******
      ****** ****** ****** ****** ****** ****** ****** ****** ****** ******
      ****** ****** ****** ****** ****** ****** ****** ****** ****** ******
  24  ****** ****** ****** ****** ****** ****** ****** ****** ****** ******
      ****** ****** ****** ****** ****** ****** ****** ****** ****** ******
      ****** ****** ****** ****** ****** ****** ****** ****** ****** ******
  25  ****** ****** ****** ****** ****** ****** ****** ****** ****** ******
      ****** ****** ****** ****** ****** ****** ****** ****** ****** ******
      ****** ****** ****** ****** ****** ****** ****** ****** ****** ******

 HEAD WILL BE SAVED ON UNIT   51 AT END OF TIME STEP    1, STRESS PERIOD    6
1
  VOLUMETRIC BUDGET FOR ENTIRE MODEL AT END OF TIME STEP    1, STRESS PERIOD   6
  ------------------------------------------------------------------------------

     CUMULATIVE VOLUMES      L**3       RATES FOR THIS TIME STEP      L**3/T
     ------------------                 ------------------------

           IN:                                      IN:
           ---                                      ---
             STORAGE =    23875143.3115               STORAGE =           0.0000
       CONSTANT HEAD =    89412556.2860         CONSTANT HEAD =      168797.8054
               WELLS =           0.0000                 WELLS =           0.0000
            RECHARGE =    15097200.0000              RECHARGE =       55200.0000
      STREAM LEAKAGE =     3634674.4730        STREAM LEAKAGE =        6891.1900

            TOTAL IN =   132019574.0705              TOTAL IN =      230888.9955

          OUT:                                     OUT:
          ----                                     ----
             STORAGE =      938456.1538               STORAGE =       10073.7214
       CONSTANT HEAD =           0.0000         CONSTANT HEAD =           0.0000
               WELLS =    49755928.7349                 WELLS =       90795.4904
            RECHARGE =           0.0000              RECHARGE =           0.0000
      STREAM LEAKAGE =    81325189.7972        STREAM LEAKAGE =      130019.7819

           TOTAL OUT =   132019574.6859             TOTAL OUT =      230888.9938

            IN - OUT =          -0.6154              IN - OUT =       1.7023E-03

 PERCENT DISCREPANCY =          -0.00     PERCENT DISCREPANCY =           0.00






         TIME SUMMARY AT END OF TIME STEP    1 IN STRESS PERIOD    6
                    SECONDS     MINUTES      HOURS       DAYS        YEARS
                    -----------------------------------------------------------
   TIME STEP LENGTH 7.86240E+06 1.31040E+05  2184.0      91.000     0.24914    
 STRESS PERIOD TIME 7.86240E+06 1.31040E+05  2184.0      91.000     0.24914    
         TOTAL TIME 4.73472E+07 7.89120E+05  13152.      548.00      1.5003    
1
1
                            STRESS PERIOD NO.    7, LENGTH =   91.00000    
                            -----------------------------------------------

                              NUMBER OF TIME STEPS =     1

                               MULTIPLIER FOR DELT =     1.500

                            INITIAL TIME STEP SIZE =   91.00000    

 WELL NO.  LAYER   ROW   COL   STRESS RATE         
 --------------------------------------------------
      1      1     21     15      -9504.    
      2      1     23     15     -0.2528E+05
      3      1     23     11     -0.3338E+05
      4      1     21     17     -0.2263E+05

      4 WELLS

                 RECHARGE =   0.00000    

 REUSING STREAM SEGMENT DATA FROM LAST STRESS PERIOD
 
 SOLVING FOR HEAD 


     7 CALLS TO PCG ROUTINE FOR TIME STEP   1 IN STRESS PERIOD    7
    26 TOTAL ITERATIONS

 OUTPUT CONTROL FOR STRESS PERIOD    7   TIME STEP    1
    SAVE BUDGET
    SAVE HEAD FOR ALL LAYERS
    PRINT HEAD FOR ALL LAYERS
 UBDSV2 SAVING "STREAMFLOW OUT  " ON UNIT  50 AT TIME STEP  1, STRESS PERIOD   7



 STREAM LISTING     PERIOD      7   STEP        1

 LAYER ROW COL. STREAM  RCH.  FLOW INTO     FLOW TO   FLOW OUT OF   OVRLND.     DIRECT     STREAM       STREAM     STREAM     STREAM   STREAMBED  STREAMBED
                SEG.NO.  NO.  STRM. RCH.    AQUIFER    STRM. RCH.    RUNOFF     PRECIP       ET          HEAD       DEPTH      WIDTH   CONDCTNC.   GRADIENT

   1   13    1     1     1    1.0000E+05 -2.6272E+03   1.0263E+05  0.000E+00  0.000E+00  0.000E+00  4.84072E+01  1.458E-01  2.000E+01  2.000E+04 -1.314E-01
   1   13    2     1     2    1.0263E+05 -4.5313E+03   1.0716E+05  0.000E+00  0.000E+00  0.000E+00  4.79329E+01  1.489E-01  2.000E+01  2.000E+04 -2.266E-01
   1   14    3     1     3    1.0716E+05 -3.4846E+03   1.1064E+05  0.000E+00  0.000E+00  0.000E+00  4.74591E+01  1.522E-01  2.000E+01  2.000E+04 -1.742E-01
   1   15    4     1     4    1.1064E+05 -3.2758E+03   1.1392E+05  0.000E+00  0.000E+00  0.000E+00  4.69846E+01  1.551E-01  2.000E+01  2.000E+04 -1.638E-01
   1   16    5     1     5    1.1392E+05 -3.2920E+03   1.1721E+05  0.000E+00  0.000E+00  0.000E+00  4.65100E+01  1.578E-01  2.000E+01  2.000E+04 -1.646E-01
   1   16    6     1     6    1.1721E+05 -2.5272E+03   1.1974E+05  0.000E+00  0.000E+00  0.000E+00  4.60351E+01  1.601E-01  2.000E+01  2.000E+04 -1.264E-01
   1   16    7     1     7    1.1974E+05 -2.4504E+03   1.2219E+05  0.000E+00  0.000E+00  0.000E+00  4.55599E+01  1.621E-01  2.000E+01  2.000E+04 -1.225E-01
   1   16    8     1     8    1.2219E+05 -2.2988E+03   1.2449E+05  0.000E+00  0.000E+00  0.000E+00  4.50845E+01  1.641E-01  2.000E+01  2.000E+04 -1.149E-01
   1   16    9     1     9    1.2449E+05 -2.0664E+03   1.2655E+05  0.000E+00  0.000E+00  0.000E+00  4.46090E+01  1.658E-01  2.000E+01  2.000E+04 -1.033E-01
   1   16   10     1    10    1.2655E+05 -1.7571E+03   1.2831E+05  0.000E+00  0.000E+00  0.000E+00  4.41332E+01  1.673E-01  2.000E+01  2.000E+04 -8.785E-02
   1   16   11     1    11    1.2831E+05 -1.3561E+03   1.2967E+05  0.000E+00  0.000E+00  0.000E+00  4.36572E+01  1.685E-01  2.000E+01  2.000E+04 -6.781E-02
   1   16   12     1    12    1.2967E+05 -7.5108E+02   1.3042E+05  0.000E+00  0.000E+00  0.000E+00  4.31807E+01  1.693E-01  2.000E+01  2.000E+04 -3.755E-02
   1   15   13     1    13    1.3042E+05 -1.5561E+03   1.3197E+05  0.000E+00  0.000E+00  0.000E+00  4.27043E+01  1.702E-01  2.000E+01  2.000E+04 -7.780E-02
   1   14   14     1    14    1.3197E+05 -2.2515E+03   1.3423E+05  0.000E+00  0.000E+00  0.000E+00  4.22285E+01  1.717E-01  2.000E+01  2.000E+04 -1.126E-01
   1   13   15     1    15    1.3423E+05 -3.0912E+03   1.3732E+05  0.000E+00  0.000E+00  0.000E+00  4.17533E+01  1.738E-01  2.000E+01  2.000E+04 -1.546E-01
   1   12   16     1    16    1.3732E+05 -4.8897E+03   1.4221E+05  0.000E+00  0.000E+00  0.000E+00  4.12791E+01  1.768E-01  2.000E+01  2.000E+04 -2.445E-01
   1   12   17     1    17    1.4221E+05 -2.9680E+03   1.4517E+05  0.000E+00  0.000E+00  0.000E+00  4.08048E+01  1.798E-01  2.000E+01  2.000E+04 -1.484E-01
   1   12   18     1    18    1.4517E+05 -2.8535E+03   1.4803E+05  0.000E+00  0.000E+00  0.000E+00  4.03297E+01  1.820E-01  2.000E+01  2.000E+04 -1.427E-01
   1   12   19     1    19    1.4803E+05 -4.0073E+03   1.5204E+05  0.000E+00  0.000E+00  0.000E+00  3.98550E+01  1.845E-01  2.000E+01  2.000E+04 -2.004E-01
   1   13   20     1    20    1.5204E+05 -2.0071E+03   1.5404E+05  0.000E+00  0.000E+00  0.000E+00  3.93799E+01  1.867E-01  2.000E+01  2.000E+04 -1.004E-01
   1   14   21     1    21    1.5404E+05 -8.9550E+02   1.5494E+05  0.000E+00  0.000E+00  0.000E+00  3.89037E+01  1.878E-01  2.000E+01  2.000E+04 -4.477E-02
   1   14   22     1    22    1.5494E+05  5.1307E+03   1.4981E+05  0.000E+00  0.000E+00  0.000E+00  3.84249E+01  1.862E-01  2.000E+01  2.000E+04  2.565E-01
   1    9   30     2     1    5.0000E+04 -2.6021E+03   5.2602E+04  0.000E+00  0.000E+00  0.000E+00  4.02427E+01  1.177E-01  2.000E+01  2.000E+04 -1.301E-01
   1    9   29     2     2    5.2602E+04 -2.9357E+03   5.5538E+04  0.000E+00  0.000E+00  0.000E+00  3.99964E+01  1.214E-01  2.000E+01  2.000E+04 -1.468E-01
   1    9   28     2     3    5.5538E+04 -3.3187E+03   5.8857E+04  0.000E+00  0.000E+00  0.000E+00  3.97506E+01  1.256E-01  2.000E+01  2.000E+04 -1.659E-01
   1    9   27     2     4    5.8857E+04 -6.0006E+03   6.4857E+04  0.000E+00  0.000E+00  0.000E+00  3.95066E+01  1.316E-01  2.000E+01  2.000E+04 -3.000E-01
   1   10   26     2     5    6.4857E+04 -3.6163E+03   6.8473E+04  0.000E+00  0.000E+00  0.000E+00  3.92627E+01  1.377E-01  2.000E+01  2.000E+04 -1.808E-01
   1   11   25     2     6    6.8473E+04 -2.5785E+03   7.1052E+04  0.000E+00  0.000E+00  0.000E+00  3.90165E+01  1.415E-01  2.000E+01  2.000E+04 -1.289E-01
   1   12   24     2     7    7.1052E+04 -1.7534E+03   7.2805E+04  0.000E+00  0.000E+00  0.000E+00  3.87691E+01  1.441E-01  2.000E+01  2.000E+04 -8.767E-02
   1   13   23     2     8    7.2805E+04 -9.6560E+02   7.3771E+04  0.000E+00  0.000E+00  0.000E+00  3.85207E+01  1.457E-01  2.000E+01  2.000E+04 -4.828E-02
   1   14   22     2     9    7.3771E+04  2.0353E+03   7.1736E+04  0.000E+00  0.000E+00  0.000E+00  3.82701E+01  1.451E-01  2.000E+01  2.000E+04  1.018E-01
   1   14   22     3     1    2.2154E+05 -8.3431E+03   2.2989E+05  0.000E+00  0.000E+00  0.000E+00  3.77512E+01  1.956E-01  2.000E+01  2.000E+04 -4.172E-01
   1   15   23     3     2    2.2989E+05 -1.7980E+03   2.3168E+05  0.000E+00  0.000E+00  0.000E+00  3.68649E+01  1.983E-01  2.000E+01  2.000E+04 -8.990E-02
   1   15   24     3     3    2.3168E+05 -1.5252E+03   2.3321E+05  0.000E+00  0.000E+00  0.000E+00  3.59769E+01  1.991E-01  2.000E+01  2.000E+04 -7.626E-02
   1   15   25     3     4    2.3321E+05 -1.5588E+03   2.3477E+05  0.000E+00  0.000E+00  0.000E+00  3.50888E+01  1.999E-01  2.000E+01  2.000E+04 -7.794E-02
   1   15   26     3     5    2.3477E+05 -1.9981E+03   2.3677E+05  0.000E+00  0.000E+00  0.000E+00  3.42008E+01  2.008E-01  2.000E+01  2.000E+04 -9.990E-02
   1   16   27     3     6    2.3677E+05 -2.7687E+03   2.3953E+05  0.000E+00  0.000E+00  0.000E+00  3.33131E+01  2.020E-01  2.000E+01  2.000E+04 -1.384E-01
   1   17   28     3     7    2.3953E+05 -3.6071E+03   2.4314E+05  0.000E+00  0.000E+00  0.000E+00  3.24259E+01  2.036E-01  2.000E+01  2.000E+04 -1.804E-01
   1   18   29     3     8    2.4314E+05 -5.3227E+03   2.4846E+05  0.000E+00  0.000E+00  0.000E+00  3.15392E+01  2.059E-01  2.000E+01  2.000E+04 -2.661E-01
   1   18   30     3     9    2.4846E+05 -4.5636E+03   2.5303E+05  0.000E+00  0.000E+00  0.000E+00  3.06528E+01  2.084E-01  2.000E+01  2.000E+04 -2.282E-01



1
              HEAD IN LAYER   1 AT END OF TIME STEP   1 IN STRESS PERIOD    7
  ---------------------------------------------------------------------------

          1      2      3      4      5      6      7      8      9     10
         11     12     13     14     15     16     17     18     19     20
         21     22     23     24     25     26     27     28     29     30
 .........................................................................
   1  ****** ****** ****** ****** ****** ****** ****** ****** ****** ******
      ****** ****** ****** ****** ****** ****** ****** ****** ****** ******
      ****** ****** ****** ****** ****** ****** ****** ****** ****** ******
   2  ****** ****** ****** ****** ****** ****** ****** ****** ****** ******
      ****** ****** ****** ****** ****** ****** ****** ****** ****** ******
      ****** ****** ****** ****** ****** ****** ****** ****** ****** ******
   3  ****** ****** ****** ****** ****** ****** ****** ****** ****** ******
      ****** ****** ****** ****** ****** ****** ****** ****** ****** ******
      ****** ****** ****** ****** ****** ****** ****** ****** ****** ******
   4  ****** ****** ****** ****** ****** ****** ****** ****** ****** ******
      ****** ****** ****** ****** ****** ****** ****** ****** ****** ******
      ****** ****** ****** ****** ****** ****** ****** ****** ****** ******
   5  ****** ****** ****** ****** ****** ****** ****** ****** ****** ******
      ****** ****** ****** ****** ****** ****** ****** ****** ****** ******
      ****** ****** ****** ****** ****** ****** ****** ****** ****** ******
   6  ****** ****** ****** ****** ****** ****** ****** ****** ****** ******
      ****** ****** ****** ****** ****** ****** ****** ****** ****** ******
      ****** ****** ****** ****** ****** ****** ****** ****** ****** ******
   7  ****** ****** ****** ****** ****** ****** ****** ****** ****** ******
      ****** ****** ****** ****** ****** ****** ****** ****** ****** ******
      ****** ****** ****** ****** ****** ****** ****** ****** ****** ******
   8  ****** ****** ****** ****** ****** ****** ****** ****** ****** ******
      ****** ****** ****** ****** ****** ****** ****** ****** ****** ******
      ****** ****** ****** ****** ****** ****** ****** ****** ****** ******
   9  ****** ****** ****** ****** ****** ****** ****** ****** ****** ******
      ****** ****** ****** ****** ****** ****** ****** ****** ****** ******
      ****** ****** ****** ****** ****** ****** ****** ****** ****** ******
  10  ****** ****** ****** ****** ****** ****** ****** ****** ****** ******
      ****** ****** ****** ****** ****** ****** ****** ****** ****** ******
      ****** ****** ****** ****** ****** ****** ****** ****** ****** ******
  11  ****** ****** ****** ****** ****** ****** ****** ****** ****** ******
      ****** ****** ****** ****** ****** ****** ****** ****** ****** ******
      ****** ****** ****** ****** ****** ****** ****** ****** ****** ******
  12  ****** ****** ****** ****** ****** ****** ****** ****** ****** ******
      ****** ****** ****** ****** ****** ****** ****** ****** ****** ******
      ****** ****** ****** ****** ****** ****** ****** ****** ****** ******
  13  ****** ****** ****** ****** ****** ****** ****** ****** ****** ******
      ****** ****** ****** ****** ****** ****** ****** ****** ****** ******
      ****** ****** ****** ****** ****** ****** ****** ****** ****** ******
  14  ****** ****** ****** ****** ****** ****** ****** ****** ****** ******
      ****** ****** ****** ****** ****** ****** ****** ****** ****** ******
      ****** ****** ****** ****** ****** ****** ****** ****** ****** ******
  15  ****** ****** ****** ****** ****** ****** ****** ****** ****** ******
      ****** ****** ****** ****** ****** ****** ****** ****** ****** ******
      ****** ****** ****** ****** ****** ****** ****** ****** ****** ******
  16  ****** ****** ****** ****** ****** ****** ****** ****** ****** ******
      ****** ****** ****** ****** ****** ****** ****** ****** ****** ******
      ****** ****** ****** ****** ****** ****** ****** ****** ****** ******
  17  ****** ****** ****** ****** ****** ****** ****** ****** ****** ******
      ****** ****** ****** ****** ****** ****** ****** ****** ****** ******
      ****** ****** ****** ****** ****** ****** ****** ****** ****** ******
  18  ****** ****** ****** ****** ****** ****** ****** ****** ****** ******
      ****** ****** ****** ****** ****** ****** ****** ****** ****** ******
      ****** ****** ****** ****** ****** ****** ****** ****** ****** ******
  19  ****** ****** ****** ****** ****** ****** ****** ****** ****** ******
      ****** ****** ****** ****** ****** ****** ****** ****** ****** ******
      ****** ****** ****** ****** ****** ****** ****** ****** ****** ******
  20  ****** ****** ****** ****** ****** ****** ****** ****** ****** ******
      ****** ****** ****** ****** ****** ****** ****** ****** ****** ******
      ****** ****** ****** ****** ****** ****** ****** ****** ****** ******
  21  ****** ****** ****** ****** ****** ****** ****** ****** ****** ******
      ****** ****** ****** ****** ****** ****** ****** ****** ****** ******
      ****** ****** ****** ****** ****** ****** ****** ****** ****** ******
  22  ****** ****** ****** ****** ****** ****** ****** ****** ****** ******
      ****** ****** ****** ****** ****** ****** ****** ****** ****** ******
      ****** ****** ****** ****** ****** ****** ****** ****** ****** ******
  23  ****** ****** ****** ****** ****** ****** ****** ****** ****** ******
      ****** ****** ****** ****** ****** ****** ****** ****** ****** ******
      ****** ****** ****** ****** ****** ****** ****** ****** ****** ******
  24  ****** ****** ****** ****** ****** ****** ****** ****** ****** ******
      ****** ****** ****** ****** ****** ****** ****** ****** ****** ******
      ****** ****** ****** ****** ****** ****** ****** ****** ****** ******
  25  ****** ****** ****** ****** ****** ****** ****** ****** ****** ******
      ****** ****** ****** ****** ****** ****** ****** ****** ****** ******
      ****** ****** ****** ****** ****** ****** ****** ****** ****** ******

 HEAD WILL BE SAVED ON UNIT   51 AT END OF TIME STEP    1, STRESS PERIOD    7
1
  VOLUMETRIC BUDGET FOR ENTIRE MODEL AT END OF TIME STEP    1, STRESS PERIOD   7
  ------------------------------------------------------------------------------

     CUMULATIVE VOLUMES      L**3       RATES FOR THIS TIME STEP      L**3/T
     ------------------                 ------------------------

           IN:                                      IN:
           ---                                      ---
             STORAGE =    24977322.8793               STORAGE =       12111.8634
       CONSTANT HEAD =   105948322.9763         CONSTANT HEAD =      181711.7219
               WELLS =           0.0000                 WELLS =           0.0000
            RECHARGE =    15097200.0000              RECHARGE =           0.0000
      STREAM LEAKAGE =     4286780.2556        STREAM LEAKAGE =        7165.9976

            TOTAL IN =   150309626.1113              TOTAL IN =      200989.5829

          OUT:                                     OUT:
          ----                                     ----
             STORAGE =      938456.1538               STORAGE =           0.0000
       CONSTANT HEAD =           0.0000         CONSTANT HEAD =           0.0000
               WELLS =    58018318.3606                 WELLS =       90795.4904
            RECHARGE =           0.0000              RECHARGE =           0.0000
      STREAM LEAKAGE =    91352852.4154        STREAM LEAKAGE =      110194.0947

           TOTAL OUT =   150309626.9298             TOTAL OUT =      200989.5851

            IN - OUT =          -0.8186              IN - OUT =      -2.2326E-03

 PERCENT DISCREPANCY =          -0.00     PERCENT DISCREPANCY =          -0.00






         TIME SUMMARY AT END OF TIME STEP    1 IN STRESS PERIOD    7
                    SECONDS     MINUTES      HOURS       DAYS        YEARS
                    -----------------------------------------------------------
   TIME STEP LENGTH 7.86240E+06 1.31040E+05  2184.0      91.000     0.24914    
 STRESS PERIOD TIME 7.86240E+06 1.31040E+05  2184.0      91.000     0.24914    
         TOTAL TIME 5.52096E+07 9.20160E+05  15336.      639.00      1.7495    
1
1
                            STRESS PERIOD NO.    8, LENGTH =   91.00000    
                            -----------------------------------------------

                              NUMBER OF TIME STEPS =     1

                               MULTIPLIER FOR DELT =     1.500

                            INITIAL TIME STEP SIZE =   91.00000    

 WELL NO.  LAYER   ROW   COL   STRESS RATE         
 --------------------------------------------------
      1      1     21     15      -9504.    
      2      1     23     15     -0.2528E+05
      3      1     23     11     -0.3338E+05
      4      1     21     17     -0.2263E+05

      4 WELLS

                 RECHARGE =  1.000000E-03

 REUSING STREAM SEGMENT DATA FROM LAST STRESS PERIOD
 
 SOLVING FOR HEAD 


     6 CALLS TO PCG ROUTINE FOR TIME STEP   1 IN STRESS PERIOD    8
    23 TOTAL ITERATIONS

 OUTPUT CONTROL FOR STRESS PERIOD    8   TIME STEP    1
    SAVE BUDGET
    SAVE HEAD FOR ALL LAYERS
    PRINT HEAD FOR ALL LAYERS
 UBDSV2 SAVING "STREAMFLOW OUT  " ON UNIT  50 AT TIME STEP  1, STRESS PERIOD   8



 STREAM LISTING     PERIOD      8   STEP        1

 LAYER ROW COL. STREAM  RCH.  FLOW INTO     FLOW TO   FLOW OUT OF   OVRLND.     DIRECT     STREAM       STREAM     STREAM     STREAM   STREAMBED  STREAMBED
                SEG.NO.  NO.  STRM. RCH.    AQUIFER    STRM. RCH.    RUNOFF     PRECIP       ET          HEAD       DEPTH      WIDTH   CONDCTNC.   GRADIENT

   1   13    1     1     1    1.0000E+05 -2.7965E+03   1.0280E+05  0.000E+00  0.000E+00  0.000E+00  4.84072E+01  1.459E-01  2.000E+01  2.000E+04 -1.398E-01
   1   13    2     1     2    1.0280E+05 -4.7427E+03   1.0754E+05  0.000E+00  0.000E+00  0.000E+00  4.79332E+01  1.491E-01  2.000E+01  2.000E+04 -2.371E-01
   1   14    3     1     3    1.0754E+05 -3.7189E+03   1.1126E+05  0.000E+00  0.000E+00  0.000E+00  4.74595E+01  1.527E-01  2.000E+01  2.000E+04 -1.859E-01
   1   15    4     1     4    1.1126E+05 -3.5132E+03   1.1477E+05  0.000E+00  0.000E+00  0.000E+00  4.69852E+01  1.557E-01  2.000E+01  2.000E+04 -1.757E-01
   1   16    5     1     5    1.1477E+05 -3.5121E+03   1.1828E+05  0.000E+00  0.000E+00  0.000E+00  4.65108E+01  1.586E-01  2.000E+01  2.000E+04 -1.756E-01
   1   16    6     1     6    1.1828E+05 -2.7019E+03   1.2099E+05  0.000E+00  0.000E+00  0.000E+00  4.60361E+01  1.611E-01  2.000E+01  2.000E+04 -1.351E-01
   1   16    7     1     7    1.2099E+05 -2.6267E+03   1.2361E+05  0.000E+00  0.000E+00  0.000E+00  4.55609E+01  1.632E-01  2.000E+01  2.000E+04 -1.313E-01
   1   16    8     1     8    1.2361E+05 -2.4761E+03   1.2609E+05  0.000E+00  0.000E+00  0.000E+00  4.50857E+01  1.653E-01  2.000E+01  2.000E+04 -1.238E-01
   1   16    9     1     9    1.2609E+05 -2.2436E+03   1.2833E+05  0.000E+00  0.000E+00  0.000E+00  4.46103E+01  1.671E-01  2.000E+01  2.000E+04 -1.122E-01
   1   16   10     1    10    1.2833E+05 -1.9332E+03   1.3026E+05  0.000E+00  0.000E+00  0.000E+00  4.41347E+01  1.688E-01  2.000E+01  2.000E+04 -9.666E-02
   1   16   11     1    11    1.3026E+05 -1.5305E+03   1.3180E+05  0.000E+00  0.000E+00  0.000E+00  4.36588E+01  1.701E-01  2.000E+01  2.000E+04 -7.652E-02
   1   16   12     1    12    1.3180E+05 -9.7095E+02   1.3277E+05  0.000E+00  0.000E+00  0.000E+00  4.31825E+01  1.711E-01  2.000E+01  2.000E+04 -4.855E-02
   1   15   13     1    13    1.3277E+05 -1.7955E+03   1.3456E+05  0.000E+00  0.000E+00  0.000E+00  4.27063E+01  1.722E-01  2.000E+01  2.000E+04 -8.977E-02
   1   14   14     1    14    1.3456E+05 -2.4932E+03   1.3705E+05  0.000E+00  0.000E+00  0.000E+00  4.22306E+01  1.738E-01  2.000E+01  2.000E+04 -1.247E-01
   1   13   15     1    15    1.3705E+05 -3.3273E+03   1.4038E+05  0.000E+00  0.000E+00  0.000E+00  4.17556E+01  1.760E-01  2.000E+01  2.000E+04 -1.664E-01
   1   12   16     1    16    1.4038E+05 -5.1043E+03   1.4549E+05  0.000E+00  0.000E+00  0.000E+00  4.12815E+01  1.792E-01  2.000E+01  2.000E+04 -2.552E-01
   1   12   17     1    17    1.4549E+05 -3.1390E+03   1.4863E+05  0.000E+00  0.000E+00  0.000E+00  4.08073E+01  1.823E-01  2.000E+01  2.000E+04 -1.569E-01
   1   12   18     1    18    1.4863E+05 -3.0244E+03   1.5165E+05  0.000E+00  0.000E+00  0.000E+00  4.03323E+01  1.846E-01  2.000E+01  2.000E+04 -1.512E-01
   1   12   19     1    19    1.5165E+05 -4.2159E+03   1.5587E+05  0.000E+00  0.000E+00  0.000E+00  3.98577E+01  1.873E-01  2.000E+01  2.000E+04 -2.108E-01
   1   13   20     1    20    1.5587E+05 -2.2240E+03   1.5809E+05  0.000E+00  0.000E+00  0.000E+00  3.93828E+01  1.896E-01  2.000E+01  2.000E+04 -1.112E-01
   1   14   21     1    21    1.5809E+05 -1.0905E+03   1.5918E+05  0.000E+00  0.000E+00  0.000E+00  3.89067E+01  1.908E-01  2.000E+01  2.000E+04 -5.453E-02
   1   14   22     1    22    1.5918E+05  5.0875E+03   1.5409E+05  0.000E+00  0.000E+00  0.000E+00  3.84280E+01  1.893E-01  2.000E+01  2.000E+04  2.544E-01
   1    9   30     2     1    5.0000E+04 -2.7811E+03   5.2781E+04  0.000E+00  0.000E+00  0.000E+00  4.02428E+01  1.178E-01  2.000E+01  2.000E+04 -1.391E-01
   1    9   29     2     2    5.2781E+04 -3.1129E+03   5.5894E+04  0.000E+00  0.000E+00  0.000E+00  3.99968E+01  1.218E-01  2.000E+01  2.000E+04 -1.556E-01
   1    9   28     2     3    5.5894E+04 -3.4933E+03   5.9387E+04  0.000E+00  0.000E+00  0.000E+00  3.97512E+01  1.262E-01  2.000E+01  2.000E+04 -1.747E-01
   1    9   27     2     4    5.9387E+04 -6.2200E+03   6.5607E+04  0.000E+00  0.000E+00  0.000E+00  3.95075E+01  1.325E-01  2.000E+01  2.000E+04 -3.110E-01
   1   10   26     2     5    6.5607E+04 -3.8527E+03   6.9460E+04  0.000E+00  0.000E+00  0.000E+00  3.92638E+01  1.388E-01  2.000E+01  2.000E+04 -1.926E-01
   1   11   25     2     6    6.9460E+04 -2.8084E+03   7.2268E+04  0.000E+00  0.000E+00  0.000E+00  3.90178E+01  1.428E-01  2.000E+01  2.000E+04 -1.404E-01
   1   12   24     2     7    7.2268E+04 -1.9622E+03   7.4231E+04  0.000E+00  0.000E+00  0.000E+00  3.87707E+01  1.457E-01  2.000E+01  2.000E+04 -9.811E-02
   1   13   23     2     8    7.4231E+04 -1.1353E+03   7.5366E+04  0.000E+00  0.000E+00  0.000E+00  3.85225E+01  1.475E-01  2.000E+01  2.000E+04 -5.676E-02
   1   14   22     2     9    7.5366E+04  1.9688E+03   7.3397E+04  0.000E+00  0.000E+00  0.000E+00  3.82720E+01  1.470E-01  2.000E+01  2.000E+04  9.844E-02
   1   14   22     3     1    2.2749E+05 -8.3867E+03   2.3588E+05  0.000E+00  0.000E+00  0.000E+00  3.77543E+01  1.987E-01  2.000E+01  2.000E+04 -4.193E-01
   1   15   23     3     2    2.3588E+05 -1.9811E+03   2.3786E+05  0.000E+00  0.000E+00  0.000E+00  3.68680E+01  2.014E-01  2.000E+01  2.000E+04 -9.906E-02
   1   15   24     3     3    2.3786E+05 -1.6688E+03   2.3953E+05  0.000E+00  0.000E+00  0.000E+00  3.59801E+01  2.023E-01  2.000E+01  2.000E+04 -8.344E-02
   1   15   25     3     4    2.3953E+05 -1.7074E+03   2.4123E+05  0.000E+00  0.000E+00  0.000E+00  3.50920E+01  2.032E-01  2.000E+01  2.000E+04 -8.537E-02
   1   15   26     3     5    2.4123E+05 -2.1927E+03   2.4343E+05  0.000E+00  0.000E+00  0.000E+00  3.42041E+01  2.041E-01  2.000E+01  2.000E+04 -1.096E-01
   1   16   27     3     6    2.4343E+05 -3.0024E+03   2.4643E+05  0.000E+00  0.000E+00  0.000E+00  3.33166E+01  2.055E-01  2.000E+01  2.000E+04 -1.501E-01
   1   17   28     3     7    2.4643E+05 -3.8432E+03   2.5027E+05  0.000E+00  0.000E+00  0.000E+00  3.24294E+01  2.072E-01  2.000E+01  2.000E+04 -1.922E-01
   1   18   29     3     8    2.5027E+05 -5.5385E+03   2.5581E+05  0.000E+00  0.000E+00  0.000E+00  3.15428E+01  2.095E-01  2.000E+01  2.000E+04 -2.769E-01
   1   18   30     3     9    2.5581E+05 -4.7339E+03   2.6054E+05  0.000E+00  0.000E+00  0.000E+00  3.06565E+01  2.121E-01  2.000E+01  2.000E+04 -2.367E-01



1
              HEAD IN LAYER   1 AT END OF TIME STEP   1 IN STRESS PERIOD    8
  ---------------------------------------------------------------------------

          1      2      3      4      5      6      7      8      9     10
         11     12     13     14     15     16     17     18     19     20
         21     22     23     24     25     26     27     28     29     30
 .........................................................................
   1  ****** ****** ****** ****** ****** ****** ****** ****** ****** ******
      ****** ****** ****** ****** ****** ****** ****** ****** ****** ******
      ****** ****** ****** ****** ****** ****** ****** ****** ****** ******
   2  ****** ****** ****** ****** ****** ****** ****** ****** ****** ******
      ****** ****** ****** ****** ****** ****** ****** ****** ****** ******
      ****** ****** ****** ****** ****** ****** ****** ****** ****** ******
   3  ****** ****** ****** ****** ****** ****** ****** ****** ****** ******
      ****** ****** ****** ****** ****** ****** ****** ****** ****** ******
      ****** ****** ****** ****** ****** ****** ****** ****** ****** ******
   4  ****** ****** ****** ****** ****** ****** ****** ****** ****** ******
      ****** ****** ****** ****** ****** ****** ****** ****** ****** ******
      ****** ****** ****** ****** ****** ****** ****** ****** ****** ******
   5  ****** ****** ****** ****** ****** ****** ****** ****** ****** ******
      ****** ****** ****** ****** ****** ****** ****** ****** ****** ******
      ****** ****** ****** ****** ****** ****** ****** ****** ****** ******
   6  ****** ****** ****** ****** ****** ****** ****** ****** ****** ******
      ****** ****** ****** ****** ****** ****** ****** ****** ****** ******
      ****** ****** ****** ****** ****** ****** ****** ****** ****** ******
   7  ****** ****** ****** ****** ****** ****** ****** ****** ****** ******
      ****** ****** ****** ****** ****** ****** ****** ****** ****** ******
      ****** ****** ****** ****** ****** ****** ****** ****** ****** ******
   8  ****** ****** ****** ****** ****** ****** ****** ****** ****** ******
      ****** ****** ****** ****** ****** ****** ****** ****** ****** ******
      ****** ****** ****** ****** ****** ****** ****** ****** ****** ******
   9  ****** ****** ****** ****** ****** ****** ****** ****** ****** ******
      ****** ****** ****** ****** ****** ****** ****** ****** ****** ******
      ****** ****** ****** ****** ****** ****** ****** ****** ****** ******
  10  ****** ****** ****** ****** ****** ****** ****** ****** ****** ******
      ****** ****** ****** ****** ****** ****** ****** ****** ****** ******
      ****** ****** ****** ****** ****** ****** ****** ****** ****** ******
  11  ****** ****** ****** ****** ****** ****** ****** ****** ****** ******
      ****** ****** ****** ****** ****** ****** ****** ****** ****** ******
      ****** ****** ****** ****** ****** ****** ****** ****** ****** ******
  12  ****** ****** ****** ****** ****** ****** ****** ****** ****** ******
      ****** ****** ****** ****** ****** ****** ****** ****** ****** ******
      ****** ****** ****** ****** ****** ****** ****** ****** ****** ******
  13  ****** ****** ****** ****** ****** ****** ****** ****** ****** ******
      ****** ****** ****** ****** ****** ****** ****** ****** ****** ******
      ****** ****** ****** ****** ****** ****** ****** ****** ****** ******
  14  ****** ****** ****** ****** ****** ****** ****** ****** ****** ******
      ****** ****** ****** ****** ****** ****** ****** ****** ****** ******
      ****** ****** ****** ****** ****** ****** ****** ****** ****** ******
  15  ****** ****** ****** ****** ****** ****** ****** ****** ****** ******
      ****** ****** ****** ****** ****** ****** ****** ****** ****** ******
      ****** ****** ****** ****** ****** ****** ****** ****** ****** ******
  16  ****** ****** ****** ****** ****** ****** ****** ****** ****** ******
      ****** ****** ****** ****** ****** ****** ****** ****** ****** ******
      ****** ****** ****** ****** ****** ****** ****** ****** ****** ******
  17  ****** ****** ****** ****** ****** ****** ****** ****** ****** ******
      ****** ****** ****** ****** ****** ****** ****** ****** ****** ******
      ****** ****** ****** ****** ****** ****** ****** ****** ****** ******
  18  ****** ****** ****** ****** ****** ****** ****** ****** ****** ******
      ****** ****** ****** ****** ****** ****** ****** ****** ****** ******
      ****** ****** ****** ****** ****** ****** ****** ****** ****** ******
  19  ****** ****** ****** ****** ****** ****** ****** ****** ****** ******
      ****** ****** ****** ****** ****** ****** ****** ****** ****** ******
      ****** ****** ****** ****** ****** ****** ****** ****** ****** ******
  20  ****** ****** ****** ****** ****** ****** ****** ****** ****** ******
      ****** ****** ****** ****** ****** ****** ****** ****** ****** ******
      ****** ****** ****** ****** ****** ****** ****** ****** ****** ******
  21  ****** ****** ****** ****** ****** ****** ****** ****** ****** ******
      ****** ****** ****** ****** ****** ****** ****** ****** ****** ******
      ****** ****** ****** ****** ****** ****** ****** ****** ****** ******
  22  ****** ****** ****** ****** ****** ****** ****** ****** ****** ******
      ****** ****** ****** ****** ****** ****** ****** ****** ****** ******
      ****** ****** ****** ****** ****** ****** ****** ****** ****** ******
  23  ****** ****** ****** ****** ****** ****** ****** ****** ****** ******
      ****** ****** ****** ****** ****** ****** ****** ****** ****** ******
      ****** ****** ****** ****** ****** ****** ****** ****** ****** ******
  24  ****** ****** ****** ****** ****** ****** ****** ****** ****** ******
      ****** ****** ****** ****** ****** ****** ****** ****** ****** ******
      ****** ****** ****** ****** ****** ****** ****** ****** ****** ******
  25  ****** ****** ****** ****** ****** ****** ****** ****** ****** ******
      ****** ****** ****** ****** ****** ****** ****** ****** ****** ******
      ****** ****** ****** ****** ****** ****** ****** ****** ****** ******

 HEAD WILL BE SAVED ON UNIT   51 AT END OF TIME STEP    1, STRESS PERIOD    8
1
  VOLUMETRIC BUDGET FOR ENTIRE MODEL AT END OF TIME STEP    1, STRESS PERIOD   8
  ------------------------------------------------------------------------------

     CUMULATIVE VOLUMES      L**3       RATES FOR THIS TIME STEP      L**3/T
     ------------------                 ------------------------

           IN:                                      IN:
           ---                                      ---
             STORAGE =    24977322.8793               STORAGE =           0.0000
       CONSTANT HEAD =   122089117.9264         CONSTANT HEAD =      177371.3731
               WELLS =           0.0000                 WELLS =           0.0000
            RECHARGE =    17608800.0000              RECHARGE =       27600.0000
      STREAM LEAKAGE =     4928905.1434        STREAM LEAKAGE =        7056.3174

            TOTAL IN =   169604145.9491              TOTAL IN =      212027.6905

          OUT:                                     OUT:
          ----                                     ----
             STORAGE =     1268907.1454               STORAGE =        3631.3296
       CONSTANT HEAD =           0.0000         CONSTANT HEAD =           0.0000
               WELLS =    66280707.9863                 WELLS =       90795.4904
            RECHARGE =           0.0000              RECHARGE =           0.0000
      STREAM LEAKAGE =   102054531.5582        STREAM LEAKAGE =      117600.8697

           TOTAL OUT =   169604146.6899             TOTAL OUT =      212027.6897

            IN - OUT =          -0.7408              IN - OUT =       8.5409E-04

 PERCENT DISCREPANCY =          -0.00     PERCENT DISCREPANCY =           0.00






         TIME SUMMARY AT END OF TIME STEP    1 IN STRESS PERIOD    8
                    SECONDS     MINUTES      HOURS       DAYS        YEARS
                    -----------------------------------------------------------
   TIME STEP LENGTH 7.86240E+06 1.31040E+05  2184.0      91.000     0.24914    
 STRESS PERIOD TIME 7.86240E+06 1.31040E+05  2184.0      91.000     0.24914    
         TOTAL TIME 6.30720E+07 1.05120E+06  17520.      730.00      1.9986    
1
1
                            STRESS PERIOD NO.    9, LENGTH =   92.00000    
                            -----------------------------------------------

                              NUMBER OF TIME STEPS =     1

                               MULTIPLIER FOR DELT =     1.500

                            INITIAL TIME STEP SIZE =   92.00000    

 WELL NO.  LAYER   ROW   COL   STRESS RATE         
 --------------------------------------------------
      1      1     21     15      -9504.    
      2      1     23     15     -0.2528E+05
      3      1     23     11     -0.3338E+05
      4      1     21     17     -0.2263E+05

      4 WELLS

                 RECHARGE =  5.000000E-04

 REUSING STREAM SEGMENT DATA FROM LAST STRESS PERIOD
 
 SOLVING FOR HEAD 


     6 CALLS TO PCG ROUTINE FOR TIME STEP   1 IN STRESS PERIOD    9
    22 TOTAL ITERATIONS

 OUTPUT CONTROL FOR STRESS PERIOD    9   TIME STEP    1
    SAVE BUDGET
    SAVE HEAD FOR ALL LAYERS
    PRINT HEAD FOR ALL LAYERS
 UBDSV2 SAVING "STREAMFLOW OUT  " ON UNIT  50 AT TIME STEP  1, STRESS PERIOD   9



 STREAM LISTING     PERIOD      9   STEP        1

 LAYER ROW COL. STREAM  RCH.  FLOW INTO     FLOW TO   FLOW OUT OF   OVRLND.     DIRECT     STREAM       STREAM     STREAM     STREAM   STREAMBED  STREAMBED
                SEG.NO.  NO.  STRM. RCH.    AQUIFER    STRM. RCH.    RUNOFF     PRECIP       ET          HEAD       DEPTH      WIDTH   CONDCTNC.   GRADIENT

   1   13    1     1     1    1.0000E+05 -2.6810E+03   1.0268E+05  0.000E+00  0.000E+00  0.000E+00  4.84072E+01  1.458E-01  2.000E+01  2.000E+04 -1.340E-01
   1   13    2     1     2    1.0268E+05 -4.5906E+03   1.0727E+05  0.000E+00  0.000E+00  0.000E+00  4.79330E+01  1.489E-01  2.000E+01  2.000E+04 -2.295E-01
   1   14    3     1     3    1.0727E+05 -3.5646E+03   1.1084E+05  0.000E+00  0.000E+00  0.000E+00  4.74592E+01  1.524E-01  2.000E+01  2.000E+04 -1.782E-01
   1   15    4     1     4    1.1084E+05 -3.3614E+03   1.1420E+05  0.000E+00  0.000E+00  0.000E+00  4.69848E+01  1.553E-01  2.000E+01  2.000E+04 -1.681E-01
   1   16    5     1     5    1.1420E+05 -3.3746E+03   1.1757E+05  0.000E+00  0.000E+00  0.000E+00  4.65103E+01  1.580E-01  2.000E+01  2.000E+04 -1.687E-01
   1   16    6     1     6    1.1757E+05 -2.5914E+03   1.2016E+05  0.000E+00  0.000E+00  0.000E+00  4.60355E+01  1.605E-01  2.000E+01  2.000E+04 -1.296E-01
   1   16    7     1     7    1.2016E+05 -2.5144E+03   1.2268E+05  0.000E+00  0.000E+00  0.000E+00  4.55602E+01  1.625E-01  2.000E+01  2.000E+04 -1.257E-01
   1   16    8     1     8    1.2268E+05 -2.3628E+03   1.2504E+05  0.000E+00  0.000E+00  0.000E+00  4.50849E+01  1.645E-01  2.000E+01  2.000E+04 -1.181E-01
   1   16    9     1     9    1.2504E+05 -2.1304E+03   1.2717E+05  0.000E+00  0.000E+00  0.000E+00  4.46094E+01  1.663E-01  2.000E+01  2.000E+04 -1.065E-01
   1   16   10     1    10    1.2717E+05 -1.8210E+03   1.2899E+05  0.000E+00  0.000E+00  0.000E+00  4.41337E+01  1.678E-01  2.000E+01  2.000E+04 -9.105E-02
   1   16   11     1    11    1.2899E+05 -1.4200E+03   1.3041E+05  0.000E+00  0.000E+00  0.000E+00  4.36577E+01  1.691E-01  2.000E+01  2.000E+04 -7.100E-02
   1   16   12     1    12    1.3041E+05 -8.3137E+02   1.3124E+05  0.000E+00  0.000E+00  0.000E+00  4.31813E+01  1.700E-01  2.000E+01  2.000E+04 -4.157E-02
   1   15   13     1    13    1.3124E+05 -1.6414E+03   1.3288E+05  0.000E+00  0.000E+00  0.000E+00  4.27050E+01  1.709E-01  2.000E+01  2.000E+04 -8.207E-02
   1   14   14     1    14    1.3288E+05 -2.3358E+03   1.3522E+05  0.000E+00  0.000E+00  0.000E+00  4.22293E+01  1.725E-01  2.000E+01  2.000E+04 -1.168E-01
   1   13   15     1    15    1.3522E+05 -3.1720E+03   1.3839E+05  0.000E+00  0.000E+00  0.000E+00  4.17541E+01  1.746E-01  2.000E+01  2.000E+04 -1.586E-01
   1   12   16     1    16    1.3839E+05 -4.9566E+03   1.4335E+05  0.000E+00  0.000E+00  0.000E+00  4.12799E+01  1.777E-01  2.000E+01  2.000E+04 -2.478E-01
   1   12   17     1    17    1.4335E+05 -3.0285E+03   1.4638E+05  0.000E+00  0.000E+00  0.000E+00  4.08057E+01  1.807E-01  2.000E+01  2.000E+04 -1.514E-01
   1   12   18     1    18    1.4638E+05 -2.9160E+03   1.4929E+05  0.000E+00  0.000E+00  0.000E+00  4.03306E+01  1.829E-01  2.000E+01  2.000E+04 -1.458E-01
   1   12   19     1    19    1.4929E+05 -4.0844E+03   1.5338E+05  0.000E+00  0.000E+00  0.000E+00  3.98559E+01  1.855E-01  2.000E+01  2.000E+04 -2.042E-01
   1   13   20     1    20    1.5338E+05 -2.0944E+03   1.5547E+05  0.000E+00  0.000E+00  0.000E+00  3.93809E+01  1.877E-01  2.000E+01  2.000E+04 -1.047E-01
   1   14   21     1    21    1.5547E+05 -9.7272E+02   1.5645E+05  0.000E+00  0.000E+00  0.000E+00  3.89048E+01  1.889E-01  2.000E+01  2.000E+04 -4.864E-02
   1   14   22     1    22    1.5645E+05  5.1103E+03   1.5133E+05  0.000E+00  0.000E+00  0.000E+00  3.84260E+01  1.873E-01  2.000E+01  2.000E+04  2.555E-01
   1    9   30     2     1    5.0000E+04 -2.6815E+03   5.2682E+04  0.000E+00  0.000E+00  0.000E+00  4.02427E+01  1.177E-01  2.000E+01  2.000E+04 -1.341E-01
   1    9   29     2     2    5.2682E+04 -3.0140E+03   5.5696E+04  0.000E+00  0.000E+00  0.000E+00  3.99966E+01  1.216E-01  2.000E+01  2.000E+04 -1.507E-01
   1    9   28     2     3    5.5696E+04 -3.3950E+03   5.9091E+04  0.000E+00  0.000E+00  0.000E+00  3.97509E+01  1.259E-01  2.000E+01  2.000E+04 -1.697E-01
   1    9   27     2     4    5.9091E+04 -6.0907E+03   6.5181E+04  0.000E+00  0.000E+00  0.000E+00  3.95070E+01  1.320E-01  2.000E+01  2.000E+04 -3.045E-01
   1   10   26     2     5    6.5181E+04 -3.7167E+03   6.8898E+04  0.000E+00  0.000E+00  0.000E+00  3.92632E+01  1.382E-01  2.000E+01  2.000E+04 -1.858E-01
   1   11   25     2     6    6.8898E+04 -2.6770E+03   7.1575E+04  0.000E+00  0.000E+00  0.000E+00  3.90171E+01  1.421E-01  2.000E+01  2.000E+04 -1.339E-01
   1   12   24     2     7    7.1575E+04 -1.8441E+03   7.3419E+04  0.000E+00  0.000E+00  0.000E+00  3.87698E+01  1.448E-01  2.000E+01  2.000E+04 -9.221E-02
   1   13   23     2     8    7.3419E+04 -1.0410E+03   7.4460E+04  0.000E+00  0.000E+00  0.000E+00  3.85215E+01  1.465E-01  2.000E+01  2.000E+04 -5.205E-02
   1   14   22     2     9    7.4460E+04  2.0095E+03   7.2451E+04  0.000E+00  0.000E+00  0.000E+00  3.82709E+01  1.459E-01  2.000E+01  2.000E+04  1.005E-01
   1   14   22     3     1    2.2379E+05 -8.3623E+03   2.3215E+05  0.000E+00  0.000E+00  0.000E+00  3.77524E+01  1.968E-01  2.000E+01  2.000E+04 -4.181E-01
   1   15   23     3     2    2.3215E+05 -1.8712E+03   2.3402E+05  0.000E+00  0.000E+00  0.000E+00  3.68661E+01  1.994E-01  2.000E+01  2.000E+04 -9.356E-02
   1   15   24     3     3    2.3402E+05 -1.5871E+03   2.3561E+05  0.000E+00  0.000E+00  0.000E+00  3.59781E+01  2.003E-01  2.000E+01  2.000E+04 -7.935E-02
   1   15   25     3     4    2.3561E+05 -1.6249E+03   2.3723E+05  0.000E+00  0.000E+00  0.000E+00  3.50900E+01  2.011E-01  2.000E+01  2.000E+04 -8.124E-02
   1   15   26     3     5    2.3723E+05 -2.0871E+03   2.3932E+05  0.000E+00  0.000E+00  0.000E+00  3.42021E+01  2.021E-01  2.000E+01  2.000E+04 -1.044E-01
   1   16   27     3     6    2.3932E+05 -2.8722E+03   2.4219E+05  0.000E+00  0.000E+00  0.000E+00  3.33145E+01  2.034E-01  2.000E+01  2.000E+04 -1.436E-01
   1   17   28     3     7    2.4219E+05 -3.7109E+03   2.4590E+05  0.000E+00  0.000E+00  0.000E+00  3.24272E+01  2.050E-01  2.000E+01  2.000E+04 -1.855E-01
   1   18   29     3     8    2.4590E+05 -5.4155E+03   2.5132E+05  0.000E+00  0.000E+00  0.000E+00  3.15406E+01  2.073E-01  2.000E+01  2.000E+04 -2.708E-01
   1   18   30     3     9    2.5132E+05 -4.6396E+03   2.5596E+05  0.000E+00  0.000E+00  0.000E+00  3.06543E+01  2.098E-01  2.000E+01  2.000E+04 -2.320E-01



1
              HEAD IN LAYER   1 AT END OF TIME STEP   1 IN STRESS PERIOD    9
  ---------------------------------------------------------------------------

          1      2      3      4      5      6      7      8      9     10
         11     12     13     14     15     16     17     18     19     20
         21     22     23     24     25     26     27     28     29     30
 .........................................................................
   1  ****** ****** ****** ****** ****** ****** ****** ****** ****** ******
      ****** ****** ****** ****** ****** ****** ****** ****** ****** ******
      ****** ****** ****** ****** ****** ****** ****** ****** ****** ******
   2  ****** ****** ****** ****** ****** ****** ****** ****** ****** ******
      ****** ****** ****** ****** ****** ****** ****** ****** ****** ******
      ****** ****** ****** ****** ****** ****** ****** ****** ****** ******
   3  ****** ****** ****** ****** ****** ****** ****** ****** ****** ******
      ****** ****** ****** ****** ****** ****** ****** ****** ****** ******
      ****** ****** ****** ****** ****** ****** ****** ****** ****** ******
   4  ****** ****** ****** ****** ****** ****** ****** ****** ****** ******
      ****** ****** ****** ****** ****** ****** ****** ****** ****** ******
      ****** ****** ****** ****** ****** ****** ****** ****** ****** ******
   5  ****** ****** ****** ****** ****** ****** ****** ****** ****** ******
      ****** ****** ****** ****** ****** ****** ****** ****** ****** ******
      ****** ****** ****** ****** ****** ****** ****** ****** ****** ******
   6  ****** ****** ****** ****** ****** ****** ****** ****** ****** ******
      ****** ****** ****** ****** ****** ****** ****** ****** ****** ******
      ****** ****** ****** ****** ****** ****** ****** ****** ****** ******
   7  ****** ****** ****** ****** ****** ****** ****** ****** ****** ******
      ****** ****** ****** ****** ****** ****** ****** ****** ****** ******
      ****** ****** ****** ****** ****** ****** ****** ****** ****** ******
   8  ****** ****** ****** ****** ****** ****** ****** ****** ****** ******
      ****** ****** ****** ****** ****** ****** ****** ****** ****** ******
      ****** ****** ****** ****** ****** ****** ****** ****** ****** ******
   9  ****** ****** ****** ****** ****** ****** ****** ****** ****** ******
      ****** ****** ****** ****** ****** ****** ****** ****** ****** ******
      ****** ****** ****** ****** ****** ****** ****** ****** ****** ******
  10  ****** ****** ****** ****** ****** ****** ****** ****** ****** ******
      ****** ****** ****** ****** ****** ****** ****** ****** ****** ******
      ****** ****** ****** ****** ****** ****** ****** ****** ****** ******
  11  ****** ****** ****** ****** ****** ****** ****** ****** ****** ******
      ****** ****** ****** ****** ****** ****** ****** ****** ****** ******
      ****** ****** ****** ****** ****** ****** ****** ****** ****** ******
  12  ****** ****** ****** ****** ****** ****** ****** ****** ****** ******
      ****** ****** ****** ****** ****** ****** ****** ****** ****** ******
      ****** ****** ****** ****** ****** ****** ****** ****** ****** ******
  13  ****** ****** ****** ****** ****** ****** ****** ****** ****** ******
      ****** ****** ****** ****** ****** ****** ****** ****** ****** ******
      ****** ****** ****** ****** ****** ****** ****** ****** ****** ******
  14  ****** ****** ****** ****** ****** ****** ****** ****** ****** ******
      ****** ****** ****** ****** ****** ****** ****** ****** ****** ******
      ****** ****** ****** ****** ****** ****** ****** ****** ****** ******
  15  ****** ****** ****** ****** ****** ****** ****** ****** ****** ******
      ****** ****** ****** ****** ****** ****** ****** ****** ****** ******
      ****** ****** ****** ****** ****** ****** ****** ****** ****** ******
  16  ****** ****** ****** ****** ****** ****** ****** ****** ****** ******
      ****** ****** ****** ****** ****** ****** ****** ****** ****** ******
      ****** ****** ****** ****** ****** ****** ****** ****** ****** ******
  17  ****** ****** ****** ****** ****** ****** ****** ****** ****** ******
      ****** ****** ****** ****** ****** ****** ****** ****** ****** ******
      ****** ****** ****** ****** ****** ****** ****** ****** ****** ******
  18  ****** ****** ****** ****** ****** ****** ****** ****** ****** ******
      ****** ****** ****** ****** ****** ****** ****** ****** ****** ******
      ****** ****** ****** ****** ****** ****** ****** ****** ****** ******
  19  ****** ****** ****** ****** ****** ****** ****** ****** ****** ******
      ****** ****** ****** ****** ****** ****** ****** ****** ****** ******
      ****** ****** ****** ****** ****** ****** ****** ****** ****** ******
  20  ****** ****** ****** ****** ****** ****** ****** ****** ****** ******
      ****** ****** ****** ****** ****** ****** ****** ****** ****** ******
      ****** ****** ****** ****** ****** ****** ****** ****** ****** ******
  21  ****** ****** ****** ****** ****** ****** ****** ****** ****** ******
      ****** ****** ****** ****** ****** ****** ****** ****** ****** ******
      ****** ****** ****** ****** ****** ****** ****** ****** ****** ******
  22  ****** ****** ****** ****** ****** ****** ****** ****** ****** ******
      ****** ****** ****** ****** ****** ****** ****** ****** ****** ******
      ****** ****** ****** ****** ****** ****** ****** ****** ****** ******
  23  ****** ****** ****** ****** ****** ****** ****** ****** ****** ******
      ****** ****** ****** ****** ****** ****** ****** ****** ****** ******
      ****** ****** ****** ****** ****** ****** ****** ****** ****** ******
  24  ****** ****** ****** ****** ****** ****** ****** ****** ****** ******
      ****** ****** ****** ****** ****** ****** ****** ****** ****** ******
      ****** ****** ****** ****** ****** ****** ****** ****** ****** ******
  25  ****** ****** ****** ****** ****** ****** ****** ****** ****** ******
      ****** ****** ****** ****** ****** ****** ****** ****** ****** ******
      ****** ****** ****** ****** ****** ****** ****** ****** ****** ******

 HEAD WILL BE SAVED ON UNIT   51 AT END OF TIME STEP    1, STRESS PERIOD    9
1
  VOLUMETRIC BUDGET FOR ENTIRE MODEL AT END OF TIME STEP    1, STRESS PERIOD   9
  ------------------------------------------------------------------------------

     CUMULATIVE VOLUMES      L**3       RATES FOR THIS TIME STEP      L**3/T
     ------------------                 ------------------------

           IN:                                      IN:
           ---                                      ---
             STORAGE =    25224008.9195               STORAGE =        2681.3700
       CONSTANT HEAD =   138673998.9218         CONSTANT HEAD =      180270.4456
               WELLS =           0.0000                 WELLS =           0.0000
            RECHARGE =    18878400.0000              RECHARGE =       13800.0000
      STREAM LEAKAGE =     5583927.8137        STREAM LEAKAGE =        7119.8116

            TOTAL IN =   188360335.6551              TOTAL IN =      203871.6272

          OUT:                                     OUT:
          ----                                     ----
             STORAGE =     1268907.1454               STORAGE =           0.0000
       CONSTANT HEAD =           0.0000         CONSTANT HEAD =           0.0000
               WELLS =    74633893.1024                 WELLS =       90795.4904
            RECHARGE =           0.0000              RECHARGE =           0.0000
      STREAM LEAKAGE =   112457536.4374        STREAM LEAKAGE =      113076.1400

           TOTAL OUT =   188360336.6852             TOTAL OUT =      203871.6304

            IN - OUT =          -1.0301              IN - OUT =      -3.1442E-03

 PERCENT DISCREPANCY =          -0.00     PERCENT DISCREPANCY =          -0.00






         TIME SUMMARY AT END OF TIME STEP    1 IN STRESS PERIOD    9
                    SECONDS     MINUTES      HOURS       DAYS        YEARS
                    -----------------------------------------------------------
   TIME STEP LENGTH 7.94880E+06 1.32480E+05  2208.0      92.000     0.25188    
 STRESS PERIOD TIME 7.94880E+06 1.32480E+05  2208.0      92.000     0.25188    
         TOTAL TIME 7.10208E+07 1.18368E+06  19728.      822.00      2.2505    
1
1
                            STRESS PERIOD NO.   10, LENGTH =   91.00000    
                            -----------------------------------------------

                              NUMBER OF TIME STEPS =     1

                               MULTIPLIER FOR DELT =     1.500

                            INITIAL TIME STEP SIZE =   91.00000    

 WELL NO.  LAYER   ROW   COL   STRESS RATE         
 --------------------------------------------------
      1      1     21     15      -9504.    
      2      1     23     15     -0.2528E+05
      3      1     23     11     -0.3338E+05
      4      1     21     17     -0.2263E+05

      4 WELLS

                 RECHARGE =  2.000000E-03

 REUSING STREAM SEGMENT DATA FROM LAST STRESS PERIOD
 
 SOLVING FOR HEAD 


     7 CALLS TO PCG ROUTINE FOR TIME STEP   1 IN STRESS PERIOD   10
    26 TOTAL ITERATIONS

 OUTPUT CONTROL FOR STRESS PERIOD   10   TIME STEP    1
    SAVE BUDGET
    SAVE HEAD FOR ALL LAYERS
    PRINT HEAD FOR ALL LAYERS
 UBDSV2 SAVING "STREAMFLOW OUT  " ON UNIT  50 AT TIME STEP  1, STRESS PERIOD  10



 STREAM LISTING     PERIOD     10   STEP        1

 LAYER ROW COL. STREAM  RCH.  FLOW INTO     FLOW TO   FLOW OUT OF   OVRLND.     DIRECT     STREAM       STREAM     STREAM     STREAM   STREAMBED  STREAMBED
                SEG.NO.  NO.  STRM. RCH.    AQUIFER    STRM. RCH.    RUNOFF     PRECIP       ET          HEAD       DEPTH      WIDTH   CONDCTNC.   GRADIENT

   1   13    1     1     1    1.0000E+05 -3.1041E+03   1.0310E+05  0.000E+00  0.000E+00  0.000E+00  4.84074E+01  1.460E-01  2.000E+01  2.000E+04 -1.552E-01
   1   13    2     1     2    1.0310E+05 -5.1528E+03   1.0826E+05  0.000E+00  0.000E+00  0.000E+00  4.79336E+01  1.495E-01  2.000E+01  2.000E+04 -2.576E-01
   1   14    3     1     3    1.0826E+05 -4.1314E+03   1.1239E+05  0.000E+00  0.000E+00  0.000E+00  4.74603E+01  1.534E-01  2.000E+01  2.000E+04 -2.066E-01
   1   15    4     1     4    1.1239E+05 -3.9211E+03   1.1631E+05  0.000E+00  0.000E+00  0.000E+00  4.69863E+01  1.568E-01  2.000E+01  2.000E+04 -1.961E-01
   1   16    5     1     5    1.1631E+05 -3.8897E+03   1.2020E+05  0.000E+00  0.000E+00  0.000E+00  4.65122E+01  1.600E-01  2.000E+01  2.000E+04 -1.945E-01
   1   16    6     1     6    1.2020E+05 -2.9989E+03   1.2320E+05  0.000E+00  0.000E+00  0.000E+00  4.60377E+01  1.627E-01  2.000E+01  2.000E+04 -1.499E-01
   1   16    7     1     7    1.2320E+05 -2.9286E+03   1.2613E+05  0.000E+00  0.000E+00  0.000E+00  4.55628E+01  1.651E-01  2.000E+01  2.000E+04 -1.464E-01
   1   16    8     1     8    1.2613E+05 -2.7808E+03   1.2891E+05  0.000E+00  0.000E+00  0.000E+00  4.50878E+01  1.674E-01  2.000E+01  2.000E+04 -1.390E-01
   1   16    9     1     9    1.2891E+05 -2.5483E+03   1.3146E+05  0.000E+00  0.000E+00  0.000E+00  4.46126E+01  1.695E-01  2.000E+01  2.000E+04 -1.274E-01
   1   16   10     1    10    1.3146E+05 -2.2350E+03   1.3369E+05  0.000E+00  0.000E+00  0.000E+00  4.41372E+01  1.713E-01  2.000E+01  2.000E+04 -1.118E-01
   1   16   11     1    11    1.3369E+05 -1.8282E+03   1.3552E+05  0.000E+00  0.000E+00  0.000E+00  4.36615E+01  1.729E-01  2.000E+01  2.000E+04 -9.141E-02
   1   16   12     1    12    1.3552E+05 -1.3560E+03   1.3687E+05  0.000E+00  0.000E+00  0.000E+00  4.31855E+01  1.741E-01  2.000E+01  2.000E+04 -6.780E-02
   1   15   13     1    13    1.3687E+05 -2.2134E+03   1.3909E+05  0.000E+00  0.000E+00  0.000E+00  4.27096E+01  1.755E-01  2.000E+01  2.000E+04 -1.107E-01
   1   14   14     1    14    1.3909E+05 -2.9192E+03   1.4201E+05  0.000E+00  0.000E+00  0.000E+00  4.22342E+01  1.774E-01  2.000E+01  2.000E+04 -1.460E-01
   1   13   15     1    15    1.4201E+05 -3.7466E+03   1.4575E+05  0.000E+00  0.000E+00  0.000E+00  4.17595E+01  1.799E-01  2.000E+01  2.000E+04 -1.873E-01
   1   12   16     1    16    1.4575E+05 -5.5088E+03   1.5126E+05  0.000E+00  0.000E+00  0.000E+00  4.12857E+01  1.834E-01  2.000E+01  2.000E+04 -2.754E-01
   1   12   17     1    17    1.5126E+05 -3.4369E+03   1.5470E+05  0.000E+00  0.000E+00  0.000E+00  4.08117E+01  1.867E-01  2.000E+01  2.000E+04 -1.718E-01
   1   12   18     1    18    1.5470E+05 -3.3164E+03   1.5802E+05  0.000E+00  0.000E+00  0.000E+00  4.03369E+01  1.891E-01  2.000E+01  2.000E+04 -1.658E-01
   1   12   19     1    19    1.5802E+05 -4.5720E+03   1.6259E+05  0.000E+00  0.000E+00  0.000E+00  3.98624E+01  1.920E-01  2.000E+01  2.000E+04 -2.286E-01
   1   13   20     1    20    1.6259E+05 -2.5671E+03   1.6516E+05  0.000E+00  0.000E+00  0.000E+00  3.93877E+01  1.945E-01  2.000E+01  2.000E+04 -1.284E-01
   1   14   21     1    21    1.6516E+05 -1.4080E+03   1.6656E+05  0.000E+00  0.000E+00  0.000E+00  3.89119E+01  1.960E-01  2.000E+01  2.000E+04 -7.040E-02
   1   14   22     1    22    1.6656E+05  5.0315E+03   1.6153E+05  0.000E+00  0.000E+00  0.000E+00  3.84333E+01  1.947E-01  2.000E+01  2.000E+04  2.516E-01
   1    9   30     2     1    5.0000E+04 -3.0429E+03   5.3043E+04  0.000E+00  0.000E+00  0.000E+00  4.02430E+01  1.180E-01  2.000E+01  2.000E+04 -1.521E-01
   1    9   29     2     2    5.3043E+04 -3.3727E+03   5.6416E+04  0.000E+00  0.000E+00  0.000E+00  3.99973E+01  1.223E-01  2.000E+01  2.000E+04 -1.686E-01
   1    9   28     2     3    5.6416E+04 -3.7521E+03   6.0168E+04  0.000E+00  0.000E+00  0.000E+00  3.97520E+01  1.270E-01  2.000E+01  2.000E+04 -1.876E-01
   1    9   27     2     4    6.0168E+04 -6.5703E+03   6.6738E+04  0.000E+00  0.000E+00  0.000E+00  3.95087E+01  1.337E-01  2.000E+01  2.000E+04 -3.285E-01
   1   10   26     2     5    6.6738E+04 -4.2121E+03   7.0950E+04  0.000E+00  0.000E+00  0.000E+00  3.92654E+01  1.404E-01  2.000E+01  2.000E+04 -2.106E-01
   1   11   25     2     6    7.0950E+04 -3.1510E+03   7.4101E+04  0.000E+00  0.000E+00  0.000E+00  3.90198E+01  1.448E-01  2.000E+01  2.000E+04 -1.575E-01
   1   12   24     2     7    7.4101E+04 -2.2630E+03   7.6364E+04  0.000E+00  0.000E+00  0.000E+00  3.87731E+01  1.481E-01  2.000E+01  2.000E+04 -1.131E-01
   1   13   23     2     8    7.6364E+04 -1.3673E+03   7.7731E+04  0.000E+00  0.000E+00  0.000E+00  3.85252E+01  1.502E-01  2.000E+01  2.000E+04 -6.837E-02
   1   14   22     2     9    7.7731E+04  1.8632E+03   7.5868E+04  0.000E+00  0.000E+00  0.000E+00  3.82749E+01  1.499E-01  2.000E+01  2.000E+04  9.316E-02
   1   14   22     3     1    2.3740E+05 -8.4478E+03   2.4585E+05  0.000E+00  0.000E+00  0.000E+00  3.77593E+01  2.038E-01  2.000E+01  2.000E+04 -4.224E-01
   1   15   23     3     2    2.4585E+05 -2.2774E+03   2.4813E+05  0.000E+00  0.000E+00  0.000E+00  3.68732E+01  2.065E-01  2.000E+01  2.000E+04 -1.139E-01
   1   15   24     3     3    2.4813E+05 -1.8792E+03   2.5000E+05  0.000E+00  0.000E+00  0.000E+00  3.59853E+01  2.075E-01  2.000E+01  2.000E+04 -9.396E-02
   1   15   25     3     4    2.5000E+05 -1.9167E+03   2.5192E+05  0.000E+00  0.000E+00  0.000E+00  3.50974E+01  2.085E-01  2.000E+01  2.000E+04 -9.584E-02
   1   15   26     3     5    2.5192E+05 -2.4618E+03   2.5438E+05  0.000E+00  0.000E+00  0.000E+00  3.42096E+01  2.096E-01  2.000E+01  2.000E+04 -1.231E-01
   1   16   27     3     6    2.5438E+05 -3.3438E+03   2.5773E+05  0.000E+00  0.000E+00  0.000E+00  3.33221E+01  2.110E-01  2.000E+01  2.000E+04 -1.672E-01
   1   17   28     3     7    2.5773E+05 -4.1927E+03   2.6192E+05  0.000E+00  0.000E+00  0.000E+00  3.24351E+01  2.129E-01  2.000E+01  2.000E+04 -2.096E-01
   1   18   29     3     8    2.6192E+05 -5.8684E+03   2.6779E+05  0.000E+00  0.000E+00  0.000E+00  3.15487E+01  2.153E-01  2.000E+01  2.000E+04 -2.934E-01
   1   18   30     3     9    2.6779E+05 -4.9800E+03   2.7277E+05  0.000E+00  0.000E+00  0.000E+00  3.06624E+01  2.180E-01  2.000E+01  2.000E+04 -2.490E-01



1
              HEAD IN LAYER   1 AT END OF TIME STEP   1 IN STRESS PERIOD   10
  ---------------------------------------------------------------------------

          1      2      3      4      5      6      7      8      9     10
         11     12     13     14     15     16     17     18     19     20
         21     22     23     24     25     26     27     28     29     30
 .........................................................................
   1  ****** ****** ****** ****** ****** ****** ****** ****** ****** ******
      ****** ****** ****** ****** ****** ****** ****** ****** ****** ******
      ****** ****** ****** ****** ****** ****** ****** ****** ****** ******
   2  ****** ****** ****** ****** ****** ****** ****** ****** ****** ******
      ****** ****** ****** ****** ****** ****** ****** ****** ****** ******
      ****** ****** ****** ****** ****** ****** ****** ****** ****** ******
   3  ****** ****** ****** ****** ****** ****** ****** ****** ****** ******
      ****** ****** ****** ****** ****** ****** ****** ****** ****** ******
      ****** ****** ****** ****** ****** ****** ****** ****** ****** ******
   4  ****** ****** ****** ****** ****** ****** ****** ****** ****** ******
      ****** ****** ****** ****** ****** ****** ****** ****** ****** ******
      ****** ****** ****** ****** ****** ****** ****** ****** ****** ******
   5  ****** ****** ****** ****** ****** ****** ****** ****** ****** ******
      ****** ****** ****** ****** ****** ****** ****** ****** ****** ******
      ****** ****** ****** ****** ****** ****** ****** ****** ****** ******
   6  ****** ****** ****** ****** ****** ****** ****** ****** ****** ******
      ****** ****** ****** ****** ****** ****** ****** ****** ****** ******
      ****** ****** ****** ****** ****** ****** ****** ****** ****** ******
   7  ****** ****** ****** ****** ****** ****** ****** ****** ****** ******
      ****** ****** ****** ****** ****** ****** ****** ****** ****** ******
      ****** ****** ****** ****** ****** ****** ****** ****** ****** ******
   8  ****** ****** ****** ****** ****** ****** ****** ****** ****** ******
      ****** ****** ****** ****** ****** ****** ****** ****** ****** ******
      ****** ****** ****** ****** ****** ****** ****** ****** ****** ******
   9  ****** ****** ****** ****** ****** ****** ****** ****** ****** ******
      ****** ****** ****** ****** ****** ****** ****** ****** ****** ******
      ****** ****** ****** ****** ****** ****** ****** ****** ****** ******
  10  ****** ****** ****** ****** ****** ****** ****** ****** ****** ******
      ****** ****** ****** ****** ****** ****** ****** ****** ****** ******
      ****** ****** ****** ****** ****** ****** ****** ****** ****** ******
  11  ****** ****** ****** ****** ****** ****** ****** ****** ****** ******
      ****** ****** ****** ****** ****** ****** ****** ****** ****** ******
      ****** ****** ****** ****** ****** ****** ****** ****** ****** ******
  12  ****** ****** ****** ****** ****** ****** ****** ****** ****** ******
      ****** ****** ****** ****** ****** ****** ****** ****** ****** ******
      ****** ****** ****** ****** ****** ****** ****** ****** ****** ******
  13  ****** ****** ****** ****** ****** ****** ****** ****** ****** ******
      ****** ****** ****** ****** ****** ****** ****** ****** ****** ******
      ****** ****** ****** ****** ****** ****** ****** ****** ****** ******
  14  ****** ****** ****** ****** ****** ****** ****** ****** ****** ******
      ****** ****** ****** ****** ****** ****** ****** ****** ****** ******
      ****** ****** ****** ****** ****** ****** ****** ****** ****** ******
  15  ****** ****** ****** ****** ****** ****** ****** ****** ****** ******
      ****** ****** ****** ****** ****** ****** ****** ****** ****** ******
      ****** ****** ****** ****** ****** ****** ****** ****** ****** ******
  16  ****** ****** ****** ****** ****** ****** ****** ****** ****** ******
      ****** ****** ****** ****** ****** ****** ****** ****** ****** ******
      ****** ****** ****** ****** ****** ****** ****** ****** ****** ******
  17  ****** ****** ****** ****** ****** ****** ****** ****** ****** ******
      ****** ****** ****** ****** ****** ****** ****** ****** ****** ******
      ****** ****** ****** ****** ****** ****** ****** ****** ****** ******
  18  ****** ****** ****** ****** ****** ****** ****** ****** ****** ******
      ****** ****** ****** ****** ****** ****** ****** ****** ****** ******
      ****** ****** ****** ****** ****** ****** ****** ****** ****** ******
  19  ****** ****** ****** ****** ****** ****** ****** ****** ****** ******
      ****** ****** ****** ****** ****** ****** ****** ****** ****** ******
      ****** ****** ****** ****** ****** ****** ****** ****** ****** ******
  20  ****** ****** ****** ****** ****** ****** ****** ****** ****** ******
      ****** ****** ****** ****** ****** ****** ****** ****** ****** ******
      ****** ****** ****** ****** ****** ****** ****** ****** ****** ******
  21  ****** ****** ****** ****** ****** ****** ****** ****** ****** ******
      ****** ****** ****** ****** ****** ****** ****** ****** ****** ******
      ****** ****** ****** ****** ****** ****** ****** ****** ****** ******
  22  ****** ****** ****** ****** ****** ****** ****** ****** ****** ******
      ****** ****** ****** ****** ****** ****** ****** ****** ****** ******
      ****** ****** ****** ****** ****** ****** ****** ****** ****** ******
  23  ****** ****** ****** ****** ****** ****** ****** ****** ****** ******
      ****** ****** ****** ****** ****** ****** ****** ****** ****** ******
      ****** ****** ****** ****** ****** ****** ****** ****** ****** ******
  24  ****** ****** ****** ****** ****** ****** ****** ****** ****** ******
      ****** ****** ****** ****** ****** ****** ****** ****** ****** ******
      ****** ****** ****** ****** ****** ****** ****** ****** ****** ******
  25  ****** ****** ****** ****** ****** ****** ****** ****** ****** ******
      ****** ****** ****** ****** ****** ****** ****** ****** ****** ******
      ****** ****** ****** ****** ****** ****** ****** ****** ****** ******

 HEAD WILL BE SAVED ON UNIT   51 AT END OF TIME STEP    1, STRESS PERIOD   10
1
  VOLUMETRIC BUDGET FOR ENTIRE MODEL AT END OF TIME STEP    1, STRESS PERIOD  10
  ------------------------------------------------------------------------------

     CUMULATIVE VOLUMES      L**3       RATES FOR THIS TIME STEP      L**3/T
     ------------------                 ------------------------

           IN:                                      IN:
           ---                                      ---
             STORAGE =    25224008.9195               STORAGE =           0.0000
       CONSTANT HEAD =   154064077.3660         CONSTANT HEAD =      169121.7411
               WELLS =           0.0000                 WELLS =           0.0000
            RECHARGE =    23901600.0000              RECHARGE =       55200.0000
      STREAM LEAKAGE =     6211341.8895        STREAM LEAKAGE =        6894.6602

            TOTAL IN =   209401028.1751              TOTAL IN =      231216.4013

          OUT:                                     OUT:
          ----                                     ----
             STORAGE =     2247939.2358               STORAGE =       10758.5944
       CONSTANT HEAD =           0.0000         CONSTANT HEAD =           0.0000
               WELLS =    82896282.7281                 WELLS =       90795.4904
            RECHARGE =           0.0000              RECHARGE =           0.0000
      STREAM LEAKAGE =   124256807.0788        STREAM LEAKAGE =      129662.3147

           TOTAL OUT =   209401029.0426             TOTAL OUT =      231216.3995

            IN - OUT =          -0.8676              IN - OUT =       1.7860E-03

 PERCENT DISCREPANCY =          -0.00     PERCENT DISCREPANCY =           0.00






         TIME SUMMARY AT END OF TIME STEP    1 IN STRESS PERIOD   10
                    SECONDS     MINUTES      HOURS       DAYS        YEARS
                    -----------------------------------------------------------
   TIME STEP LENGTH 7.86240E+06 1.31040E+05  2184.0      91.000     0.24914    
 STRESS PERIOD TIME 7.86240E+06 1.31040E+05  2184.0      91.000     0.24914    
         TOTAL TIME 7.88832E+07 1.31472E+06  21912.      913.00      2.4997    
1
1
                            STRESS PERIOD NO.   11, LENGTH =   91.00000    
                            -----------------------------------------------

                              NUMBER OF TIME STEPS =     1

                               MULTIPLIER FOR DELT =     1.500

                            INITIAL TIME STEP SIZE =   91.00000    

 WELL NO.  LAYER   ROW   COL   STRESS RATE         
 --------------------------------------------------
      1      1     21     15      -9504.    
      2      1     23     15     -0.2528E+05
      3      1     23     11     -0.3338E+05
      4      1     21     17     -0.2263E+05

      4 WELLS

                 RECHARGE =   0.00000    

 REUSING STREAM SEGMENT DATA FROM LAST STRESS PERIOD
 
 SOLVING FOR HEAD 


     7 CALLS TO PCG ROUTINE FOR TIME STEP   1 IN STRESS PERIOD   11
    26 TOTAL ITERATIONS

 OUTPUT CONTROL FOR STRESS PERIOD   11   TIME STEP    1
    SAVE BUDGET
    SAVE HEAD FOR ALL LAYERS
    PRINT HEAD FOR ALL LAYERS
 UBDSV2 SAVING "STREAMFLOW OUT  " ON UNIT  50 AT TIME STEP  1, STRESS PERIOD  11



 STREAM LISTING     PERIOD     11   STEP        1

 LAYER ROW COL. STREAM  RCH.  FLOW INTO     FLOW TO   FLOW OUT OF   OVRLND.     DIRECT     STREAM       STREAM     STREAM     STREAM   STREAMBED  STREAMBED
                SEG.NO.  NO.  STRM. RCH.    AQUIFER    STRM. RCH.    RUNOFF     PRECIP       ET          HEAD       DEPTH      WIDTH   CONDCTNC.   GRADIENT

   1   13    1     1     1    1.0000E+05 -2.6199E+03   1.0262E+05  0.000E+00  0.000E+00  0.000E+00  4.84071E+01  1.458E-01  2.000E+01  2.000E+04 -1.310E-01
   1   13    2     1     2    1.0262E+05 -4.5198E+03   1.0714E+05  0.000E+00  0.000E+00  0.000E+00  4.79329E+01  1.488E-01  2.000E+01  2.000E+04 -2.260E-01
   1   14    3     1     3    1.0714E+05 -3.4766E+03   1.1062E+05  0.000E+00  0.000E+00  0.000E+00  4.74590E+01  1.522E-01  2.000E+01  2.000E+04 -1.738E-01
   1   15    4     1     4    1.1062E+05 -3.2695E+03   1.1389E+05  0.000E+00  0.000E+00  0.000E+00  4.69846E+01  1.550E-01  2.000E+01  2.000E+04 -1.635E-01
   1   16    5     1     5    1.1389E+05 -3.2880E+03   1.1717E+05  0.000E+00  0.000E+00  0.000E+00  4.65100E+01  1.577E-01  2.000E+01  2.000E+04 -1.644E-01
   1   16    6     1     6    1.1717E+05 -2.5231E+03   1.1970E+05  0.000E+00  0.000E+00  0.000E+00  4.60351E+01  1.601E-01  2.000E+01  2.000E+04 -1.262E-01
   1   16    7     1     7    1.1970E+05 -2.4459E+03   1.2214E+05  0.000E+00  0.000E+00  0.000E+00  4.55598E+01  1.621E-01  2.000E+01  2.000E+04 -1.223E-01
   1   16    8     1     8    1.2214E+05 -2.2941E+03   1.2444E+05  0.000E+00  0.000E+00  0.000E+00  4.50845E+01  1.640E-01  2.000E+01  2.000E+04 -1.147E-01
   1   16    9     1     9    1.2444E+05 -2.0617E+03   1.2650E+05  0.000E+00  0.000E+00  0.000E+00  4.46089E+01  1.657E-01  2.000E+01  2.000E+04 -1.031E-01
   1   16   10     1    10    1.2650E+05 -1.7526E+03   1.2825E+05  0.000E+00  0.000E+00  0.000E+00  4.41332E+01  1.673E-01  2.000E+01  2.000E+04 -8.763E-02
   1   16   11     1    11    1.2825E+05 -1.3519E+03   1.2960E+05  0.000E+00  0.000E+00  0.000E+00  4.36571E+01  1.685E-01  2.000E+01  2.000E+04 -6.760E-02
   1   16   12     1    12    1.2960E+05 -7.4645E+02   1.3035E+05  0.000E+00  0.000E+00  0.000E+00  4.31807E+01  1.693E-01  2.000E+01  2.000E+04 -3.732E-02
   1   15   13     1    13    1.3035E+05 -1.5497E+03   1.3190E+05  0.000E+00  0.000E+00  0.000E+00  4.27043E+01  1.702E-01  2.000E+01  2.000E+04 -7.748E-02
   1   14   14     1    14    1.3190E+05 -2.2444E+03   1.3414E+05  0.000E+00  0.000E+00  0.000E+00  4.22285E+01  1.717E-01  2.000E+01  2.000E+04 -1.122E-01
   1   13   15     1    15    1.3414E+05 -3.0838E+03   1.3723E+05  0.000E+00  0.000E+00  0.000E+00  4.17533E+01  1.737E-01  2.000E+01  2.000E+04 -1.542E-01
   1   12   16     1    16    1.3723E+05 -4.8814E+03   1.4211E+05  0.000E+00  0.000E+00  0.000E+00  4.12790E+01  1.768E-01  2.000E+01  2.000E+04 -2.441E-01
   1   12   17     1    17    1.4211E+05 -2.9635E+03   1.4507E+05  0.000E+00  0.000E+00  0.000E+00  4.08047E+01  1.797E-01  2.000E+01  2.000E+04 -1.482E-01
   1   12   18     1    18    1.4507E+05 -2.8496E+03   1.4792E+05  0.000E+00  0.000E+00  0.000E+00  4.03296E+01  1.819E-01  2.000E+01  2.000E+04 -1.425E-01
   1   12   19     1    19    1.4792E+05 -4.0029E+03   1.5192E+05  0.000E+00  0.000E+00  0.000E+00  3.98549E+01  1.844E-01  2.000E+01  2.000E+04 -2.001E-01
   1   13   20     1    20    1.5192E+05 -2.0042E+03   1.5393E+05  0.000E+00  0.000E+00  0.000E+00  3.93798E+01  1.866E-01  2.000E+01  2.000E+04 -1.002E-01
   1   14   21     1    21    1.5393E+05 -8.9286E+02   1.5482E+05  0.000E+00  0.000E+00  0.000E+00  3.89036E+01  1.877E-01  2.000E+01  2.000E+04 -4.464E-02
   1   14   22     1    22    1.5482E+05  5.1306E+03   1.4969E+05  0.000E+00  0.000E+00  0.000E+00  3.84248E+01  1.862E-01  2.000E+01  2.000E+04  2.565E-01
   1    9   30     2     1    5.0000E+04 -2.6014E+03   5.2601E+04  0.000E+00  0.000E+00  0.000E+00  4.02427E+01  1.177E-01  2.000E+01  2.000E+04 -1.301E-01
   1    9   29     2     2    5.2601E+04 -2.9350E+03   5.5536E+04  0.000E+00  0.000E+00  0.000E+00  3.99964E+01  1.214E-01  2.000E+01  2.000E+04 -1.467E-01
   1    9   28     2     3    5.5536E+04 -3.3179E+03   5.8854E+04  0.000E+00  0.000E+00  0.000E+00  3.97506E+01  1.256E-01  2.000E+01  2.000E+04 -1.659E-01
   1    9   27     2     4    5.8854E+04 -5.9986E+03   6.4853E+04  0.000E+00  0.000E+00  0.000E+00  3.95066E+01  1.316E-01  2.000E+01  2.000E+04 -2.999E-01
   1   10   26     2     5    6.4853E+04 -3.6144E+03   6.8467E+04  0.000E+00  0.000E+00  0.000E+00  3.92627E+01  1.377E-01  2.000E+01  2.000E+04 -1.807E-01
   1   11   25     2     6    6.8467E+04 -2.5766E+03   7.1044E+04  0.000E+00  0.000E+00  0.000E+00  3.90165E+01  1.415E-01  2.000E+01  2.000E+04 -1.288E-01
   1   12   24     2     7    7.1044E+04 -1.7517E+03   7.2796E+04  0.000E+00  0.000E+00  0.000E+00  3.87691E+01  1.441E-01  2.000E+01  2.000E+04 -8.759E-02
   1   13   23     2     8    7.2796E+04 -9.6433E+02   7.3760E+04  0.000E+00  0.000E+00  0.000E+00  3.85207E+01  1.457E-01  2.000E+01  2.000E+04 -4.822E-02
   1   14   22     2     9    7.3760E+04  2.0366E+03   7.1723E+04  0.000E+00  0.000E+00  0.000E+00  3.82701E+01  1.451E-01  2.000E+01  2.000E+04  1.018E-01
   1   14   22     3     1    2.2141E+05 -8.3428E+03   2.2976E+05  0.000E+00  0.000E+00  0.000E+00  3.77511E+01  1.956E-01  2.000E+01  2.000E+04 -4.171E-01
   1   15   23     3     2    2.2976E+05 -1.7958E+03   2.3155E+05  0.000E+00  0.000E+00  0.000E+00  3.68649E+01  1.982E-01  2.000E+01  2.000E+04 -8.979E-02
   1   15   24     3     3    2.3155E+05 -1.5241E+03   2.3308E+05  0.000E+00  0.000E+00  0.000E+00  3.59768E+01  1.990E-01  2.000E+01  2.000E+04 -7.620E-02
   1   15   25     3     4    2.3308E+05 -1.5580E+03   2.3464E+05  0.000E+00  0.000E+00  0.000E+00  3.50887E+01  1.998E-01  2.000E+01  2.000E+04 -7.790E-02
   1   15   26     3     5    2.3464E+05 -1.9975E+03   2.3663E+05  0.000E+00  0.000E+00  0.000E+00  3.42007E+01  2.007E-01  2.000E+01  2.000E+04 -9.988E-02
   1   16   27     3     6    2.3663E+05 -2.7676E+03   2.3940E+05  0.000E+00  0.000E+00  0.000E+00  3.33131E+01  2.020E-01  2.000E+01  2.000E+04 -1.384E-01
   1   17   28     3     7    2.3940E+05 -3.6059E+03   2.4301E+05  0.000E+00  0.000E+00  0.000E+00  3.24258E+01  2.036E-01  2.000E+01  2.000E+04 -1.803E-01
   1   18   29     3     8    2.4301E+05 -5.3214E+03   2.4833E+05  0.000E+00  0.000E+00  0.000E+00  3.15392E+01  2.058E-01  2.000E+01  2.000E+04 -2.661E-01
   1   18   30     3     9    2.4833E+05 -4.5629E+03   2.5289E+05  0.000E+00  0.000E+00  0.000E+00  3.06527E+01  2.083E-01  2.000E+01  2.000E+04 -2.281E-01



1
              HEAD IN LAYER   1 AT END OF TIME STEP   1 IN STRESS PERIOD   11
  ---------------------------------------------------------------------------

          1      2      3      4      5      6      7      8      9     10
         11     12     13     14     15     16     17     18     19     20
         21     22     23     24     25     26     27     28     29     30
 .........................................................................
   1  ****** ****** ****** ****** ****** ****** ****** ****** ****** ******
      ****** ****** ****** ****** ****** ****** ****** ****** ****** ******
      ****** ****** ****** ****** ****** ****** ****** ****** ****** ******
   2  ****** ****** ****** ****** ****** ****** ****** ****** ****** ******
      ****** ****** ****** ****** ****** ****** ****** ****** ****** ******
      ****** ****** ****** ****** ****** ****** ****** ****** ****** ******
   3  ****** ****** ****** ****** ****** ****** ****** ****** ****** ******
      ****** ****** ****** ****** ****** ****** ****** ****** ****** ******
      ****** ****** ****** ****** ****** ****** ****** ****** ****** ******
   4  ****** ****** ****** ****** ****** ****** ****** ****** ****** ******
      ****** ****** ****** ****** ****** ****** ****** ****** ****** ******
      ****** ****** ****** ****** ****** ****** ****** ****** ****** ******
   5  ****** ****** ****** ****** ****** ****** ****** ****** ****** ******
      ****** ****** ****** ****** ****** ****** ****** ****** ****** ******
      ****** ****** ****** ****** ****** ****** ****** ****** ****** ******
   6  ****** ****** ****** ****** ****** ****** ****** ****** ****** ******
      ****** ****** ****** ****** ****** ****** ****** ****** ****** ******
      ****** ****** ****** ****** ****** ****** ****** ****** ****** ******
   7  ****** ****** ****** ****** ****** ****** ****** ****** ****** ******
      ****** ****** ****** ****** ****** ****** ****** ****** ****** ******
      ****** ****** ****** ****** ****** ****** ****** ****** ****** ******
   8  ****** ****** ****** ****** ****** ****** ****** ****** ****** ******
      ****** ****** ****** ****** ****** ****** ****** ****** ****** ******
      ****** ****** ****** ****** ****** ****** ****** ****** ****** ******
   9  ****** ****** ****** ****** ****** ****** ****** ****** ****** ******
      ****** ****** ****** ****** ****** ****** ****** ****** ****** ******
      ****** ****** ****** ****** ****** ****** ****** ****** ****** ******
  10  ****** ****** ****** ****** ****** ****** ****** ****** ****** ******
      ****** ****** ****** ****** ****** ****** ****** ****** ****** ******
      ****** ****** ****** ****** ****** ****** ****** ****** ****** ******
  11  ****** ****** ****** ****** ****** ****** ****** ****** ****** ******
      ****** ****** ****** ****** ****** ****** ****** ****** ****** ******
      ****** ****** ****** ****** ****** ****** ****** ****** ****** ******
  12  ****** ****** ****** ****** ****** ****** ****** ****** ****** ******
      ****** ****** ****** ****** ****** ****** ****** ****** ****** ******
      ****** ****** ****** ****** ****** ****** ****** ****** ****** ******
  13  ****** ****** ****** ****** ****** ****** ****** ****** ****** ******
      ****** ****** ****** ****** ****** ****** ****** ****** ****** ******
      ****** ****** ****** ****** ****** ****** ****** ****** ****** ******
  14  ****** ****** ****** ****** ****** ****** ****** ****** ****** ******
      ****** ****** ****** ****** ****** ****** ****** ****** ****** ******
      ****** ****** ****** ****** ****** ****** ****** ****** ****** ******
  15  ****** ****** ****** ****** ****** ****** ****** ****** ****** ******
      ****** ****** ****** ****** ****** ****** ****** ****** ****** ******
      ****** ****** ****** ****** ****** ****** ****** ****** ****** ******
  16  ****** ****** ****** ****** ****** ****** ****** ****** ****** ******
      ****** ****** ****** ****** ****** ****** ****** ****** ****** ******
      ****** ****** ****** ****** ****** ****** ****** ****** ****** ******
  17  ****** ****** ****** ****** ****** ****** ****** ****** ****** ******
      ****** ****** ****** ****** ****** ****** ****** ****** ****** ******
      ****** ****** ****** ****** ****** ****** ****** ****** ****** ******
  18  ****** ****** ****** ****** ****** ****** ****** ****** ****** ******
      ****** ****** ****** ****** ****** ****** ****** ****** ****** ******
      ****** ****** ****** ****** ****** ****** ****** ****** ****** ******
  19  ****** ****** ****** ****** ****** ****** ****** ****** ****** ******
      ****** ****** ****** ****** ****** ****** ****** ****** ****** ******
      ****** ****** ****** ****** ****** ****** ****** ****** ****** ******
  20  ****** ****** ****** ****** ****** ****** ****** ****** ****** ******
      ****** ****** ****** ****** ****** ****** ****** ****** ****** ******
      ****** ****** ****** ****** ****** ****** ****** ****** ****** ******
  21  ****** ****** ****** ****** ****** ****** ****** ****** ****** ******
      ****** ****** ****** ****** ****** ****** ****** ****** ****** ******
      ****** ****** ****** ****** ****** ****** ****** ****** ****** ******
  22  ****** ****** ****** ****** ****** ****** ****** ****** ****** ******
      ****** ****** ****** ****** ****** ****** ****** ****** ****** ******
      ****** ****** ****** ****** ****** ****** ****** ****** ****** ******
  23  ****** ****** ****** ****** ****** ****** ****** ****** ****** ******
      ****** ****** ****** ****** ****** ****** ****** ****** ****** ******
      ****** ****** ****** ****** ****** ****** ****** ****** ****** ******
  24  ****** ****** ****** ****** ****** ****** ****** ****** ****** ******
      ****** ****** ****** ****** ****** ****** ****** ****** ****** ******
      ****** ****** ****** ****** ****** ****** ****** ****** ****** ******
  25  ****** ****** ****** ****** ****** ****** ****** ****** ****** ******
      ****** ****** ****** ****** ****** ****** ****** ****** ****** ******
      ****** ****** ****** ****** ****** ****** ****** ****** ****** ******

 HEAD WILL BE SAVED ON UNIT   51 AT END OF TIME STEP    1, STRESS PERIOD   11
1
  VOLUMETRIC BUDGET FOR ENTIRE MODEL AT END OF TIME STEP    1, STRESS PERIOD  11
  ------------------------------------------------------------------------------

     CUMULATIVE VOLUMES      L**3       RATES FOR THIS TIME STEP      L**3/T
     ------------------                 ------------------------

           IN:                                      IN:
           ---                                      ---
             STORAGE =    26302342.5410               STORAGE =       11849.8200
       CONSTANT HEAD =   170611162.5868         CONSTANT HEAD =      181836.1013
               WELLS =           0.0000                 WELLS =           0.0000
            RECHARGE =    23901600.0000              RECHARGE =           0.0000
      STREAM LEAKAGE =     6863556.9071        STREAM LEAKAGE =        7167.1980

            TOTAL IN =   227678662.0349              TOTAL IN =      200853.1193

          OUT:                                     OUT:
          ----                                     ----
             STORAGE =     2247939.2358               STORAGE =           0.0000
       CONSTANT HEAD =           0.0000         CONSTANT HEAD =           0.0000
               WELLS =    91158672.3538                 WELLS =       90795.4904
            RECHARGE =           0.0000              RECHARGE =           0.0000
      STREAM LEAKAGE =   134272051.5133        STREAM LEAKAGE =      110057.6311

           TOTAL OUT =   227678663.1029             TOTAL OUT =      200853.1215

            IN - OUT =          -1.0680              IN - OUT =      -2.2021E-03

 PERCENT DISCREPANCY =          -0.00     PERCENT DISCREPANCY =          -0.00






         TIME SUMMARY AT END OF TIME STEP    1 IN STRESS PERIOD   11
                    SECONDS     MINUTES      HOURS       DAYS        YEARS
                    -----------------------------------------------------------
   TIME STEP LENGTH 7.86240E+06 1.31040E+05  2184.0      91.000     0.24914    
 STRESS PERIOD TIME 7.86240E+06 1.31040E+05  2184.0      91.000     0.24914    
         TOTAL TIME 8.67456E+07 1.44576E+06  24096.      1004.0      2.7488    
1
1
                            STRESS PERIOD NO.   12, LENGTH =   91.00000    
                            -----------------------------------------------

                              NUMBER OF TIME STEPS =     1

                               MULTIPLIER FOR DELT =     1.500

                            INITIAL TIME STEP SIZE =   91.00000    

 WELL NO.  LAYER   ROW   COL   STRESS RATE         
 --------------------------------------------------
      1      1     21     15      -9504.    
      2      1     23     15     -0.2528E+05
      3      1     23     11     -0.3338E+05
      4      1     21     17     -0.2263E+05

      4 WELLS

                 RECHARGE =  1.000000E-03

 REUSING STREAM SEGMENT DATA FROM LAST STRESS PERIOD
 
 SOLVING FOR HEAD 


     6 CALLS TO PCG ROUTINE FOR TIME STEP   1 IN STRESS PERIOD   12
    23 TOTAL ITERATIONS

 OUTPUT CONTROL FOR STRESS PERIOD   12   TIME STEP    1
    SAVE BUDGET
    SAVE HEAD FOR ALL LAYERS
    PRINT HEAD FOR ALL LAYERS
 UBDSV2 SAVING "STREAMFLOW OUT  " ON UNIT  50 AT TIME STEP  1, STRESS PERIOD  12



 STREAM LISTING     PERIOD     12   STEP        1

 LAYER ROW COL. STREAM  RCH.  FLOW INTO     FLOW TO   FLOW OUT OF   OVRLND.     DIRECT     STREAM       STREAM     STREAM     STREAM   STREAMBED  STREAMBED
                SEG.NO.  NO.  STRM. RCH.    AQUIFER    STRM. RCH.    RUNOFF     PRECIP       ET          HEAD       DEPTH      WIDTH   CONDCTNC.   GRADIENT

   1   13    1     1     1    1.0000E+05 -2.7935E+03   1.0279E+05  0.000E+00  0.000E+00  0.000E+00  4.84072E+01  1.459E-01  2.000E+01  2.000E+04 -1.397E-01
   1   13    2     1     2    1.0279E+05 -4.7378E+03   1.0753E+05  0.000E+00  0.000E+00  0.000E+00  4.79332E+01  1.491E-01  2.000E+01  2.000E+04 -2.369E-01
   1   14    3     1     3    1.0753E+05 -3.7156E+03   1.1125E+05  0.000E+00  0.000E+00  0.000E+00  4.74595E+01  1.527E-01  2.000E+01  2.000E+04 -1.858E-01
   1   15    4     1     4    1.1125E+05 -3.5106E+03   1.1476E+05  0.000E+00  0.000E+00  0.000E+00  4.69852E+01  1.557E-01  2.000E+01  2.000E+04 -1.755E-01
   1   16    5     1     5    1.1476E+05 -3.5106E+03   1.1827E+05  0.000E+00  0.000E+00  0.000E+00  4.65108E+01  1.585E-01  2.000E+01  2.000E+04 -1.755E-01
   1   16    6     1     6    1.1827E+05 -2.7002E+03   1.2097E+05  0.000E+00  0.000E+00  0.000E+00  4.60361E+01  1.611E-01  2.000E+01  2.000E+04 -1.350E-01
   1   16    7     1     7    1.2097E+05 -2.6249E+03   1.2359E+05  0.000E+00  0.000E+00  0.000E+00  4.55609E+01  1.632E-01  2.000E+01  2.000E+04 -1.312E-01
   1   16    8     1     8    1.2359E+05 -2.4742E+03   1.2607E+05  0.000E+00  0.000E+00  0.000E+00  4.50857E+01  1.652E-01  2.000E+01  2.000E+04 -1.237E-01
   1   16    9     1     9    1.2607E+05 -2.2418E+03   1.2831E+05  0.000E+00  0.000E+00  0.000E+00  4.46103E+01  1.671E-01  2.000E+01  2.000E+04 -1.121E-01
   1   16   10     1    10    1.2831E+05 -1.9314E+03   1.3024E+05  0.000E+00  0.000E+00  0.000E+00  4.41347E+01  1.687E-01  2.000E+01  2.000E+04 -9.657E-02
   1   16   11     1    11    1.3024E+05 -1.5288E+03   1.3177E+05  0.000E+00  0.000E+00  0.000E+00  4.36587E+01  1.701E-01  2.000E+01  2.000E+04 -7.644E-02
   1   16   12     1    12    1.3177E+05 -9.6929E+02   1.3274E+05  0.000E+00  0.000E+00  0.000E+00  4.31824E+01  1.711E-01  2.000E+01  2.000E+04 -4.846E-02
   1   15   13     1    13    1.3274E+05 -1.7930E+03   1.3453E+05  0.000E+00  0.000E+00  0.000E+00  4.27062E+01  1.721E-01  2.000E+01  2.000E+04 -8.965E-02
   1   14   14     1    14    1.3453E+05 -2.4904E+03   1.3702E+05  0.000E+00  0.000E+00  0.000E+00  4.22306E+01  1.738E-01  2.000E+01  2.000E+04 -1.245E-01
   1   13   15     1    15    1.3702E+05 -3.3243E+03   1.4035E+05  0.000E+00  0.000E+00  0.000E+00  4.17556E+01  1.760E-01  2.000E+01  2.000E+04 -1.662E-01
   1   12   16     1    16    1.4035E+05 -5.1009E+03   1.4545E+05  0.000E+00  0.000E+00  0.000E+00  4.12815E+01  1.792E-01  2.000E+01  2.000E+04 -2.550E-01
   1   12   17     1    17    1.4545E+05 -3.1372E+03   1.4858E+05  0.000E+00  0.000E+00  0.000E+00  4.08073E+01  1.823E-01  2.000E+01  2.000E+04 -1.569E-01
   1   12   18     1    18    1.4858E+05 -3.0229E+03   1.5161E+05  0.000E+00  0.000E+00  0.000E+00  4.03323E+01  1.846E-01  2.000E+01  2.000E+04 -1.511E-01
   1   12   19     1    19    1.5161E+05 -4.2142E+03   1.5582E+05  0.000E+00  0.000E+00  0.000E+00  3.98577E+01  1.872E-01  2.000E+01  2.000E+04 -2.107E-01
   1   13   20     1    20    1.5582E+05 -2.2230E+03   1.5804E+05  0.000E+00  0.000E+00  0.000E+00  3.93827E+01  1.896E-01  2.000E+01  2.000E+04 -1.111E-01
   1   14   21     1    21    1.5804E+05 -1.0897E+03   1.5913E+05  0.000E+00  0.000E+00  0.000E+00  3.89067E+01  1.908E-01  2.000E+01  2.000E+04 -5.448E-02
   1   14   22     1    22    1.5913E+05  5.0875E+03   1.5405E+05  0.000E+00  0.000E+00  0.000E+00  3.84280E+01  1.893E-01  2.000E+01  2.000E+04  2.544E-01
   1    9   30     2     1    5.0000E+04 -2.7809E+03   5.2781E+04  0.000E+00  0.000E+00  0.000E+00  4.02428E+01  1.178E-01  2.000E+01  2.000E+04 -1.390E-01
   1    9   29     2     2    5.2781E+04 -3.1126E+03   5.5894E+04  0.000E+00  0.000E+00  0.000E+00  3.99968E+01  1.218E-01  2.000E+01  2.000E+04 -1.556E-01
   1    9   28     2     3    5.5894E+04 -3.4930E+03   5.9386E+04  0.000E+00  0.000E+00  0.000E+00  3.97512E+01  1.262E-01  2.000E+01  2.000E+04 -1.746E-01
   1    9   27     2     4    5.9386E+04 -6.2192E+03   6.5606E+04  0.000E+00  0.000E+00  0.000E+00  3.95075E+01  1.325E-01  2.000E+01  2.000E+04 -3.110E-01
   1   10   26     2     5    6.5606E+04 -3.8519E+03   6.9458E+04  0.000E+00  0.000E+00  0.000E+00  3.92638E+01  1.388E-01  2.000E+01  2.000E+04 -1.926E-01
   1   11   25     2     6    6.9458E+04 -2.8077E+03   7.2265E+04  0.000E+00  0.000E+00  0.000E+00  3.90178E+01  1.428E-01  2.000E+01  2.000E+04 -1.404E-01
   1   12   24     2     7    7.2265E+04 -1.9615E+03   7.4227E+04  0.000E+00  0.000E+00  0.000E+00  3.87707E+01  1.457E-01  2.000E+01  2.000E+04 -9.808E-02
   1   13   23     2     8    7.4227E+04 -1.1348E+03   7.5362E+04  0.000E+00  0.000E+00  0.000E+00  3.85225E+01  1.475E-01  2.000E+01  2.000E+04 -5.674E-02
   1   14   22     2     9    7.5362E+04  1.9693E+03   7.3392E+04  0.000E+00  0.000E+00  0.000E+00  3.82720E+01  1.470E-01  2.000E+01  2.000E+04  9.846E-02
   1   14   22     3     1    2.2744E+05 -8.3866E+03   2.3583E+05  0.000E+00  0.000E+00  0.000E+00  3.77542E+01  1.987E-01  2.000E+01  2.000E+04 -4.193E-01
   1   15   23     3     2    2.3583E+05 -1.9804E+03   2.3781E+05  0.000E+00  0.000E+00  0.000E+00  3.68680E+01  2.013E-01  2.000E+01  2.000E+04 -9.902E-02
   1   15   24     3     3    2.3781E+05 -1.6685E+03   2.3947E+05  0.000E+00  0.000E+00  0.000E+00  3.59801E+01  2.023E-01  2.000E+01  2.000E+04 -8.342E-02
   1   15   25     3     4    2.3947E+05 -1.7071E+03   2.4118E+05  0.000E+00  0.000E+00  0.000E+00  3.50920E+01  2.031E-01  2.000E+01  2.000E+04 -8.536E-02
   1   15   26     3     5    2.4118E+05 -2.1925E+03   2.4337E+05  0.000E+00  0.000E+00  0.000E+00  3.42041E+01  2.041E-01  2.000E+01  2.000E+04 -1.096E-01
   1   16   27     3     6    2.4337E+05 -3.0021E+03   2.4638E+05  0.000E+00  0.000E+00  0.000E+00  3.33165E+01  2.054E-01  2.000E+01  2.000E+04 -1.501E-01
   1   17   28     3     7    2.4638E+05 -3.8429E+03   2.5022E+05  0.000E+00  0.000E+00  0.000E+00  3.24294E+01  2.071E-01  2.000E+01  2.000E+04 -1.921E-01
   1   18   29     3     8    2.5022E+05 -5.5381E+03   2.5576E+05  0.000E+00  0.000E+00  0.000E+00  3.15428E+01  2.095E-01  2.000E+01  2.000E+04 -2.769E-01
   1   18   30     3     9    2.5576E+05 -4.7336E+03   2.6049E+05  0.000E+00  0.000E+00  0.000E+00  3.06565E+01  2.120E-01  2.000E+01  2.000E+04 -2.367E-01



1
              HEAD IN LAYER   1 AT END OF TIME STEP   1 IN STRESS PERIOD   12
  ---------------------------------------------------------------------------

          1      2      3      4      5      6      7      8      9     10
         11     12     13     14     15     16     17     18     19     20
         21     22     23     24     25     26     27     28     29     30
 .........................................................................
   1  ****** ****** ****** ****** ****** ****** ****** ****** ****** ******
      ****** ****** ****** ****** ****** ****** ****** ****** ****** ******
      ****** ****** ****** ****** ****** ****** ****** ****** ****** ******
   2  ****** ****** ****** ****** ****** ****** ****** ****** ****** ******
      ****** ****** ****** ****** ****** ****** ****** ****** ****** ******
      ****** ****** ****** ****** ****** ****** ****** ****** ****** ******
   3  ****** ****** ****** ****** ****** ****** ****** ****** ****** ******
      ****** ****** ****** ****** ****** ****** ****** ****** ****** ******
      ****** ****** ****** ****** ****** ****** ****** ****** ****** ******
   4  ****** ****** ****** ****** ****** ****** ****** ****** ****** ******
      ****** ****** ****** ****** ****** ****** ****** ****** ****** ******
      ****** ****** ****** ****** ****** ****** ****** ****** ****** ******
   5  ****** ****** ****** ****** ****** ****** ****** ****** ****** ******
      ****** ****** ****** ****** ****** ****** ****** ****** ****** ******
      ****** ****** ****** ****** ****** ****** ****** ****** ****** ******
   6  ****** ****** ****** ****** ****** ****** ****** ****** ****** ******
      ****** ****** ****** ****** ****** ****** ****** ****** ****** ******
      ****** ****** ****** ****** ****** ****** ****** ****** ****** ******
   7  ****** ****** ****** ****** ****** ****** ****** ****** ****** ******
      ****** ****** ****** ****** ****** ****** ****** ****** ****** ******
      ****** ****** ****** ****** ****** ****** ****** ****** ****** ******
   8  ****** ****** ****** ****** ****** ****** ****** ****** ****** ******
      ****** ****** ****** ****** ****** ****** ****** ****** ****** ******
      ****** ****** ****** ****** ****** ****** ****** ****** ****** ******
   9  ****** ****** ****** ****** ****** ****** ****** ****** ****** ******
      ****** ****** ****** ****** ****** ****** ****** ****** ****** ******
      ****** ****** ****** ****** ****** ****** ****** ****** ****** ******
  10  ****** ****** ****** ****** ****** ****** ****** ****** ****** ******
      ****** ****** ****** ****** ****** ****** ****** ****** ****** ******
      ****** ****** ****** ****** ****** ****** ****** ****** ****** ******
  11  ****** ****** ****** ****** ****** ****** ****** ****** ****** ******
      ****** ****** ****** ****** ****** ****** ****** ****** ****** ******
      ****** ****** ****** ****** ****** ****** ****** ****** ****** ******
  12  ****** ****** ****** ****** ****** ****** ****** ****** ****** ******
      ****** ****** ****** ****** ****** ****** ****** ****** ****** ******
      ****** ****** ****** ****** ****** ****** ****** ****** ****** ******
  13  ****** ****** ****** ****** ****** ****** ****** ****** ****** ******
      ****** ****** ****** ****** ****** ****** ****** ****** ****** ******
      ****** ****** ****** ****** ****** ****** ****** ****** ****** ******
  14  ****** ****** ****** ****** ****** ****** ****** ****** ****** ******
      ****** ****** ****** ****** ****** ****** ****** ****** ****** ******
      ****** ****** ****** ****** ****** ****** ****** ****** ****** ******
  15  ****** ****** ****** ****** ****** ****** ****** ****** ****** ******
      ****** ****** ****** ****** ****** ****** ****** ****** ****** ******
      ****** ****** ****** ****** ****** ****** ****** ****** ****** ******
  16  ****** ****** ****** ****** ****** ****** ****** ****** ****** ******
      ****** ****** ****** ****** ****** ****** ****** ****** ****** ******
      ****** ****** ****** ****** ****** ****** ****** ****** ****** ******
  17  ****** ****** ****** ****** ****** ****** ****** ****** ****** ******
      ****** ****** ****** ****** ****** ****** ****** ****** ****** ******
      ****** ****** ****** ****** ****** ****** ****** ****** ****** ******
  18  ****** ****** ****** ****** ****** ****** ****** ****** ****** ******
      ****** ****** ****** ****** ****** ****** ****** ****** ****** ******
      ****** ****** ****** ****** ****** ****** ****** ****** ****** ******
  19  ****** ****** ****** ****** ****** ****** ****** ****** ****** ******
      ****** ****** ****** ****** ****** ****** ****** ****** ****** ******
      ****** ****** ****** ****** ****** ****** ****** ****** ****** ******
  20  ****** ****** ****** ****** ****** ****** ****** ****** ****** ******
      ****** ****** ****** ****** ****** ****** ****** ****** ****** ******
      ****** ****** ****** ****** ****** ****** ****** ****** ****** ******
  21  ****** ****** ****** ****** ****** ****** ****** ****** ****** ******
      ****** ****** ****** ****** ****** ****** ****** ****** ****** ******
      ****** ****** ****** ****** ****** ****** ****** ****** ****** ******
  22  ****** ****** ****** ****** ****** ****** ****** ****** ****** ******
      ****** ****** ****** ****** ****** ****** ****** ****** ****** ******
      ****** ****** ****** ****** ****** ****** ****** ****** ****** ******
  23  ****** ****** ****** ****** ****** ****** ****** ****** ****** ******
      ****** ****** ****** ****** ****** ****** ****** ****** ****** ******
      ****** ****** ****** ****** ****** ****** ****** ****** ****** ******
  24  ****** ****** ****** ****** ****** ****** ****** ****** ****** ******
      ****** ****** ****** ****** ****** ****** ****** ****** ****** ******
      ****** ****** ****** ****** ****** ****** ****** ****** ****** ******
  25  ****** ****** ****** ****** ****** ****** ****** ****** ****** ******
      ****** ****** ****** ****** ****** ****** ****** ****** ****** ******
      ****** ****** ****** ****** ****** ****** ****** ****** ****** ******

 HEAD WILL BE SAVED ON UNIT   51 AT END OF TIME STEP    1, STRESS PERIOD   12
1
  VOLUMETRIC BUDGET FOR ENTIRE MODEL AT END OF TIME STEP    1, STRESS PERIOD  12
  ------------------------------------------------------------------------------

     CUMULATIVE VOLUMES      L**3       RATES FOR THIS TIME STEP      L**3/T
     ------------------                 ------------------------

           IN:                                      IN:
           ---                                      ---
             STORAGE =    26302342.5410               STORAGE =           0.0000
       CONSTANT HEAD =   186756385.5996         CONSTANT HEAD =      177420.0331
               WELLS =           0.0000                 WELLS =           0.0000
            RECHARGE =    26413200.0000              RECHARGE =       27600.0000
      STREAM LEAKAGE =     7505720.2020        STREAM LEAKAGE =        7056.7395

            TOTAL IN =   246977648.3426              TOTAL IN =      212076.7726

          OUT:                                     OUT:
          ----                                     ----
             STORAGE =     2587703.5707               STORAGE =        3733.6740
       CONSTANT HEAD =           0.0000         CONSTANT HEAD =           0.0000
               WELLS =    99421061.9795                 WELLS =       90795.4904
            RECHARGE =           0.0000              RECHARGE =           0.0000
      STREAM LEAKAGE =   144968883.7814        STREAM LEAKAGE =      117547.6073

           TOTAL OUT =   246977649.3316             TOTAL OUT =      212076.7717

            IN - OUT =          -0.9890              IN - OUT =       8.6806E-04

 PERCENT DISCREPANCY =          -0.00     PERCENT DISCREPANCY =           0.00






         TIME SUMMARY AT END OF TIME STEP    1 IN STRESS PERIOD   12
                    SECONDS     MINUTES      HOURS       DAYS        YEARS
                    -----------------------------------------------------------
   TIME STEP LENGTH 7.86240E+06 1.31040E+05  2184.0      91.000     0.24914    
 STRESS PERIOD TIME 7.86240E+06 1.31040E+05  2184.0      91.000     0.24914    
         TOTAL TIME 9.46080E+07 1.57680E+06  26280.      1095.0      2.9979    
1

 Run end date and time (yyyy/mm/dd hh:mm:ss): 2018/10/10 13:12:21
 Elapsed run time:  0.060 Seconds

