                                  MODFLOW-2005     
      U.S. GEOLOGICAL SURVEY MODULAR FINITE-DIFFERENCE GROUND-WATER FLOW MODEL
                            VERSION 1.11.00 8/8/2013

 LIST FILE: supply2.lst
                         UNIT   10

 OPENING ..\data\supply.dis
 FILE TYPE:DIS   UNIT   11   STATUS:OLD    
 FORMAT:FORMATTED              ACCESS:SEQUENTIAL          

 OPENING ..\data\supply.ba6
 FILE TYPE:BAS6   UNIT   12   STATUS:OLD    
 FORMAT:FORMATTED              ACCESS:SEQUENTIAL          

 OPENING ..\data\supply_het.bc6
 FILE TYPE:BCF6   UNIT   13   STATUS:OLD    
 FORMAT:FORMATTED              ACCESS:SEQUENTIAL          

 OPENING ..\data\supply.rch
 FILE TYPE:RCH   UNIT   15   STATUS:OLD    
 FORMAT:FORMATTED              ACCESS:SEQUENTIAL          

 OPENING ..\data\supply2.sfr
 FILE TYPE:SFR   UNIT   16   STATUS:OLD    
 FORMAT:FORMATTED              ACCESS:SEQUENTIAL          

 OPENING ..\data\supply.oc
 FILE TYPE:OC   UNIT   17   STATUS:OLD    
 FORMAT:FORMATTED              ACCESS:SEQUENTIAL          

 OPENING ..\data\supply.pcg
 FILE TYPE:PCG   UNIT   18   STATUS:OLD    
 FORMAT:FORMATTED              ACCESS:SEQUENTIAL          

 OPENING supply2.wel
 FILE TYPE:WEL   UNIT   19   STATUS:OLD    
 FORMAT:FORMATTED              ACCESS:SEQUENTIAL          

 OPENING supply2sf.cbc
 FILE TYPE:DATA(BINARY)   UNIT   50   STATUS:UNKNOWN
 FORMAT:BINARY                 ACCESS:SEQUENTIAL          

 OPENING supply2hd.bhd
 FILE TYPE:DATA(BINARY)   UNIT   51   STATUS:UNKNOWN
 FORMAT:BINARY                 ACCESS:SEQUENTIAL          

 BAS -- BASIC PACKAGE, VERSION 7, 5/2/2005 INPUT READ FROM UNIT   12
 
 MODFLOW was compiled using uniform precision
 Precision of REAL and DOUBLE PRECISION variables:          15

 DISCRETIZATION INPUT DATA READ FROM UNIT   11
    1 LAYERS        25 ROWS        30 COLUMNS
   12 STRESS PERIOD(S) IN SIMULATION
 MODEL TIME UNIT IS DAYS
 MODEL LENGTH UNIT IS UNDEFINED
  Confining bed flag for each layer:
   0

                     DELR =   200.000    

                     DELC =   200.000    

 TOP ELEVATION OF LAYER 1 =  100.0000    

   MODEL LAYER BOTTOM EL. =   0.00000     FOR LAYER   1


 STRESS PERIOD     LENGTH       TIME STEPS     MULTIPLIER FOR DELT    SS FLAG
 ----------------------------------------------------------------------------
        1         92.00000          1                    1.500         TR
        2         91.00000          1                    1.500         TR
        3         91.00000          1                    1.500         TR
        4         91.00000          1                    1.500         TR
        5         92.00000          1                    1.500         TR
        6         91.00000          1                    1.500         TR
        7         91.00000          1                    1.500         TR
        8         91.00000          1                    1.500         TR
        9         92.00000          1                    1.500         TR
       10         91.00000          1                    1.500         TR
       11         91.00000          1                    1.500         TR
       12         91.00000          1                    1.500         TR

 TRANSIENT SIMULATION



 
 #MODOFC transient water supply sample problem                                   
 #                                                                               
 THE FREE FORMAT OPTION HAS BEEN SELECTED



                     BOUNDARY ARRAY FOR LAYER   1
 READING ON UNIT   12 WITH FORMAT: (20I4)              

 AQUIFER HEAD WILL BE SET TO   0.0000     AT ALL NO-FLOW NODES (IBOUND=0).



                       INITIAL HEAD FOR LAYER   1
 READING ON UNIT   12 WITH FORMAT: (10F13.0)           

 OUTPUT CONTROL IS SPECIFIED ONLY AT TIME STEPS FOR WHICH OUTPUT IS DESIRED
 COMPACT CELL-BY-CELL BUDGET FILES WILL BE WRITTEN
 HEAD PRINT FORMAT CODE IS  18    DRAWDOWN PRINT FORMAT CODE IS   0
 HEADS WILL BE SAVED ON UNIT   51    DRAWDOWNS WILL BE SAVED ON UNIT    0

 BCF -- BLOCK-CENTERED FLOW PACKAGE, VERSION 7, 5/2/2005
         INPUT READ FROM UNIT 13
 TRANSIENT SIMULATION
 HEAD AT CELLS THAT CONVERT TO DRY=   0.0000    
 WETTING CAPABILITY IS NOT ACTIVE
      LAYER  LAYER-TYPE CODE     INTERBLOCK T
      --------------------------------------------
         1            0          0 -- HARMONIC    

 COLUMN TO ROW ANISOTROPY =  1.000000    

     PRIMARY STORAGE COEF =  5.000000E-02 FOR LAYER   1



               TRANSMIS. ALONG ROWS FOR LAYER   1
 READING ON UNIT   13 WITH FORMAT: (FREE)              

 WEL -- WELL PACKAGE, VERSION 7, 5/2/2005 INPUT READ FROM UNIT   19
 # Well package input file written by MMProc
 No named parameters
 MAXIMUM OF      4 ACTIVE WELLS AT ONE TIME


     0 Well parameters

 RCH -- RECHARGE PACKAGE, VERSION 7, 5/2/2005 INPUT READ FROM UNIT   15
 No named parameters
 OPTION 1 -- RECHARGE TO TOP LAYER


     0 Recharge parameters

 SFR7 -- STREAMFLOW ROUTING PACKAGE, VERSION 1.0.7, 2013-01-15
         INPUT READ FROM UNIT  16
 #  Supply2 test problem for GWM-VI
 #  The eighth entry in the first data line is ISTCB2 -
 #    Setting this to a negative number indicates that
 #    streamflows out of the reach will be saved to a
 #    binary file.  The absolute value of ISTCB2 is the
 #    unit to which unformatted flows will be written.
 #
 No named parameters
 Segment information will not be 
 read by reach
 No named parameters
 No specifed inflow files


 NUMBER OF STREAM REACHES IS   40

 NUMBER OF STREAM SEGMENTS IS    3

 NUMBER OF STREAM PARAMETERS IS    0

 NUMBER OF STREAM SEGMENTS DEFINED USING PARAMETERS IS              0

 MAXIMUM ERROR FOR STREAM LEAKAGE RATES IS  1.00E-04

 CONSTANT FOR MANNINGS EQUATION IS  1.2839E+05





   STREAM NETWORK DESCRIPTION: 

   LAYER    ROW    COL   SEGMENT   REACH     LENGTH
                          NUMBER   NUMBER    IN CELL        
   --------------------------------------------------
      1     13      1       1        1    2.0000E+02
      1     13      2       1        2    2.0000E+02
      1     14      3       1        3    2.0000E+02
      1     15      4       1        4    2.0000E+02
      1     16      5       1        5    2.0000E+02
      1     16      6       1        6    2.0000E+02
      1     16      7       1        7    2.0000E+02
      1     16      8       1        8    2.0000E+02
      1     16      9       1        9    2.0000E+02
      1     16     10       1       10    2.0000E+02
      1     16     11       1       11    2.0000E+02
      1     16     12       1       12    2.0000E+02
      1     15     13       1       13    2.0000E+02
      1     14     14       1       14    2.0000E+02
      1     13     15       1       15    2.0000E+02
      1     12     16       1       16    2.0000E+02
      1     12     17       1       17    2.0000E+02
      1     12     18       1       18    2.0000E+02
      1     12     19       1       19    2.0000E+02
      1     13     20       1       20    2.0000E+02
      1     14     21       1       21    2.0000E+02
      1     14     22       1       22    2.0000E+02
      1      9     30       2        1    2.0000E+02
      1      9     29       2        2    2.0000E+02
      1      9     28       2        3    2.0000E+02
      1      9     27       2        4    2.0000E+02
      1     10     26       2        5    2.0000E+02
      1     11     25       2        6    2.0000E+02
      1     12     24       2        7    2.0000E+02
      1     13     23       2        8    2.0000E+02
      1     14     22       2        9    2.0000E+02
      1     14     22       3        1    2.0000E+02
      1     15     23       3        2    2.0000E+02
      1     15     24       3        3    2.0000E+02
      1     15     25       3        4    2.0000E+02
      1     15     26       3        5    2.0000E+02
      1     16     27       3        6    2.0000E+02
      1     17     28       3        7    2.0000E+02
      1     18     29       3        8    2.0000E+02
      1     18     30       3        9    2.0000E+02




 PCG -- CONJUGATE-GRADIENT SOLUTION PACKAGE, VERSION 7, 5/2/2005
 MAXIMUM OF    500 CALLS OF SOLUTION ROUTINE
 MAXIMUM OF      5 INTERNAL ITERATIONS PER CALL TO SOLUTION ROUTINE
 MATRIX PRECONDITIONING TYPE :    1



                                    SOLUTION BY THE CONJUGATE-GRADIENT METHOD
                                   -------------------------------------------
                    MAXIMUM NUMBER OF CALLS TO PCG ROUTINE =      500
                        MAXIMUM ITERATIONS PER CALL TO PCG =        5
                               MATRIX PRECONDITIONING TYPE =        1
        RELAXATION FACTOR (ONLY USED WITH PRECOND. TYPE 1) =    0.10000E+01
 PARAMETER OF POLYNOMIAL PRECOND. = 2 (2) OR IS CALCULATED :        0
                         HEAD CHANGE CRITERION FOR CLOSURE =    0.10000E-05
                     RESIDUAL CHANGE CRITERION FOR CLOSURE =    0.10000E+01
            PCG HEAD AND RESIDUAL CHANGE PRINTOUT INTERVAL =        1
     PRINTING FROM SOLVER IS LIMITED(1) OR SUPPRESSED (>1) =        1
                            STEADY-STATE DAMPING PARAMETER =    0.10000E+01
                               TRANSIENT DAMPING PARAMETER =    0.10000E+01
1
                            STRESS PERIOD NO.    1, LENGTH =   92.00000    
                            -----------------------------------------------

                              NUMBER OF TIME STEPS =     1

                               MULTIPLIER FOR DELT =     1.500

                            INITIAL TIME STEP SIZE =   92.00000    

 WELL NO.  LAYER   ROW   COL   STRESS RATE         
 --------------------------------------------------
      1      1     11     21     -0.1135E+05
      2      1     18     20      -9351.    
      3      1     16     28     -0.1298E+05
      4      1     10     28     -0.1044E+05

      4 WELLS

                 RECHARGE =  5.000000E-04



 CLASSIFICATION & COUNT OF STREAM SEGMENTS BASED ON SOURCE OF INFLOW:

                HEADWATER     DIVERSION     RECEIVES TRIBUTARY FLOW
                ---------     ---------     -----------------------
                     2              0               1



                    INPUT DATA FOR EACH STREAM SEGMENT
 ---------------------------------------------------------------------------------------------

 SEGMENT    SEG.     INFLOW   OVERLAND   STREAM    STREAM   ICALC  OUTFLOW  DIVERSION PRIORITY
    NO.    LENGTH     RATE     RUNOFF      ET       PPT.    METH.  TO SEG.  FROM SEG.    NO.

      1  4.400E+03 1.000E+05 0.000E+00 0.000E+00 0.000E+00    1        3        0        0
      2  1.800E+03 5.000E+04 0.000E+00 0.000E+00 0.000E+00    1        3        0        0
      3  1.800E+03 0.000E+00 0.000E+00 0.000E+00 0.000E+00    1        0        0        0


         STREAMBED PROPERTIES AND STREAM DIMENSIONS

 SEGMENT     BED HYD. COND.      BED THICKNESS     ELEV.-TOP OF BED     WIDTH OF STREAM     DEPTH OF STREAM    STREAM ROUGHNESS
    No.     UPPER     LOWER     UPPER     LOWER     UPPER     LOWER     UPPER     LOWER     UPPER     LOWER   CHANNEL      BANK

     1  5.000E+00 5.000E+00 1.000E+00 1.000E+00 4.850E+01 3.800E+01 2.000E+01 2.000E+01                     5.000E-02
     2  5.000E+00 5.000E+00 1.000E+00 1.000E+00 4.025E+01 3.800E+01 2.000E+01 2.000E+01                     5.000E-02
     3  5.000E+00 5.000E+00 1.000E+00 1.000E+00 3.800E+01 3.000E+01 2.000E+01 2.000E+01                     5.000E-02



 
 SOLVING FOR HEAD 


     9 CALLS TO PCG ROUTINE FOR TIME STEP   1 IN STRESS PERIOD    1
    36 TOTAL ITERATIONS

 OUTPUT CONTROL FOR STRESS PERIOD    1   TIME STEP    1
    SAVE BUDGET
    SAVE HEAD FOR ALL LAYERS
    PRINT HEAD FOR ALL LAYERS
 UBDSV2 SAVING "STREAMFLOW OUT  " ON UNIT  50 AT TIME STEP  1, STRESS PERIOD   1



 STREAM LISTING     PERIOD      1   STEP        1

 LAYER ROW COL. STREAM  RCH.  FLOW INTO     FLOW TO   FLOW OUT OF   OVRLND.     DIRECT     STREAM       STREAM     STREAM     STREAM   STREAMBED  STREAMBED
                SEG.NO.  NO.  STRM. RCH.    AQUIFER    STRM. RCH.    RUNOFF     PRECIP       ET          HEAD       DEPTH      WIDTH   CONDCTNC.   GRADIENT

   1   13    1     1     1    1.0000E+05 -6.1225E+03   1.0612E+05  0.000E+00  0.000E+00  0.000E+00  4.84087E+01  1.473E-01  2.000E+01  2.000E+04 -3.061E-01
   1   13    2     1     2    1.0612E+05 -7.5922E+03   1.1371E+05  0.000E+00  0.000E+00  0.000E+00  4.79372E+01  1.531E-01  2.000E+01  2.000E+04 -3.796E-01
   1   14    3     1     3    1.1371E+05 -2.1987E+03   1.1591E+05  0.000E+00  0.000E+00  0.000E+00  4.74640E+01  1.572E-01  2.000E+01  2.000E+04 -1.099E-01
   1   15    4     1     4    1.1591E+05 -2.2696E+03   1.1818E+05  0.000E+00  0.000E+00  0.000E+00  4.69885E+01  1.590E-01  2.000E+01  2.000E+04 -1.135E-01
   1   16    5     1     5    1.1818E+05 -7.1765E+03   1.2536E+05  0.000E+00  0.000E+00  0.000E+00  4.65151E+01  1.628E-01  2.000E+01  2.000E+04 -3.588E-01
   1   16    6     1     6    1.2536E+05 -4.2960E+03   1.2966E+05  0.000E+00  0.000E+00  0.000E+00  4.60424E+01  1.674E-01  2.000E+01  2.000E+04 -2.148E-01
   1   16    7     1     7    1.2966E+05 -4.1280E+03   1.3378E+05  0.000E+00  0.000E+00  0.000E+00  4.55684E+01  1.707E-01  2.000E+01  2.000E+04 -2.064E-01
   1   16    8     1     8    1.3378E+05 -4.0826E+03   1.3787E+05  0.000E+00  0.000E+00  0.000E+00  4.50943E+01  1.738E-01  2.000E+01  2.000E+04 -2.041E-01
   1   16    9     1     9    1.3787E+05 -4.0648E+03   1.4193E+05  0.000E+00  0.000E+00  0.000E+00  4.46201E+01  1.769E-01  2.000E+01  2.000E+04 -2.032E-01
   1   16   10     1    10    1.4193E+05 -4.0506E+03   1.4598E+05  0.000E+00  0.000E+00  0.000E+00  4.41459E+01  1.800E-01  2.000E+01  2.000E+04 -2.025E-01
   1   16   11     1    11    1.4598E+05 -4.0646E+03   1.5005E+05  0.000E+00  0.000E+00  0.000E+00  4.36717E+01  1.830E-01  2.000E+01  2.000E+04 -2.032E-01
   1   16   12     1    12    1.5005E+05 -6.8288E+03   1.5687E+05  0.000E+00  0.000E+00  0.000E+00  4.31984E+01  1.870E-01  2.000E+01  2.000E+04 -3.414E-01
   1   15   13     1    13    1.5687E+05 -7.1340E+03   1.6401E+05  0.000E+00  0.000E+00  0.000E+00  4.27262E+01  1.921E-01  2.000E+01  2.000E+04 -3.567E-01
   1   14   14     1    14    1.6401E+05 -7.6170E+03   1.7163E+05  0.000E+00  0.000E+00  0.000E+00  4.22542E+01  1.973E-01  2.000E+01  2.000E+04 -3.808E-01
   1   13   15     1    15    1.7163E+05 -7.9699E+03   1.7960E+05  0.000E+00  0.000E+00  0.000E+00  4.17823E+01  2.028E-01  2.000E+01  2.000E+04 -3.985E-01
   1   12   16     1    16    1.7960E+05 -8.6441E+03   1.8824E+05  0.000E+00  0.000E+00  0.000E+00  4.13108E+01  2.085E-01  2.000E+01  2.000E+04 -4.322E-01
   1   12   17     1    17    1.8824E+05 -5.9761E+03   1.9422E+05  0.000E+00  0.000E+00  0.000E+00  4.08384E+01  2.134E-01  2.000E+01  2.000E+04 -2.988E-01
   1   12   18     1    18    1.9422E+05 -5.5868E+03   1.9980E+05  0.000E+00  0.000E+00  0.000E+00  4.03650E+01  2.173E-01  2.000E+01  2.000E+04 -2.793E-01
   1   12   19     1    19    1.9980E+05 -5.8631E+03   2.0567E+05  0.000E+00  0.000E+00  0.000E+00  3.98915E+01  2.210E-01  2.000E+01  2.000E+04 -2.932E-01
   1   13   20     1    20    2.0567E+05 -4.8543E+03   2.1052E+05  0.000E+00  0.000E+00  0.000E+00  3.94177E+01  2.245E-01  2.000E+01  2.000E+04 -2.427E-01
   1   14   21     1    21    2.1052E+05 -4.9002E+03   2.1542E+05  0.000E+00  0.000E+00  0.000E+00  3.89436E+01  2.277E-01  2.000E+01  2.000E+04 -2.450E-01
   1   14   22     1    22    2.1542E+05  4.1413E+03   2.1128E+05  0.000E+00  0.000E+00  0.000E+00  3.84666E+01  2.279E-01  2.000E+01  2.000E+04  2.071E-01
   1    9   30     2     1    5.0000E+04 -3.7969E+03   5.3797E+04  0.000E+00  0.000E+00  0.000E+00  4.02435E+01  1.185E-01  2.000E+01  2.000E+04 -1.898E-01
   1    9   29     2     2    5.3797E+04 -3.4768E+03   5.7274E+04  0.000E+00  0.000E+00  0.000E+00  3.99984E+01  1.234E-01  2.000E+01  2.000E+04 -1.738E-01
   1    9   28     2     3    5.7274E+04 -1.7730E+03   5.9047E+04  0.000E+00  0.000E+00  0.000E+00  3.97519E+01  1.269E-01  2.000E+01  2.000E+04 -8.865E-02
   1    9   27     2     4    5.9047E+04 -6.8182E+03   6.5865E+04  0.000E+00  0.000E+00  0.000E+00  3.95074E+01  1.324E-01  2.000E+01  2.000E+04 -3.409E-01
   1   10   26     2     5    6.5865E+04 -5.3847E+03   7.1250E+04  0.000E+00  0.000E+00  0.000E+00  3.92650E+01  1.400E-01  2.000E+01  2.000E+04 -2.692E-01
   1   11   25     2     6    7.1250E+04 -5.5411E+03   7.6791E+04  0.000E+00  0.000E+00  0.000E+00  3.90216E+01  1.466E-01  2.000E+01  2.000E+04 -2.771E-01
   1   12   24     2     7    7.6791E+04 -4.9508E+03   8.1742E+04  0.000E+00  0.000E+00  0.000E+00  3.87778E+01  1.528E-01  2.000E+01  2.000E+04 -2.475E-01
   1   13   23     2     8    8.1742E+04 -1.3877E+03   8.3129E+04  0.000E+00  0.000E+00  0.000E+00  3.85314E+01  1.564E-01  2.000E+01  2.000E+04 -6.938E-02
   1   14   22     2     9    8.3129E+04  4.4890E+02   8.2680E+04  0.000E+00  0.000E+00  0.000E+00  3.82819E+01  1.569E-01  2.000E+01  2.000E+04  2.245E-02
   1   14   22     3     1    2.9396E+05 -9.4500E+03   3.0341E+05  0.000E+00  0.000E+00  0.000E+00  3.77870E+01  2.314E-01  2.000E+01  2.000E+04 -4.725E-01
   1   15   23     3     2    3.0341E+05 -1.8197E+03   3.0523E+05  0.000E+00  0.000E+00  0.000E+00  3.69007E+01  2.340E-01  2.000E+01  2.000E+04 -9.098E-02
   1   15   24     3     3    3.0523E+05 -1.4946E+03   3.0672E+05  0.000E+00  0.000E+00  0.000E+00  3.60126E+01  2.348E-01  2.000E+01  2.000E+04 -7.473E-02
   1   15   25     3     4    3.0672E+05 -1.5464E+03   3.0827E+05  0.000E+00  0.000E+00  0.000E+00  3.51244E+01  2.355E-01  2.000E+01  2.000E+04 -7.732E-02
   1   15   26     3     5    3.0827E+05 -1.6665E+03   3.0994E+05  0.000E+00  0.000E+00  0.000E+00  3.42362E+01  2.362E-01  2.000E+01  2.000E+04 -8.332E-02
   1   16   27     3     6    3.0994E+05 -8.8669E+02   3.1082E+05  0.000E+00  0.000E+00  0.000E+00  3.33479E+01  2.368E-01  2.000E+01  2.000E+04 -4.433E-02
   1   17   28     3     7    3.1082E+05  1.9937E+02   3.1062E+05  0.000E+00  0.000E+00  0.000E+00  3.24592E+01  2.370E-01  2.000E+01  2.000E+04  9.968E-03
   1   18   29     3     8    3.1062E+05 -6.8374E+03   3.1746E+05  0.000E+00  0.000E+00  0.000E+00  3.15718E+01  2.385E-01  2.000E+01  2.000E+04 -3.419E-01
   1   18   30     3     9    3.1746E+05 -6.1111E+03   3.2357E+05  0.000E+00  0.000E+00  0.000E+00  3.06859E+01  2.414E-01  2.000E+01  2.000E+04 -3.056E-01



1
              HEAD IN LAYER   1 AT END OF TIME STEP   1 IN STRESS PERIOD    1
  ---------------------------------------------------------------------------

          1      2      3      4      5      6      7      8      9     10
         11     12     13     14     15     16     17     18     19     20
         21     22     23     24     25     26     27     28     29     30
 .........................................................................
   1  ****** ****** ****** ****** ****** ****** ****** ****** ****** ******
      ****** ****** ****** ****** ****** ****** ****** ****** ****** ******
      ****** ****** ****** ****** ****** ****** ****** ****** ****** ******
   2  ****** ****** ****** ****** ****** ****** ****** ****** ****** ******
      ****** ****** ****** ****** ****** ****** ****** ****** ****** ******
      ****** ****** ****** ****** ****** ****** ****** ****** ****** ******
   3  ****** ****** ****** ****** ****** ****** ****** ****** ****** ******
      ****** ****** ****** ****** ****** ****** ****** ****** ****** ******
      ****** ****** ****** ****** ****** ****** ****** ****** ****** ******
   4  ****** ****** ****** ****** ****** ****** ****** ****** ****** ******
      ****** ****** ****** ****** ****** ****** ****** ****** ****** ******
      ****** ****** ****** ****** ****** ****** ****** ****** ****** ******
   5  ****** ****** ****** ****** ****** ****** ****** ****** ****** ******
      ****** ****** ****** ****** ****** ****** ****** ****** ****** ******
      ****** ****** ****** ****** ****** ****** ****** ****** ****** ******
   6  ****** ****** ****** ****** ****** ****** ****** ****** ****** ******
      ****** ****** ****** ****** ****** ****** ****** ****** ****** ******
      ****** ****** ****** ****** ****** ****** ****** ****** ****** ******
   7  ****** ****** ****** ****** ****** ****** ****** ****** ****** ******
      ****** ****** ****** ****** ****** ****** ****** ****** ****** ******
      ****** ****** ****** ****** ****** ****** ****** ****** ****** ******
   8  ****** ****** ****** ****** ****** ****** ****** ****** ****** ******
      ****** ****** ****** ****** ****** ****** ****** ****** ****** ******
      ****** ****** ****** ****** ****** ****** ****** ****** ****** ******
   9  ****** ****** ****** ****** ****** ****** ****** ****** ****** ******
      ****** ****** ****** ****** ****** ****** ****** ****** ****** ******
      ****** ****** ****** ****** ****** ****** ****** ****** ****** ******
  10  ****** ****** ****** ****** ****** ****** ****** ****** ****** ******
      ****** ****** ****** ****** ****** ****** ****** ****** ****** ******
      ****** ****** ****** ****** ****** ****** ****** ****** ****** ******
  11  ****** ****** ****** ****** ****** ****** ****** ****** ****** ******
      ****** ****** ****** ****** ****** ****** ****** ****** ****** ******
      ****** ****** ****** ****** ****** ****** ****** ****** ****** ******
  12  ****** ****** ****** ****** ****** ****** ****** ****** ****** ******
      ****** ****** ****** ****** ****** ****** ****** ****** ****** ******
      ****** ****** ****** ****** ****** ****** ****** ****** ****** ******
  13  ****** ****** ****** ****** ****** ****** ****** ****** ****** ******
      ****** ****** ****** ****** ****** ****** ****** ****** ****** ******
      ****** ****** ****** ****** ****** ****** ****** ****** ****** ******
  14  ****** ****** ****** ****** ****** ****** ****** ****** ****** ******
      ****** ****** ****** ****** ****** ****** ****** ****** ****** ******
      ****** ****** ****** ****** ****** ****** ****** ****** ****** ******
  15  ****** ****** ****** ****** ****** ****** ****** ****** ****** ******
      ****** ****** ****** ****** ****** ****** ****** ****** ****** ******
      ****** ****** ****** ****** ****** ****** ****** ****** ****** ******
  16  ****** ****** ****** ****** ****** ****** ****** ****** ****** ******
      ****** ****** ****** ****** ****** ****** ****** ****** ****** ******
      ****** ****** ****** ****** ****** ****** ****** ****** ****** ******
  17  ****** ****** ****** ****** ****** ****** ****** ****** ****** ******
      ****** ****** ****** ****** ****** ****** ****** ****** ****** ******
      ****** ****** ****** ****** ****** ****** ****** ****** ****** ******
  18  ****** ****** ****** ****** ****** ****** ****** ****** ****** ******
      ****** ****** ****** ****** ****** ****** ****** ****** ****** ******
      ****** ****** ****** ****** ****** ****** ****** ****** ****** ******
  19  ****** ****** ****** ****** ****** ****** ****** ****** ****** ******
      ****** ****** ****** ****** ****** ****** ****** ****** ****** ******
      ****** ****** ****** ****** ****** ****** ****** ****** ****** ******
  20  ****** ****** ****** ****** ****** ****** ****** ****** ****** ******
      ****** ****** ****** ****** ****** ****** ****** ****** ****** ******
      ****** ****** ****** ****** ****** ****** ****** ****** ****** ******
  21  ****** ****** ****** ****** ****** ****** ****** ****** ****** ******
      ****** ****** ****** ****** ****** ****** ****** ****** ****** ******
      ****** ****** ****** ****** ****** ****** ****** ****** ****** ******
  22  ****** ****** ****** ****** ****** ****** ****** ****** ****** ******
      ****** ****** ****** ****** ****** ****** ****** ****** ****** ******
      ****** ****** ****** ****** ****** ****** ****** ****** ****** ******
  23  ****** ****** ****** ****** ****** ****** ****** ****** ****** ******
      ****** ****** ****** ****** ****** ****** ****** ****** ****** ******
      ****** ****** ****** ****** ****** ****** ****** ****** ****** ******
  24  ****** ****** ****** ****** ****** ****** ****** ****** ****** ******
      ****** ****** ****** ****** ****** ****** ****** ****** ****** ******
      ****** ****** ****** ****** ****** ****** ****** ****** ****** ******
  25  ****** ****** ****** ****** ****** ****** ****** ****** ****** ******
      ****** ****** ****** ****** ****** ****** ****** ****** ****** ******
      ****** ****** ****** ****** ****** ****** ****** ****** ****** ******

 HEAD WILL BE SAVED ON UNIT   51 AT END OF TIME STEP    1, STRESS PERIOD    1
1
  VOLUMETRIC BUDGET FOR ENTIRE MODEL AT END OF TIME STEP    1, STRESS PERIOD   1
  ------------------------------------------------------------------------------

     CUMULATIVE VOLUMES      L**3       RATES FOR THIS TIME STEP      L**3/T
     ------------------                 ------------------------

           IN:                                      IN:
           ---                                      ---
             STORAGE =    17633191.7540               STORAGE =      191665.1278
       CONSTANT HEAD =     1124922.7255         CONSTANT HEAD =       12227.4209
               WELLS =           0.0000                 WELLS =           0.0000
            RECHARGE =     1269600.0000              RECHARGE =       13800.0000
      STREAM LEAKAGE =      440640.4823        STREAM LEAKAGE =        4789.5705

            TOTAL IN =    20468354.9618              TOTAL IN =      222482.1191

          OUT:                                     OUT:
          ----                                     ----
             STORAGE =           0.0000               STORAGE =           0.0000
       CONSTANT HEAD =           0.0000         CONSTANT HEAD =           0.0000
               WELLS =     4059053.9922                 WELLS =       44120.1521
            RECHARGE =           0.0000              RECHARGE =           0.0000
      STREAM LEAKAGE =    16409301.2593        STREAM LEAKAGE =      178361.9702

           TOTAL OUT =    20468355.2515             TOTAL OUT =      222482.1223

            IN - OUT =          -0.2897              IN - OUT =      -3.1492E-03

 PERCENT DISCREPANCY =          -0.00     PERCENT DISCREPANCY =          -0.00






         TIME SUMMARY AT END OF TIME STEP    1 IN STRESS PERIOD    1
                    SECONDS     MINUTES      HOURS       DAYS        YEARS
                    -----------------------------------------------------------
   TIME STEP LENGTH 7.94880E+06 1.32480E+05  2208.0      92.000     0.25188    
 STRESS PERIOD TIME 7.94880E+06 1.32480E+05  2208.0      92.000     0.25188    
         TOTAL TIME 7.94880E+06 1.32480E+05  2208.0      92.000     0.25188    
1
1
                            STRESS PERIOD NO.    2, LENGTH =   91.00000    
                            -----------------------------------------------

                              NUMBER OF TIME STEPS =     1

                               MULTIPLIER FOR DELT =     1.500

                            INITIAL TIME STEP SIZE =   91.00000    

 WELL NO.  LAYER   ROW   COL   STRESS RATE         
 --------------------------------------------------
      1      1     11     21     -0.1135E+05
      2      1     18     20      -9351.    
      3      1     16     28     -0.1298E+05
      4      1     10     28     -0.1044E+05

      4 WELLS

                 RECHARGE =  2.000000E-03

 REUSING STREAM SEGMENT DATA FROM LAST STRESS PERIOD
 
 SOLVING FOR HEAD 


     7 CALLS TO PCG ROUTINE FOR TIME STEP   1 IN STRESS PERIOD    2
    27 TOTAL ITERATIONS

 OUTPUT CONTROL FOR STRESS PERIOD    2   TIME STEP    1
    SAVE BUDGET
    SAVE HEAD FOR ALL LAYERS
    PRINT HEAD FOR ALL LAYERS
 UBDSV2 SAVING "STREAMFLOW OUT  " ON UNIT  50 AT TIME STEP  1, STRESS PERIOD   2



 STREAM LISTING     PERIOD      2   STEP        1

 LAYER ROW COL. STREAM  RCH.  FLOW INTO     FLOW TO   FLOW OUT OF   OVRLND.     DIRECT     STREAM       STREAM     STREAM     STREAM   STREAMBED  STREAMBED
                SEG.NO.  NO.  STRM. RCH.    AQUIFER    STRM. RCH.    RUNOFF     PRECIP       ET          HEAD       DEPTH      WIDTH   CONDCTNC.   GRADIENT

   1   13    1     1     1    1.0000E+05 -4.0098E+03   1.0401E+05  0.000E+00  0.000E+00  0.000E+00  4.84077E+01  1.464E-01  2.000E+01  2.000E+04 -2.005E-01
   1   13    2     1     2    1.0401E+05 -5.2724E+03   1.0928E+05  0.000E+00  0.000E+00  0.000E+00  4.79344E+01  1.503E-01  2.000E+01  2.000E+04 -2.636E-01
   1   14    3     1     3    1.0928E+05 -1.1158E+03   1.1040E+05  0.000E+00  0.000E+00  0.000E+00  4.74598E+01  1.530E-01  2.000E+01  2.000E+04 -5.579E-02
   1   15    4     1     4    1.1040E+05 -1.1426E+03   1.1154E+05  0.000E+00  0.000E+00  0.000E+00  4.69835E+01  1.540E-01  2.000E+01  2.000E+04 -5.713E-02
   1   16    5     1     5    1.1154E+05 -4.2341E+03   1.1577E+05  0.000E+00  0.000E+00  0.000E+00  4.65085E+01  1.562E-01  2.000E+01  2.000E+04 -2.117E-01
   1   16    6     1     6    1.1577E+05 -2.4913E+03   1.1827E+05  0.000E+00  0.000E+00  0.000E+00  4.60340E+01  1.590E-01  2.000E+01  2.000E+04 -1.246E-01
   1   16    7     1     7    1.1827E+05 -2.3917E+03   1.2066E+05  0.000E+00  0.000E+00  0.000E+00  4.55587E+01  1.609E-01  2.000E+01  2.000E+04 -1.196E-01
   1   16    8     1     8    1.2066E+05 -2.3540E+03   1.2301E+05  0.000E+00  0.000E+00  0.000E+00  4.50833E+01  1.628E-01  2.000E+01  2.000E+04 -1.177E-01
   1   16    9     1     9    1.2301E+05 -2.3204E+03   1.2533E+05  0.000E+00  0.000E+00  0.000E+00  4.46079E+01  1.647E-01  2.000E+01  2.000E+04 -1.160E-01
   1   16   10     1    10    1.2533E+05 -2.2760E+03   1.2761E+05  0.000E+00  0.000E+00  0.000E+00  4.41324E+01  1.665E-01  2.000E+01  2.000E+04 -1.138E-01
   1   16   11     1    11    1.2761E+05 -2.2459E+03   1.2985E+05  0.000E+00  0.000E+00  0.000E+00  4.36570E+01  1.683E-01  2.000E+01  2.000E+04 -1.123E-01
   1   16   12     1    12    1.2985E+05 -3.8359E+03   1.3369E+05  0.000E+00  0.000E+00  0.000E+00  4.31821E+01  1.707E-01  2.000E+01  2.000E+04 -1.918E-01
   1   15   13     1    13    1.3369E+05 -3.8103E+03   1.3750E+05  0.000E+00  0.000E+00  0.000E+00  4.27077E+01  1.736E-01  2.000E+01  2.000E+04 -1.905E-01
   1   14   14     1    14    1.3750E+05 -4.1859E+03   1.4169E+05  0.000E+00  0.000E+00  0.000E+00  4.22335E+01  1.767E-01  2.000E+01  2.000E+04 -2.093E-01
   1   13   15     1    15    1.4169E+05 -4.5643E+03   1.4625E+05  0.000E+00  0.000E+00  0.000E+00  4.17596E+01  1.800E-01  2.000E+01  2.000E+04 -2.282E-01
   1   12   16     1    16    1.4625E+05 -5.4698E+03   1.5172E+05  0.000E+00  0.000E+00  0.000E+00  4.12860E+01  1.837E-01  2.000E+01  2.000E+04 -2.735E-01
   1   12   17     1    17    1.5172E+05 -3.4090E+03   1.5513E+05  0.000E+00  0.000E+00  0.000E+00  4.08120E+01  1.870E-01  2.000E+01  2.000E+04 -1.705E-01
   1   12   18     1    18    1.5513E+05 -2.9806E+03   1.5811E+05  0.000E+00  0.000E+00  0.000E+00  4.03371E+01  1.893E-01  2.000E+01  2.000E+04 -1.490E-01
   1   12   19     1    19    1.5811E+05 -2.5291E+03   1.6064E+05  0.000E+00  0.000E+00  0.000E+00  3.98618E+01  1.913E-01  2.000E+01  2.000E+04 -1.265E-01
   1   13   20     1    20    1.6064E+05 -1.4646E+03   1.6210E+05  0.000E+00  0.000E+00  0.000E+00  3.93859E+01  1.928E-01  2.000E+01  2.000E+04 -7.323E-02
   1   14   21     1    21    1.6210E+05 -1.8321E+03   1.6394E+05  0.000E+00  0.000E+00  0.000E+00  3.89098E+01  1.939E-01  2.000E+01  2.000E+04 -9.160E-02
   1   14   22     1    22    1.6394E+05  5.0060E+03   1.5893E+05  0.000E+00  0.000E+00  0.000E+00  3.84314E+01  1.928E-01  2.000E+01  2.000E+04  2.503E-01
   1    9   30     2     1    5.0000E+04 -8.7061E+02   5.0871E+04  0.000E+00  0.000E+00  0.000E+00  4.02415E+01  1.165E-01  2.000E+01  2.000E+04 -4.353E-02
   1    9   29     2     2    5.0871E+04 -5.5897E+02   5.1430E+04  0.000E+00  0.000E+00  0.000E+00  3.99925E+01  1.175E-01  2.000E+01  2.000E+04 -2.795E-02
   1    9   28     2     3    5.1430E+04  1.1280E+03   5.0302E+04  0.000E+00  0.000E+00  0.000E+00  3.97421E+01  1.171E-01  2.000E+01  2.000E+04  5.640E-02
   1    9   27     2     4    5.0302E+04 -3.1910E+03   5.3493E+04  0.000E+00  0.000E+00  0.000E+00  3.94935E+01  1.185E-01  2.000E+01  2.000E+04 -1.596E-01
   1   10   26     2     5    5.3493E+04 -1.5155E+03   5.5008E+04  0.000E+00  0.000E+00  0.000E+00  3.92467E+01  1.217E-01  2.000E+01  2.000E+04 -7.577E-02
   1   11   25     2     6    5.5008E+04 -1.8495E+03   5.6858E+04  0.000E+00  0.000E+00  0.000E+00  3.89989E+01  1.239E-01  2.000E+01  2.000E+04 -9.248E-02
   1   12   24     2     7    5.6858E+04 -1.6491E+03   5.8507E+04  0.000E+00  0.000E+00  0.000E+00  3.87512E+01  1.262E-01  2.000E+01  2.000E+04 -8.245E-02
   1   13   23     2     8    5.8507E+04 -3.1012E+02   5.8817E+04  0.000E+00  0.000E+00  0.000E+00  3.85025E+01  1.275E-01  2.000E+01  2.000E+04 -1.551E-02
   1   14   22     2     9    5.8817E+04  1.4132E+03   5.7404E+04  0.000E+00  0.000E+00  0.000E+00  3.82518E+01  1.268E-01  2.000E+01  2.000E+04  7.066E-02
   1   14   22     3     1    2.1633E+05 -8.6519E+03   2.2498E+05  0.000E+00  0.000E+00  0.000E+00  3.77485E+01  1.930E-01  2.000E+01  2.000E+04 -4.326E-01
   1   15   23     3     2    2.2498E+05 -8.1237E+02   2.2580E+05  0.000E+00  0.000E+00  0.000E+00  3.68621E+01  1.955E-01  2.000E+01  2.000E+04 -4.062E-02
   1   15   24     3     3    2.2580E+05 -6.0290E+02   2.2640E+05  0.000E+00  0.000E+00  0.000E+00  3.59736E+01  1.958E-01  2.000E+01  2.000E+04 -3.015E-02
   1   15   25     3     4    2.2640E+05 -6.1252E+02   2.2701E+05  0.000E+00  0.000E+00  0.000E+00  3.50850E+01  1.961E-01  2.000E+01  2.000E+04 -3.063E-02
   1   15   26     3     5    2.2701E+05 -4.8088E+02   2.2749E+05  0.000E+00  0.000E+00  0.000E+00  3.41964E+01  1.964E-01  2.000E+01  2.000E+04 -2.404E-02
   1   16   27     3     6    2.2749E+05  5.0399E+02   2.2699E+05  0.000E+00  0.000E+00  0.000E+00  3.33075E+01  1.964E-01  2.000E+01  2.000E+04  2.520E-02
   1   17   28     3     7    2.2699E+05  4.0849E+03   2.2290E+05  0.000E+00  0.000E+00  0.000E+00  3.24175E+01  1.952E-01  2.000E+01  2.000E+04  2.042E-01
   1   18   29     3     8    2.2290E+05 -3.6283E+03   2.2653E+05  0.000E+00  0.000E+00  0.000E+00  3.15284E+01  1.951E-01  2.000E+01  2.000E+04 -1.814E-01
   1   18   30     3     9    2.2653E+05 -3.3632E+03   2.2990E+05  0.000E+00  0.000E+00  0.000E+00  3.06414E+01  1.969E-01  2.000E+01  2.000E+04 -1.682E-01



1
              HEAD IN LAYER   1 AT END OF TIME STEP   1 IN STRESS PERIOD    2
  ---------------------------------------------------------------------------

          1      2      3      4      5      6      7      8      9     10
         11     12     13     14     15     16     17     18     19     20
         21     22     23     24     25     26     27     28     29     30
 .........................................................................
   1  ****** ****** ****** ****** ****** ****** ****** ****** ****** ******
      ****** ****** ****** ****** ****** ****** ****** ****** ****** ******
      ****** ****** ****** ****** ****** ****** ****** ****** ****** ******
   2  ****** ****** ****** ****** ****** ****** ****** ****** ****** ******
      ****** ****** ****** ****** ****** ****** ****** ****** ****** ******
      ****** ****** ****** ****** ****** ****** ****** ****** ****** ******
   3  ****** ****** ****** ****** ****** ****** ****** ****** ****** ******
      ****** ****** ****** ****** ****** ****** ****** ****** ****** ******
      ****** ****** ****** ****** ****** ****** ****** ****** ****** ******
   4  ****** ****** ****** ****** ****** ****** ****** ****** ****** ******
      ****** ****** ****** ****** ****** ****** ****** ****** ****** ******
      ****** ****** ****** ****** ****** ****** ****** ****** ****** ******
   5  ****** ****** ****** ****** ****** ****** ****** ****** ****** ******
      ****** ****** ****** ****** ****** ****** ****** ****** ****** ******
      ****** ****** ****** ****** ****** ****** ****** ****** ****** ******
   6  ****** ****** ****** ****** ****** ****** ****** ****** ****** ******
      ****** ****** ****** ****** ****** ****** ****** ****** ****** ******
      ****** ****** ****** ****** ****** ****** ****** ****** ****** ******
   7  ****** ****** ****** ****** ****** ****** ****** ****** ****** ******
      ****** ****** ****** ****** ****** ****** ****** ****** ****** ******
      ****** ****** ****** ****** ****** ****** ****** ****** ****** ******
   8  ****** ****** ****** ****** ****** ****** ****** ****** ****** ******
      ****** ****** ****** ****** ****** ****** ****** ****** ****** ******
      ****** ****** ****** ****** ****** ****** ****** ****** ****** ******
   9  ****** ****** ****** ****** ****** ****** ****** ****** ****** ******
      ****** ****** ****** ****** ****** ****** ****** ****** ****** ******
      ****** ****** ****** ****** ****** ****** ****** ****** ****** ******
  10  ****** ****** ****** ****** ****** ****** ****** ****** ****** ******
      ****** ****** ****** ****** ****** ****** ****** ****** ****** ******
      ****** ****** ****** ****** ****** ****** ****** ****** ****** ******
  11  ****** ****** ****** ****** ****** ****** ****** ****** ****** ******
      ****** ****** ****** ****** ****** ****** ****** ****** ****** ******
      ****** ****** ****** ****** ****** ****** ****** ****** ****** ******
  12  ****** ****** ****** ****** ****** ****** ****** ****** ****** ******
      ****** ****** ****** ****** ****** ****** ****** ****** ****** ******
      ****** ****** ****** ****** ****** ****** ****** ****** ****** ******
  13  ****** ****** ****** ****** ****** ****** ****** ****** ****** ******
      ****** ****** ****** ****** ****** ****** ****** ****** ****** ******
      ****** ****** ****** ****** ****** ****** ****** ****** ****** ******
  14  ****** ****** ****** ****** ****** ****** ****** ****** ****** ******
      ****** ****** ****** ****** ****** ****** ****** ****** ****** ******
      ****** ****** ****** ****** ****** ****** ****** ****** ****** ******
  15  ****** ****** ****** ****** ****** ****** ****** ****** ****** ******
      ****** ****** ****** ****** ****** ****** ****** ****** ****** ******
      ****** ****** ****** ****** ****** ****** ****** ****** ****** ******
  16  ****** ****** ****** ****** ****** ****** ****** ****** ****** ******
      ****** ****** ****** ****** ****** ****** ****** ****** ****** ******
      ****** ****** ****** ****** ****** ****** ****** ****** ****** ******
  17  ****** ****** ****** ****** ****** ****** ****** ****** ****** ******
      ****** ****** ****** ****** ****** ****** ****** ****** ****** ******
      ****** ****** ****** ****** ****** ****** ****** ****** ****** ******
  18  ****** ****** ****** ****** ****** ****** ****** ****** ****** ******
      ****** ****** ****** ****** ****** ****** ****** ****** ****** ******
      ****** ****** ****** ****** ****** ****** ****** ****** ****** ******
  19  ****** ****** ****** ****** ****** ****** ****** ****** ****** ******
      ****** ****** ****** ****** ****** ****** ****** ****** ****** ******
      ****** ****** ****** ****** ****** ****** ****** ****** ****** ******
  20  ****** ****** ****** ****** ****** ****** ****** ****** ****** ******
      ****** ****** ****** ****** ****** ****** ****** ****** ****** ******
      ****** ****** ****** ****** ****** ****** ****** ****** ****** ******
  21  ****** ****** ****** ****** ****** ****** ****** ****** ****** ******
      ****** ****** ****** ****** ****** ****** ****** ****** ****** ******
      ****** ****** ****** ****** ****** ****** ****** ****** ****** ******
  22  ****** ****** ****** ****** ****** ****** ****** ****** ****** ******
      ****** ****** ****** ****** ****** ****** ****** ****** ****** ******
      ****** ****** ****** ****** ****** ****** ****** ****** ****** ******
  23  ****** ****** ****** ****** ****** ****** ****** ****** ****** ******
      ****** ****** ****** ****** ****** ****** ****** ****** ****** ******
      ****** ****** ****** ****** ****** ****** ****** ****** ****** ******
  24  ****** ****** ****** ****** ****** ****** ****** ****** ****** ******
      ****** ****** ****** ****** ****** ****** ****** ****** ****** ******
      ****** ****** ****** ****** ****** ****** ****** ****** ****** ******
  25  ****** ****** ****** ****** ****** ****** ****** ****** ****** ******
      ****** ****** ****** ****** ****** ****** ****** ****** ****** ******
      ****** ****** ****** ****** ****** ****** ****** ****** ****** ******

 HEAD WILL BE SAVED ON UNIT   51 AT END OF TIME STEP    1, STRESS PERIOD    2
1
  VOLUMETRIC BUDGET FOR ENTIRE MODEL AT END OF TIME STEP    1, STRESS PERIOD   2
  ------------------------------------------------------------------------------

     CUMULATIVE VOLUMES      L**3       RATES FOR THIS TIME STEP      L**3/T
     ------------------                 ------------------------

           IN:                                      IN:
           ---                                      ---
             STORAGE =    22395190.1127               STORAGE =       52329.6523
       CONSTANT HEAD =     2625220.2566         CONSTANT HEAD =       16486.7861
               WELLS =           0.0000                 WELLS =           0.0000
            RECHARGE =     6292800.0000              RECHARGE =       55200.0000
      STREAM LEAKAGE =     1545023.9924        STREAM LEAKAGE =       12136.0825

            TOTAL IN =    32858234.3617              TOTAL IN =      136152.5209

          OUT:                                     OUT:
          ----                                     ----
             STORAGE =           0.0000               STORAGE =           0.0000
       CONSTANT HEAD =           0.0000         CONSTANT HEAD =           0.0000
               WELLS =     8073987.8323                 WELLS =       44120.1521
            RECHARGE =           0.0000              RECHARGE =           0.0000
      STREAM LEAKAGE =    24784247.7653        STREAM LEAKAGE =       92032.3792

           TOTAL OUT =    32858235.5975             TOTAL OUT =      136152.5313

            IN - OUT =          -1.2358              IN - OUT =      -1.0397E-02

 PERCENT DISCREPANCY =          -0.00     PERCENT DISCREPANCY =          -0.00






         TIME SUMMARY AT END OF TIME STEP    1 IN STRESS PERIOD    2
                    SECONDS     MINUTES      HOURS       DAYS        YEARS
                    -----------------------------------------------------------
   TIME STEP LENGTH 7.86240E+06 1.31040E+05  2184.0      91.000     0.24914    
 STRESS PERIOD TIME 7.86240E+06 1.31040E+05  2184.0      91.000     0.24914    
         TOTAL TIME 1.58112E+07 2.63520E+05  4392.0      183.00     0.50103    
1
1
                            STRESS PERIOD NO.    3, LENGTH =   91.00000    
                            -----------------------------------------------

                              NUMBER OF TIME STEPS =     1

                               MULTIPLIER FOR DELT =     1.500

                            INITIAL TIME STEP SIZE =   91.00000    

 WELL NO.  LAYER   ROW   COL   STRESS RATE         
 --------------------------------------------------
      1      1     11     21     -0.1135E+05
      2      1     18     20      -9351.    
      3      1     16     28     -0.1298E+05
      4      1     10     28     -0.1044E+05

      4 WELLS

                 RECHARGE =   0.00000    

 REUSING STREAM SEGMENT DATA FROM LAST STRESS PERIOD
 
 SOLVING FOR HEAD 


     7 CALLS TO PCG ROUTINE FOR TIME STEP   1 IN STRESS PERIOD    3
    27 TOTAL ITERATIONS

 OUTPUT CONTROL FOR STRESS PERIOD    3   TIME STEP    1
    SAVE BUDGET
    SAVE HEAD FOR ALL LAYERS
    PRINT HEAD FOR ALL LAYERS
 UBDSV2 SAVING "STREAMFLOW OUT  " ON UNIT  50 AT TIME STEP  1, STRESS PERIOD   3



 STREAM LISTING     PERIOD      3   STEP        1

 LAYER ROW COL. STREAM  RCH.  FLOW INTO     FLOW TO   FLOW OUT OF   OVRLND.     DIRECT     STREAM       STREAM     STREAM     STREAM   STREAMBED  STREAMBED
                SEG.NO.  NO.  STRM. RCH.    AQUIFER    STRM. RCH.    RUNOFF     PRECIP       ET          HEAD       DEPTH      WIDTH   CONDCTNC.   GRADIENT

   1   13    1     1     1    1.0000E+05 -2.7673E+03   1.0277E+05  0.000E+00  0.000E+00  0.000E+00  4.84072E+01  1.458E-01  2.000E+01  2.000E+04 -1.384E-01
   1   13    2     1     2    1.0277E+05 -3.8773E+03   1.0664E+05  0.000E+00  0.000E+00  0.000E+00  4.79328E+01  1.487E-01  2.000E+01  2.000E+04 -1.939E-01
   1   14    3     1     3    1.0664E+05 -6.5540E+02   1.0730E+05  0.000E+00  0.000E+00  0.000E+00  4.74574E+01  1.506E-01  2.000E+01  2.000E+04 -3.277E-02
   1   15    4     1     4    1.0730E+05 -6.3738E+02   1.0794E+05  0.000E+00  0.000E+00  0.000E+00  4.69807E+01  1.512E-01  2.000E+01  2.000E+04 -3.187E-02
   1   16    5     1     5    1.0794E+05 -2.4314E+03   1.1037E+05  0.000E+00  0.000E+00  0.000E+00  4.65047E+01  1.525E-01  2.000E+01  2.000E+04 -1.216E-01
   1   16    6     1     6    1.1037E+05 -1.4826E+03   1.1185E+05  0.000E+00  0.000E+00  0.000E+00  4.60291E+01  1.541E-01  2.000E+01  2.000E+04 -7.413E-02
   1   16    7     1     7    1.1185E+05 -1.4396E+03   1.1329E+05  0.000E+00  0.000E+00  0.000E+00  4.55530E+01  1.553E-01  2.000E+01  2.000E+04 -7.198E-02
   1   16    8     1     8    1.1329E+05 -1.4177E+03   1.1471E+05  0.000E+00  0.000E+00  0.000E+00  4.50769E+01  1.565E-01  2.000E+01  2.000E+04 -7.089E-02
   1   16    9     1     9    1.1471E+05 -1.3854E+03   1.1609E+05  0.000E+00  0.000E+00  0.000E+00  4.46008E+01  1.576E-01  2.000E+01  2.000E+04 -6.927E-02
   1   16   10     1    10    1.1609E+05 -1.3367E+03   1.1743E+05  0.000E+00  0.000E+00  0.000E+00  4.41247E+01  1.587E-01  2.000E+01  2.000E+04 -6.684E-02
   1   16   11     1    11    1.1743E+05 -1.2935E+03   1.1872E+05  0.000E+00  0.000E+00  0.000E+00  4.36485E+01  1.598E-01  2.000E+01  2.000E+04 -6.467E-02
   1   16   12     1    12    1.1872E+05 -2.1665E+03   1.2089E+05  0.000E+00  0.000E+00  0.000E+00  4.31726E+01  1.612E-01  2.000E+01  2.000E+04 -1.083E-01
   1   15   13     1    13    1.2089E+05 -2.1152E+03   1.2301E+05  0.000E+00  0.000E+00  0.000E+00  4.26970E+01  1.629E-01  2.000E+01  2.000E+04 -1.058E-01
   1   14   14     1    14    1.2301E+05 -2.4530E+03   1.2546E+05  0.000E+00  0.000E+00  0.000E+00  4.22216E+01  1.648E-01  2.000E+01  2.000E+04 -1.226E-01
   1   13   15     1    15    1.2546E+05 -2.8391E+03   1.2830E+05  0.000E+00  0.000E+00  0.000E+00  4.17464E+01  1.669E-01  2.000E+01  2.000E+04 -1.420E-01
   1   12   16     1    16    1.2830E+05 -3.7059E+03   1.3200E+05  0.000E+00  0.000E+00  0.000E+00  4.12717E+01  1.694E-01  2.000E+01  2.000E+04 -1.853E-01
   1   12   17     1    17    1.3200E+05 -2.1162E+03   1.3412E+05  0.000E+00  0.000E+00  0.000E+00  4.07967E+01  1.717E-01  2.000E+01  2.000E+04 -1.058E-01
   1   12   18     1    18    1.3412E+05 -1.7003E+03   1.3582E+05  0.000E+00  0.000E+00  0.000E+00  4.03209E+01  1.732E-01  2.000E+01  2.000E+04 -8.501E-02
   1   12   19     1    19    1.3582E+05 -9.1980E+02   1.3674E+05  0.000E+00  0.000E+00  0.000E+00  3.98446E+01  1.742E-01  2.000E+01  2.000E+04 -4.599E-02
   1   13   20     1    20    1.3674E+05  4.5576E+01   1.3669E+05  0.000E+00  0.000E+00  0.000E+00  3.93677E+01  1.745E-01  2.000E+01  2.000E+04  2.279E-03
   1   14   21     1    21    1.3669E+05 -2.5658E+02   1.3695E+05  0.000E+00  0.000E+00  0.000E+00  3.88905E+01  1.746E-01  2.000E+01  2.000E+04 -1.283E-02
   1   14   22     1    22    1.3695E+05  5.3939E+03   1.3156E+05  0.000E+00  0.000E+00  0.000E+00  3.84113E+01  1.726E-01  2.000E+01  2.000E+04  2.697E-01
   1    9   30     2     1    5.0000E+04  3.7180E+02   4.9628E+04  0.000E+00  0.000E+00  0.000E+00  4.02406E+01  1.156E-01  2.000E+01  2.000E+04  1.859E-02
   1    9   29     2     2    4.9628E+04  6.7939E+02   4.8949E+04  0.000E+00  0.000E+00  0.000E+00  3.99899E+01  1.149E-01  2.000E+01  2.000E+04  3.397E-02
   1    9   28     2     3    4.8949E+04  2.3740E+03   4.6575E+04  0.000E+00  0.000E+00  0.000E+00  3.97377E+01  1.127E-01  2.000E+01  2.000E+04  1.187E-01
   1    9   27     2     4    4.6575E+04 -1.4196E+03   4.7994E+04  0.000E+00  0.000E+00  0.000E+00  3.94870E+01  1.120E-01  2.000E+01  2.000E+04 -7.098E-02
   1   10   26     2     5    4.7994E+04  1.6021E+02   4.7834E+04  0.000E+00  0.000E+00  0.000E+00  3.92379E+01  1.129E-01  2.000E+01  2.000E+04  8.010E-03
   1   11   25     2     6    4.7834E+04 -2.8777E+02   4.8122E+04  0.000E+00  0.000E+00  0.000E+00  3.89880E+01  1.130E-01  2.000E+01  2.000E+04 -1.439E-02
   1   12   24     2     7    4.8122E+04 -2.6189E+02   4.8384E+04  0.000E+00  0.000E+00  0.000E+00  3.87384E+01  1.134E-01  2.000E+01  2.000E+04 -1.309E-02
   1   13   23     2     8    4.8384E+04  3.0481E+01   4.8353E+04  0.000E+00  0.000E+00  0.000E+00  3.84886E+01  1.136E-01  2.000E+01  2.000E+04  1.524E-03
   1   14   22     2     9    4.8353E+04  1.9130E+03   4.6440E+04  0.000E+00  0.000E+00  0.000E+00  3.82372E+01  1.122E-01  2.000E+01  2.000E+04  9.565E-02
   1   14   22     3     1    1.7800E+05 -8.2800E+03   1.8628E+05  0.000E+00  0.000E+00  0.000E+00  3.77276E+01  1.720E-01  2.000E+01  2.000E+04 -4.140E-01
   1   15   23     3     2    1.8628E+05 -3.9526E+02   1.8667E+05  0.000E+00  0.000E+00  0.000E+00  3.68411E+01  1.745E-01  2.000E+01  2.000E+04 -1.976E-02
   1   15   24     3     3    1.8667E+05 -2.6753E+02   1.8694E+05  0.000E+00  0.000E+00  0.000E+00  3.59524E+01  1.746E-01  2.000E+01  2.000E+04 -1.338E-02
   1   15   25     3     4    1.8694E+05 -2.6098E+02   1.8720E+05  0.000E+00  0.000E+00  0.000E+00  3.50637E+01  1.748E-01  2.000E+01  2.000E+04 -1.305E-02
   1   15   26     3     5    1.8720E+05 -5.3707E+01   1.8726E+05  0.000E+00  0.000E+00  0.000E+00  3.41749E+01  1.749E-01  2.000E+01  2.000E+04 -2.685E-03
   1   16   27     3     6    1.8726E+05  9.9880E+02   1.8626E+05  0.000E+00  0.000E+00  0.000E+00  3.32857E+01  1.746E-01  2.000E+01  2.000E+04  4.994E-02
   1   17   28     3     7    1.8626E+05  5.6126E+03   1.8064E+05  0.000E+00  0.000E+00  0.000E+00  3.23950E+01  1.727E-01  2.000E+01  2.000E+04  2.806E-01
   1   18   29     3     8    1.8064E+05 -2.0168E+03   1.8266E+05  0.000E+00  0.000E+00  0.000E+00  3.15051E+01  1.717E-01  2.000E+01  2.000E+04 -1.008E-01
   1   18   30     3     9    1.8266E+05 -2.1507E+03   1.8481E+05  0.000E+00  0.000E+00  0.000E+00  3.06174E+01  1.729E-01  2.000E+01  2.000E+04 -1.075E-01



1
              HEAD IN LAYER   1 AT END OF TIME STEP   1 IN STRESS PERIOD    3
  ---------------------------------------------------------------------------

          1      2      3      4      5      6      7      8      9     10
         11     12     13     14     15     16     17     18     19     20
         21     22     23     24     25     26     27     28     29     30
 .........................................................................
   1  ****** ****** ****** ****** ****** ****** ****** ****** ****** ******
      ****** ****** ****** ****** ****** ****** ****** ****** ****** ******
      ****** ****** ****** ****** ****** ****** ****** ****** ****** ******
   2  ****** ****** ****** ****** ****** ****** ****** ****** ****** ******
      ****** ****** ****** ****** ****** ****** ****** ****** ****** ******
      ****** ****** ****** ****** ****** ****** ****** ****** ****** ******
   3  ****** ****** ****** ****** ****** ****** ****** ****** ****** ******
      ****** ****** ****** ****** ****** ****** ****** ****** ****** ******
      ****** ****** ****** ****** ****** ****** ****** ****** ****** ******
   4  ****** ****** ****** ****** ****** ****** ****** ****** ****** ******
      ****** ****** ****** ****** ****** ****** ****** ****** ****** ******
      ****** ****** ****** ****** ****** ****** ****** ****** ****** ******
   5  ****** ****** ****** ****** ****** ****** ****** ****** ****** ******
      ****** ****** ****** ****** ****** ****** ****** ****** ****** ******
      ****** ****** ****** ****** ****** ****** ****** ****** ****** ******
   6  ****** ****** ****** ****** ****** ****** ****** ****** ****** ******
      ****** ****** ****** ****** ****** ****** ****** ****** ****** ******
      ****** ****** ****** ****** ****** ****** ****** ****** ****** ******
   7  ****** ****** ****** ****** ****** ****** ****** ****** ****** ******
      ****** ****** ****** ****** ****** ****** ****** ****** ****** ******
      ****** ****** ****** ****** ****** ****** ****** ****** ****** ******
   8  ****** ****** ****** ****** ****** ****** ****** ****** ****** ******
      ****** ****** ****** ****** ****** ****** ****** ****** ****** ******
      ****** ****** ****** ****** ****** ****** ****** ****** ****** ******
   9  ****** ****** ****** ****** ****** ****** ****** ****** ****** ******
      ****** ****** ****** ****** ****** ****** ****** ****** ****** ******
      ****** ****** ****** ****** ****** ****** ****** ****** ****** ******
  10  ****** ****** ****** ****** ****** ****** ****** ****** ****** ******
      ****** ****** ****** ****** ****** ****** ****** ****** ****** ******
      ****** ****** ****** ****** ****** ****** ****** ****** ****** ******
  11  ****** ****** ****** ****** ****** ****** ****** ****** ****** ******
      ****** ****** ****** ****** ****** ****** ****** ****** ****** ******
      ****** ****** ****** ****** ****** ****** ****** ****** ****** ******
  12  ****** ****** ****** ****** ****** ****** ****** ****** ****** ******
      ****** ****** ****** ****** ****** ****** ****** ****** ****** ******
      ****** ****** ****** ****** ****** ****** ****** ****** ****** ******
  13  ****** ****** ****** ****** ****** ****** ****** ****** ****** ******
      ****** ****** ****** ****** ****** ****** ****** ****** ****** ******
      ****** ****** ****** ****** ****** ****** ****** ****** ****** ******
  14  ****** ****** ****** ****** ****** ****** ****** ****** ****** ******
      ****** ****** ****** ****** ****** ****** ****** ****** ****** ******
      ****** ****** ****** ****** ****** ****** ****** ****** ****** ******
  15  ****** ****** ****** ****** ****** ****** ****** ****** ****** ******
      ****** ****** ****** ****** ****** ****** ****** ****** ****** ******
      ****** ****** ****** ****** ****** ****** ****** ****** ****** ******
  16  ****** ****** ****** ****** ****** ****** ****** ****** ****** ******
      ****** ****** ****** ****** ****** ****** ****** ****** ****** ******
      ****** ****** ****** ****** ****** ****** ****** ****** ****** ******
  17  ****** ****** ****** ****** ****** ****** ****** ****** ****** ******
      ****** ****** ****** ****** ****** ****** ****** ****** ****** ******
      ****** ****** ****** ****** ****** ****** ****** ****** ****** ******
  18  ****** ****** ****** ****** ****** ****** ****** ****** ****** ******
      ****** ****** ****** ****** ****** ****** ****** ****** ****** ******
      ****** ****** ****** ****** ****** ****** ****** ****** ****** ******
  19  ****** ****** ****** ****** ****** ****** ****** ****** ****** ******
      ****** ****** ****** ****** ****** ****** ****** ****** ****** ******
      ****** ****** ****** ****** ****** ****** ****** ****** ****** ******
  20  ****** ****** ****** ****** ****** ****** ****** ****** ****** ******
      ****** ****** ****** ****** ****** ****** ****** ****** ****** ******
      ****** ****** ****** ****** ****** ****** ****** ****** ****** ******
  21  ****** ****** ****** ****** ****** ****** ****** ****** ****** ******
      ****** ****** ****** ****** ****** ****** ****** ****** ****** ******
      ****** ****** ****** ****** ****** ****** ****** ****** ****** ******
  22  ****** ****** ****** ****** ****** ****** ****** ****** ****** ******
      ****** ****** ****** ****** ****** ****** ****** ****** ****** ******
      ****** ****** ****** ****** ****** ****** ****** ****** ****** ******
  23  ****** ****** ****** ****** ****** ****** ****** ****** ****** ******
      ****** ****** ****** ****** ****** ****** ****** ****** ****** ******
      ****** ****** ****** ****** ****** ****** ****** ****** ****** ******
  24  ****** ****** ****** ****** ****** ****** ****** ****** ****** ******
      ****** ****** ****** ****** ****** ****** ****** ****** ****** ******
      ****** ****** ****** ****** ****** ****** ****** ****** ****** ******
  25  ****** ****** ****** ****** ****** ****** ****** ****** ****** ******
      ****** ****** ****** ****** ****** ****** ****** ****** ****** ******
      ****** ****** ****** ****** ****** ****** ****** ****** ****** ******

 HEAD WILL BE SAVED ON UNIT   51 AT END OF TIME STEP    1, STRESS PERIOD    3
1
  VOLUMETRIC BUDGET FOR ENTIRE MODEL AT END OF TIME STEP    1, STRESS PERIOD   3
  ------------------------------------------------------------------------------

     CUMULATIVE VOLUMES      L**3       RATES FOR THIS TIME STEP      L**3/T
     ------------------                 ------------------------

           IN:                                      IN:
           ---                                      ---
             STORAGE =    27313408.9950               STORAGE =       54046.3613
       CONSTANT HEAD =     4889756.0064         CONSTANT HEAD =       24885.0082
               WELLS =           0.0000                 WELLS =           0.0000
            RECHARGE =     6292800.0000              RECHARGE =           0.0000
      STREAM LEAKAGE =     3144776.3842        STREAM LEAKAGE =       17579.6966

            TOTAL IN =    41640741.3855              TOTAL IN =       96511.0662

          OUT:                                     OUT:
          ----                                     ----
             STORAGE =           0.0000               STORAGE =           0.0000
       CONSTANT HEAD =           0.0000         CONSTANT HEAD =           0.0000
               WELLS =    12088921.6724                 WELLS =       44120.1521
            RECHARGE =           0.0000              RECHARGE =           0.0000
      STREAM LEAKAGE =    29551821.6395        STREAM LEAKAGE =       52390.9217

           TOTAL OUT =    41640743.3118             TOTAL OUT =       96511.0738

            IN - OUT =          -1.9263              IN - OUT =      -7.5876E-03

 PERCENT DISCREPANCY =          -0.00     PERCENT DISCREPANCY =          -0.00






         TIME SUMMARY AT END OF TIME STEP    1 IN STRESS PERIOD    3
                    SECONDS     MINUTES      HOURS       DAYS        YEARS
                    -----------------------------------------------------------
   TIME STEP LENGTH 7.86240E+06 1.31040E+05  2184.0      91.000     0.24914    
 STRESS PERIOD TIME 7.86240E+06 1.31040E+05  2184.0      91.000     0.24914    
         TOTAL TIME 2.36736E+07 3.94560E+05  6576.0      274.00     0.75017    
1
1
                            STRESS PERIOD NO.    4, LENGTH =   91.00000    
                            -----------------------------------------------

                              NUMBER OF TIME STEPS =     1

                               MULTIPLIER FOR DELT =     1.500

                            INITIAL TIME STEP SIZE =   91.00000    

 WELL NO.  LAYER   ROW   COL   STRESS RATE         
 --------------------------------------------------
      1      1     11     21     -0.1135E+05
      2      1     18     20      -9351.    
      3      1     16     28     -0.1298E+05
      4      1     10     28     -0.1044E+05

      4 WELLS

                 RECHARGE =  1.000000E-03

 REUSING STREAM SEGMENT DATA FROM LAST STRESS PERIOD
 
 SOLVING FOR HEAD 


     6 CALLS TO PCG ROUTINE FOR TIME STEP   1 IN STRESS PERIOD    4
    23 TOTAL ITERATIONS

 OUTPUT CONTROL FOR STRESS PERIOD    4   TIME STEP    1
    SAVE BUDGET
    SAVE HEAD FOR ALL LAYERS
    PRINT HEAD FOR ALL LAYERS
 UBDSV2 SAVING "STREAMFLOW OUT  " ON UNIT  50 AT TIME STEP  1, STRESS PERIOD   4



 STREAM LISTING     PERIOD      4   STEP        1

 LAYER ROW COL. STREAM  RCH.  FLOW INTO     FLOW TO   FLOW OUT OF   OVRLND.     DIRECT     STREAM       STREAM     STREAM     STREAM   STREAMBED  STREAMBED
                SEG.NO.  NO.  STRM. RCH.    AQUIFER    STRM. RCH.    RUNOFF     PRECIP       ET          HEAD       DEPTH      WIDTH   CONDCTNC.   GRADIENT

   1   13    1     1     1    1.0000E+05 -2.5411E+03   1.0254E+05  0.000E+00  0.000E+00  0.000E+00  4.84071E+01  1.458E-01  2.000E+01  2.000E+04 -1.271E-01
   1   13    2     1     2    1.0254E+05 -3.6141E+03   1.0616E+05  0.000E+00  0.000E+00  0.000E+00  4.79325E+01  1.484E-01  2.000E+01  2.000E+04 -1.807E-01
   1   14    3     1     3    1.0616E+05 -6.2785E+02   1.0678E+05  0.000E+00  0.000E+00  0.000E+00  4.74570E+01  1.502E-01  2.000E+01  2.000E+04 -3.139E-02
   1   15    4     1     4    1.0678E+05 -5.9950E+02   1.0738E+05  0.000E+00  0.000E+00  0.000E+00  4.69803E+01  1.507E-01  2.000E+01  2.000E+04 -2.998E-02
   1   16    5     1     5    1.0738E+05 -2.1258E+03   1.0951E+05  0.000E+00  0.000E+00  0.000E+00  4.65041E+01  1.519E-01  2.000E+01  2.000E+04 -1.063E-01
   1   16    6     1     6    1.0951E+05 -1.3318E+03   1.1084E+05  0.000E+00  0.000E+00  0.000E+00  4.60283E+01  1.533E-01  2.000E+01  2.000E+04 -6.659E-02
   1   16    7     1     7    1.1084E+05 -1.2997E+03   1.1214E+05  0.000E+00  0.000E+00  0.000E+00  4.55521E+01  1.544E-01  2.000E+01  2.000E+04 -6.499E-02
   1   16    8     1     8    1.1214E+05 -1.2812E+03   1.1342E+05  0.000E+00  0.000E+00  0.000E+00  4.50759E+01  1.555E-01  2.000E+01  2.000E+04 -6.406E-02
   1   16    9     1     9    1.1342E+05 -1.2504E+03   1.1467E+05  0.000E+00  0.000E+00  0.000E+00  4.45997E+01  1.565E-01  2.000E+01  2.000E+04 -6.252E-02
   1   16   10     1    10    1.1467E+05 -1.2033E+03   1.1587E+05  0.000E+00  0.000E+00  0.000E+00  4.41234E+01  1.575E-01  2.000E+01  2.000E+04 -6.017E-02
   1   16   11     1    11    1.1587E+05 -1.1572E+03   1.1703E+05  0.000E+00  0.000E+00  0.000E+00  4.36471E+01  1.585E-01  2.000E+01  2.000E+04 -5.786E-02
   1   16   12     1    12    1.1703E+05 -1.8792E+03   1.1891E+05  0.000E+00  0.000E+00  0.000E+00  4.31711E+01  1.597E-01  2.000E+01  2.000E+04 -9.396E-02
   1   15   13     1    13    1.1891E+05 -1.8562E+03   1.2077E+05  0.000E+00  0.000E+00  0.000E+00  4.26953E+01  1.612E-01  2.000E+01  2.000E+04 -9.281E-02
   1   14   14     1    14    1.2077E+05 -2.1783E+03   1.2295E+05  0.000E+00  0.000E+00  0.000E+00  4.22197E+01  1.629E-01  2.000E+01  2.000E+04 -1.089E-01
   1   13   15     1    15    1.2295E+05 -2.5469E+03   1.2549E+05  0.000E+00  0.000E+00  0.000E+00  4.17443E+01  1.648E-01  2.000E+01  2.000E+04 -1.273E-01
   1   12   16     1    16    1.2549E+05 -3.3310E+03   1.2882E+05  0.000E+00  0.000E+00  0.000E+00  4.12694E+01  1.671E-01  2.000E+01  2.000E+04 -1.666E-01
   1   12   17     1    17    1.2882E+05 -1.8864E+03   1.3071E+05  0.000E+00  0.000E+00  0.000E+00  4.07941E+01  1.691E-01  2.000E+01  2.000E+04 -9.432E-02
   1   12   18     1    18    1.3071E+05 -1.4848E+03   1.3219E+05  0.000E+00  0.000E+00  0.000E+00  4.03182E+01  1.704E-01  2.000E+01  2.000E+04 -7.424E-02
   1   12   19     1    19    1.3219E+05 -6.5446E+02   1.3285E+05  0.000E+00  0.000E+00  0.000E+00  3.98417E+01  1.713E-01  2.000E+01  2.000E+04 -3.272E-02
   1   13   20     1    20    1.3285E+05  2.3085E+02   1.3262E+05  0.000E+00  0.000E+00  0.000E+00  3.93646E+01  1.714E-01  2.000E+01  2.000E+04  1.154E-02
   1   14   21     1    21    1.3262E+05  8.0468E+00   1.3261E+05  0.000E+00  0.000E+00  0.000E+00  3.88873E+01  1.713E-01  2.000E+01  2.000E+04  4.023E-04
   1   14   22     1    22    1.3261E+05  5.4372E+03   1.2717E+05  0.000E+00  0.000E+00  0.000E+00  3.84079E+01  1.692E-01  2.000E+01  2.000E+04  2.719E-01
   1    9   30     2     1    5.0000E+04  4.6752E+02   4.9532E+04  0.000E+00  0.000E+00  0.000E+00  4.02405E+01  1.155E-01  2.000E+01  2.000E+04  2.338E-02
   1    9   29     2     2    4.9532E+04  7.8146E+02   4.8751E+04  0.000E+00  0.000E+00  0.000E+00  3.99897E+01  1.147E-01  2.000E+01  2.000E+04  3.907E-02
   1    9   28     2     3    4.8751E+04  2.4948E+03   4.6256E+04  0.000E+00  0.000E+00  0.000E+00  3.97374E+01  1.124E-01  2.000E+01  2.000E+04  1.247E-01
   1    9   27     2     4    4.6256E+04 -1.1517E+03   4.7408E+04  0.000E+00  0.000E+00  0.000E+00  3.94864E+01  1.114E-01  2.000E+01  2.000E+04 -5.759E-02
   1   10   26     2     5    4.7408E+04  3.2208E+02   4.7086E+04  0.000E+00  0.000E+00  0.000E+00  3.92370E+01  1.120E-01  2.000E+01  2.000E+04  1.610E-02
   1   11   25     2     6    4.7086E+04 -1.6622E+02   4.7252E+04  0.000E+00  0.000E+00  0.000E+00  3.89869E+01  1.119E-01  2.000E+01  2.000E+04 -8.311E-03
   1   12   24     2     7    4.7252E+04 -1.6078E+02   4.7413E+04  0.000E+00  0.000E+00  0.000E+00  3.87371E+01  1.121E-01  2.000E+01  2.000E+04 -8.039E-03
   1   13   23     2     8    4.7413E+04  5.4096E+00   4.7407E+04  0.000E+00  0.000E+00  0.000E+00  3.84872E+01  1.122E-01  2.000E+01  2.000E+04  2.705E-04
   1   14   22     2     9    4.7407E+04  1.9959E+03   4.5412E+04  0.000E+00  0.000E+00  0.000E+00  3.82358E+01  1.108E-01  2.000E+01  2.000E+04  9.980E-02
   1   14   22     3     1    1.7258E+05 -8.2309E+03   1.8082E+05  0.000E+00  0.000E+00  0.000E+00  3.77245E+01  1.689E-01  2.000E+01  2.000E+04 -4.115E-01
   1   15   23     3     2    1.8082E+05 -3.6183E+02   1.8118E+05  0.000E+00  0.000E+00  0.000E+00  3.68380E+01  1.714E-01  2.000E+01  2.000E+04 -1.809E-02
   1   15   24     3     3    1.8118E+05 -2.6098E+02   1.8144E+05  0.000E+00  0.000E+00  0.000E+00  3.59493E+01  1.715E-01  2.000E+01  2.000E+04 -1.305E-02
   1   15   25     3     4    1.8144E+05 -2.5453E+02   1.8169E+05  0.000E+00  0.000E+00  0.000E+00  3.50606E+01  1.717E-01  2.000E+01  2.000E+04 -1.273E-02
   1   15   26     3     5    1.8169E+05 -5.5345E+01   1.8175E+05  0.000E+00  0.000E+00  0.000E+00  3.41718E+01  1.718E-01  2.000E+01  2.000E+04 -2.767E-03
   1   16   27     3     6    1.8175E+05  1.0077E+03   1.8074E+05  0.000E+00  0.000E+00  0.000E+00  3.32826E+01  1.715E-01  2.000E+01  2.000E+04  5.039E-02
   1   17   28     3     7    1.8074E+05  5.7099E+03   1.7503E+05  0.000E+00  0.000E+00  0.000E+00  3.23918E+01  1.696E-01  2.000E+01  2.000E+04  2.855E-01
   1   18   29     3     8    1.7503E+05 -1.7593E+03   1.7679E+05  0.000E+00  0.000E+00  0.000E+00  3.15018E+01  1.685E-01  2.000E+01  2.000E+04 -8.796E-02
   1   18   30     3     9    1.7679E+05 -2.0146E+03   1.7880E+05  0.000E+00  0.000E+00  0.000E+00  3.06140E+01  1.695E-01  2.000E+01  2.000E+04 -1.007E-01



1
              HEAD IN LAYER   1 AT END OF TIME STEP   1 IN STRESS PERIOD    4
  ---------------------------------------------------------------------------

          1      2      3      4      5      6      7      8      9     10
         11     12     13     14     15     16     17     18     19     20
         21     22     23     24     25     26     27     28     29     30
 .........................................................................
   1  ****** ****** ****** ****** ****** ****** ****** ****** ****** ******
      ****** ****** ****** ****** ****** ****** ****** ****** ****** ******
      ****** ****** ****** ****** ****** ****** ****** ****** ****** ******
   2  ****** ****** ****** ****** ****** ****** ****** ****** ****** ******
      ****** ****** ****** ****** ****** ****** ****** ****** ****** ******
      ****** ****** ****** ****** ****** ****** ****** ****** ****** ******
   3  ****** ****** ****** ****** ****** ****** ****** ****** ****** ******
      ****** ****** ****** ****** ****** ****** ****** ****** ****** ******
      ****** ****** ****** ****** ****** ****** ****** ****** ****** ******
   4  ****** ****** ****** ****** ****** ****** ****** ****** ****** ******
      ****** ****** ****** ****** ****** ****** ****** ****** ****** ******
      ****** ****** ****** ****** ****** ****** ****** ****** ****** ******
   5  ****** ****** ****** ****** ****** ****** ****** ****** ****** ******
      ****** ****** ****** ****** ****** ****** ****** ****** ****** ******
      ****** ****** ****** ****** ****** ****** ****** ****** ****** ******
   6  ****** ****** ****** ****** ****** ****** ****** ****** ****** ******
      ****** ****** ****** ****** ****** ****** ****** ****** ****** ******
      ****** ****** ****** ****** ****** ****** ****** ****** ****** ******
   7  ****** ****** ****** ****** ****** ****** ****** ****** ****** ******
      ****** ****** ****** ****** ****** ****** ****** ****** ****** ******
      ****** ****** ****** ****** ****** ****** ****** ****** ****** ******
   8  ****** ****** ****** ****** ****** ****** ****** ****** ****** ******
      ****** ****** ****** ****** ****** ****** ****** ****** ****** ******
      ****** ****** ****** ****** ****** ****** ****** ****** ****** ******
   9  ****** ****** ****** ****** ****** ****** ****** ****** ****** ******
      ****** ****** ****** ****** ****** ****** ****** ****** ****** ******
      ****** ****** ****** ****** ****** ****** ****** ****** ****** ******
  10  ****** ****** ****** ****** ****** ****** ****** ****** ****** ******
      ****** ****** ****** ****** ****** ****** ****** ****** ****** ******
      ****** ****** ****** ****** ****** ****** ****** ****** ****** ******
  11  ****** ****** ****** ****** ****** ****** ****** ****** ****** ******
      ****** ****** ****** ****** ****** ****** ****** ****** ****** ******
      ****** ****** ****** ****** ****** ****** ****** ****** ****** ******
  12  ****** ****** ****** ****** ****** ****** ****** ****** ****** ******
      ****** ****** ****** ****** ****** ****** ****** ****** ****** ******
      ****** ****** ****** ****** ****** ****** ****** ****** ****** ******
  13  ****** ****** ****** ****** ****** ****** ****** ****** ****** ******
      ****** ****** ****** ****** ****** ****** ****** ****** ****** ******
      ****** ****** ****** ****** ****** ****** ****** ****** ****** ******
  14  ****** ****** ****** ****** ****** ****** ****** ****** ****** ******
      ****** ****** ****** ****** ****** ****** ****** ****** ****** ******
      ****** ****** ****** ****** ****** ****** ****** ****** ****** ******
  15  ****** ****** ****** ****** ****** ****** ****** ****** ****** ******
      ****** ****** ****** ****** ****** ****** ****** ****** ****** ******
      ****** ****** ****** ****** ****** ****** ****** ****** ****** ******
  16  ****** ****** ****** ****** ****** ****** ****** ****** ****** ******
      ****** ****** ****** ****** ****** ****** ****** ****** ****** ******
      ****** ****** ****** ****** ****** ****** ****** ****** ****** ******
  17  ****** ****** ****** ****** ****** ****** ****** ****** ****** ******
      ****** ****** ****** ****** ****** ****** ****** ****** ****** ******
      ****** ****** ****** ****** ****** ****** ****** ****** ****** ******
  18  ****** ****** ****** ****** ****** ****** ****** ****** ****** ******
      ****** ****** ****** ****** ****** ****** ****** ****** ****** ******
      ****** ****** ****** ****** ****** ****** ****** ****** ****** ******
  19  ****** ****** ****** ****** ****** ****** ****** ****** ****** ******
      ****** ****** ****** ****** ****** ****** ****** ****** ****** ******
      ****** ****** ****** ****** ****** ****** ****** ****** ****** ******
  20  ****** ****** ****** ****** ****** ****** ****** ****** ****** ******
      ****** ****** ****** ****** ****** ****** ****** ****** ****** ******
      ****** ****** ****** ****** ****** ****** ****** ****** ****** ******
  21  ****** ****** ****** ****** ****** ****** ****** ****** ****** ******
      ****** ****** ****** ****** ****** ****** ****** ****** ****** ******
      ****** ****** ****** ****** ****** ****** ****** ****** ****** ******
  22  ****** ****** ****** ****** ****** ****** ****** ****** ****** ******
      ****** ****** ****** ****** ****** ****** ****** ****** ****** ******
      ****** ****** ****** ****** ****** ****** ****** ****** ****** ******
  23  ****** ****** ****** ****** ****** ****** ****** ****** ****** ******
      ****** ****** ****** ****** ****** ****** ****** ****** ****** ******
      ****** ****** ****** ****** ****** ****** ****** ****** ****** ******
  24  ****** ****** ****** ****** ****** ****** ****** ****** ****** ******
      ****** ****** ****** ****** ****** ****** ****** ****** ****** ******
      ****** ****** ****** ****** ****** ****** ****** ****** ****** ******
  25  ****** ****** ****** ****** ****** ****** ****** ****** ****** ******
      ****** ****** ****** ****** ****** ****** ****** ****** ****** ******
      ****** ****** ****** ****** ****** ****** ****** ****** ****** ******

 HEAD WILL BE SAVED ON UNIT   51 AT END OF TIME STEP    1, STRESS PERIOD    4
1
  VOLUMETRIC BUDGET FOR ENTIRE MODEL AT END OF TIME STEP    1, STRESS PERIOD   4
  ------------------------------------------------------------------------------

     CUMULATIVE VOLUMES      L**3       RATES FOR THIS TIME STEP      L**3/T
     ------------------                 ------------------------

           IN:                                      IN:
           ---                                      ---
             STORAGE =    28944715.3430               STORAGE =       17926.4434
       CONSTANT HEAD =     7383466.0747         CONSTANT HEAD =       27403.4073
               WELLS =           0.0000                 WELLS =           0.0000
            RECHARGE =     8804400.0000              RECHARGE =       27600.0000
      STREAM LEAKAGE =     4824723.0607        STREAM LEAKAGE =       18460.9525

            TOTAL IN =    49957304.4784              TOTAL IN =       91390.8032

          OUT:                                     OUT:
          ----                                     ----
             STORAGE =         493.4444               STORAGE =           5.4225
       CONSTANT HEAD =           0.0000         CONSTANT HEAD =           0.0000
               WELLS =    16103855.5124                 WELLS =       44120.1521
            RECHARGE =           0.0000              RECHARGE =           0.0000
      STREAM LEAKAGE =    33852957.5170        STREAM LEAKAGE =       47265.2294

           TOTAL OUT =    49957306.4739             TOTAL OUT =       91390.8040

            IN - OUT =          -1.9955              IN - OUT =      -7.6018E-04

 PERCENT DISCREPANCY =          -0.00     PERCENT DISCREPANCY =          -0.00






         TIME SUMMARY AT END OF TIME STEP    1 IN STRESS PERIOD    4
                    SECONDS     MINUTES      HOURS       DAYS        YEARS
                    -----------------------------------------------------------
   TIME STEP LENGTH 7.86240E+06 1.31040E+05  2184.0      91.000     0.24914    
 STRESS PERIOD TIME 7.86240E+06 1.31040E+05  2184.0      91.000     0.24914    
         TOTAL TIME 3.15360E+07 5.25600E+05  8760.0      365.00     0.99932    
1
1
                            STRESS PERIOD NO.    5, LENGTH =   92.00000    
                            -----------------------------------------------

                              NUMBER OF TIME STEPS =     1

                               MULTIPLIER FOR DELT =     1.500

                            INITIAL TIME STEP SIZE =   92.00000    

 WELL NO.  LAYER   ROW   COL   STRESS RATE         
 --------------------------------------------------
      1      1     11     21     -0.1135E+05
      2      1     18     20      -9351.    
      3      1     16     28     -0.1298E+05
      4      1     10     28     -0.1044E+05

      4 WELLS

                 RECHARGE =  5.000000E-04

 REUSING STREAM SEGMENT DATA FROM LAST STRESS PERIOD
 
 SOLVING FOR HEAD 


     7 CALLS TO PCG ROUTINE FOR TIME STEP   1 IN STRESS PERIOD    5
    26 TOTAL ITERATIONS

 OUTPUT CONTROL FOR STRESS PERIOD    5   TIME STEP    1
    SAVE BUDGET
    SAVE HEAD FOR ALL LAYERS
    PRINT HEAD FOR ALL LAYERS
 UBDSV2 SAVING "STREAMFLOW OUT  " ON UNIT  50 AT TIME STEP  1, STRESS PERIOD   5



 STREAM LISTING     PERIOD      5   STEP        1

 LAYER ROW COL. STREAM  RCH.  FLOW INTO     FLOW TO   FLOW OUT OF   OVRLND.     DIRECT     STREAM       STREAM     STREAM     STREAM   STREAMBED  STREAMBED
                SEG.NO.  NO.  STRM. RCH.    AQUIFER    STRM. RCH.    RUNOFF     PRECIP       ET          HEAD       DEPTH      WIDTH   CONDCTNC.   GRADIENT

   1   13    1     1     1    1.0000E+05 -2.1344E+03   1.0213E+05  0.000E+00  0.000E+00  0.000E+00  4.84069E+01  1.456E-01  2.000E+01  2.000E+04 -1.067E-01
   1   13    2     1     2    1.0213E+05 -3.1546E+03   1.0529E+05  0.000E+00  0.000E+00  0.000E+00  4.79319E+01  1.478E-01  2.000E+01  2.000E+04 -1.577E-01
   1   14    3     1     3    1.0529E+05 -5.0667E+02   1.0580E+05  0.000E+00  0.000E+00  0.000E+00  4.74562E+01  1.494E-01  2.000E+01  2.000E+04 -2.533E-02
   1   15    4     1     4    1.0580E+05 -4.7139E+02   1.0627E+05  0.000E+00  0.000E+00  0.000E+00  4.69794E+01  1.498E-01  2.000E+01  2.000E+04 -2.357E-02
   1   16    5     1     5    1.0627E+05 -1.6931E+03   1.0796E+05  0.000E+00  0.000E+00  0.000E+00  4.65030E+01  1.507E-01  2.000E+01  2.000E+04 -8.466E-02
   1   16    6     1     6    1.0796E+05 -1.0788E+03   1.0904E+05  0.000E+00  0.000E+00  0.000E+00  4.60269E+01  1.519E-01  2.000E+01  2.000E+04 -5.394E-02
   1   16    7     1     7    1.0904E+05 -1.0570E+03   1.1010E+05  0.000E+00  0.000E+00  0.000E+00  4.55505E+01  1.528E-01  2.000E+01  2.000E+04 -5.285E-02
   1   16    8     1     8    1.1010E+05 -1.0417E+03   1.1114E+05  0.000E+00  0.000E+00  0.000E+00  4.50741E+01  1.537E-01  2.000E+01  2.000E+04 -5.209E-02
   1   16    9     1     9    1.1114E+05 -1.0133E+03   1.1215E+05  0.000E+00  0.000E+00  0.000E+00  4.45977E+01  1.545E-01  2.000E+01  2.000E+04 -5.066E-02
   1   16   10     1    10    1.1215E+05 -9.6871E+02   1.1312E+05  0.000E+00  0.000E+00  0.000E+00  4.41213E+01  1.554E-01  2.000E+01  2.000E+04 -4.844E-02
   1   16   11     1    11    1.1312E+05 -9.2066E+02   1.1404E+05  0.000E+00  0.000E+00  0.000E+00  4.36448E+01  1.561E-01  2.000E+01  2.000E+04 -4.603E-02
   1   16   12     1    12    1.1404E+05 -1.4546E+03   1.1549E+05  0.000E+00  0.000E+00  0.000E+00  4.31685E+01  1.571E-01  2.000E+01  2.000E+04 -7.273E-02
   1   15   13     1    13    1.1549E+05 -1.4151E+03   1.1691E+05  0.000E+00  0.000E+00  0.000E+00  4.26924E+01  1.583E-01  2.000E+01  2.000E+04 -7.076E-02
   1   14   14     1    14    1.1691E+05 -1.7136E+03   1.1862E+05  0.000E+00  0.000E+00  0.000E+00  4.22164E+01  1.596E-01  2.000E+01  2.000E+04 -8.568E-02
   1   13   15     1    15    1.1862E+05 -2.0690E+03   1.2069E+05  0.000E+00  0.000E+00  0.000E+00  4.17406E+01  1.611E-01  2.000E+01  2.000E+04 -1.034E-01
   1   12   16     1    16    1.2069E+05 -2.8145E+03   1.2351E+05  0.000E+00  0.000E+00  0.000E+00  4.12653E+01  1.631E-01  2.000E+01  2.000E+04 -1.407E-01
   1   12   17     1    17    1.2351E+05 -1.5361E+03   1.2504E+05  0.000E+00  0.000E+00  0.000E+00  4.07898E+01  1.648E-01  2.000E+01  2.000E+04 -7.680E-02
   1   12   18     1    18    1.2504E+05 -1.1504E+03   1.2619E+05  0.000E+00  0.000E+00  0.000E+00  4.03136E+01  1.659E-01  2.000E+01  2.000E+04 -5.752E-02
   1   12   19     1    19    1.2619E+05 -2.5072E+02   1.2644E+05  0.000E+00  0.000E+00  0.000E+00  3.98369E+01  1.664E-01  2.000E+01  2.000E+04 -1.254E-02
   1   13   20     1    20    1.2644E+05  5.9113E+02   1.2585E+05  0.000E+00  0.000E+00  0.000E+00  3.93595E+01  1.663E-01  2.000E+01  2.000E+04  2.956E-02
   1   14   21     1    21    1.2585E+05  4.0227E+02   1.2545E+05  0.000E+00  0.000E+00  0.000E+00  3.88818E+01  1.659E-01  2.000E+01  2.000E+04  2.011E-02
   1   14   22     1    22    1.2545E+05  5.5218E+03   1.1993E+05  0.000E+00  0.000E+00  0.000E+00  3.84022E+01  1.635E-01  2.000E+01  2.000E+04  2.761E-01
   1    9   30     2     1    5.0000E+04  6.9893E+02   4.9301E+04  0.000E+00  0.000E+00  0.000E+00  4.02404E+01  1.154E-01  2.000E+01  2.000E+04  3.495E-02
   1    9   29     2     2    4.9301E+04  1.0162E+03   4.8285E+04  0.000E+00  0.000E+00  0.000E+00  3.99892E+01  1.142E-01  2.000E+01  2.000E+04  5.081E-02
   1    9   28     2     3    4.8285E+04  2.7407E+03   4.5544E+04  0.000E+00  0.000E+00  0.000E+00  3.97365E+01  1.115E-01  2.000E+01  2.000E+04  1.370E-01
   1    9   27     2     4    4.5544E+04 -7.6664E+02   4.6311E+04  0.000E+00  0.000E+00  0.000E+00  3.94851E+01  1.101E-01  2.000E+01  2.000E+04 -3.833E-02
   1   10   26     2     5    4.6311E+04  6.5952E+02   4.5651E+04  0.000E+00  0.000E+00  0.000E+00  3.92352E+01  1.102E-01  2.000E+01  2.000E+04  3.298E-02
   1   11   25     2     6    4.5651E+04  1.4356E+02   4.5508E+04  0.000E+00  0.000E+00  0.000E+00  3.89846E+01  1.096E-01  2.000E+01  2.000E+04  7.178E-03
   1   12   24     2     7    4.5508E+04  1.2142E+02   4.5386E+04  0.000E+00  0.000E+00  0.000E+00  3.87344E+01  1.094E-01  2.000E+01  2.000E+04  6.071E-03
   1   13   23     2     8    4.5386E+04  7.3583E+01   4.5313E+04  0.000E+00  0.000E+00  0.000E+00  3.84843E+01  1.093E-01  2.000E+01  2.000E+04  3.679E-03
   1   14   22     2     9    4.5313E+04  2.1318E+03   4.3181E+04  0.000E+00  0.000E+00  0.000E+00  3.82327E+01  1.077E-01  2.000E+01  2.000E+04  1.066E-01
   1   14   22     3     1    1.6311E+05 -8.1428E+03   1.7125E+05  0.000E+00  0.000E+00  0.000E+00  3.77189E+01  1.634E-01  2.000E+01  2.000E+04 -4.071E-01
   1   15   23     3     2    1.7125E+05 -2.5826E+02   1.7151E+05  0.000E+00  0.000E+00  0.000E+00  3.68325E+01  1.658E-01  2.000E+01  2.000E+04 -1.291E-02
   1   15   24     3     3    1.7151E+05 -1.8570E+02   1.7170E+05  0.000E+00  0.000E+00  0.000E+00  3.59437E+01  1.660E-01  2.000E+01  2.000E+04 -9.285E-03
   1   15   25     3     4    1.7170E+05 -1.8009E+02   1.7188E+05  0.000E+00  0.000E+00  0.000E+00  3.50550E+01  1.661E-01  2.000E+01  2.000E+04 -9.004E-03
   1   15   26     3     5    1.7188E+05  1.9722E+01   1.7186E+05  0.000E+00  0.000E+00  0.000E+00  3.41661E+01  1.661E-01  2.000E+01  2.000E+04  9.861E-04
   1   16   27     3     6    1.7186E+05  1.1024E+03   1.7075E+05  0.000E+00  0.000E+00  0.000E+00  3.32769E+01  1.658E-01  2.000E+01  2.000E+04  5.512E-02
   1   17   28     3     7    1.7075E+05  5.9925E+03   1.6476E+05  0.000E+00  0.000E+00  0.000E+00  3.23859E+01  1.637E-01  2.000E+01  2.000E+04  2.996E-01
   1   18   29     3     8    1.6476E+05 -1.3611E+03   1.6612E+05  0.000E+00  0.000E+00  0.000E+00  3.14957E+01  1.624E-01  2.000E+01  2.000E+04 -6.806E-02
   1   18   30     3     9    1.6612E+05 -1.7417E+03   1.6787E+05  0.000E+00  0.000E+00  0.000E+00  3.06077E+01  1.633E-01  2.000E+01  2.000E+04 -8.709E-02



1
              HEAD IN LAYER   1 AT END OF TIME STEP   1 IN STRESS PERIOD    5
  ---------------------------------------------------------------------------

          1      2      3      4      5      6      7      8      9     10
         11     12     13     14     15     16     17     18     19     20
         21     22     23     24     25     26     27     28     29     30
 .........................................................................
   1  ****** ****** ****** ****** ****** ****** ****** ****** ****** ******
      ****** ****** ****** ****** ****** ****** ****** ****** ****** ******
      ****** ****** ****** ****** ****** ****** ****** ****** ****** ******
   2  ****** ****** ****** ****** ****** ****** ****** ****** ****** ******
      ****** ****** ****** ****** ****** ****** ****** ****** ****** ******
      ****** ****** ****** ****** ****** ****** ****** ****** ****** ******
   3  ****** ****** ****** ****** ****** ****** ****** ****** ****** ******
      ****** ****** ****** ****** ****** ****** ****** ****** ****** ******
      ****** ****** ****** ****** ****** ****** ****** ****** ****** ******
   4  ****** ****** ****** ****** ****** ****** ****** ****** ****** ******
      ****** ****** ****** ****** ****** ****** ****** ****** ****** ******
      ****** ****** ****** ****** ****** ****** ****** ****** ****** ******
   5  ****** ****** ****** ****** ****** ****** ****** ****** ****** ******
      ****** ****** ****** ****** ****** ****** ****** ****** ****** ******
      ****** ****** ****** ****** ****** ****** ****** ****** ****** ******
   6  ****** ****** ****** ****** ****** ****** ****** ****** ****** ******
      ****** ****** ****** ****** ****** ****** ****** ****** ****** ******
      ****** ****** ****** ****** ****** ****** ****** ****** ****** ******
   7  ****** ****** ****** ****** ****** ****** ****** ****** ****** ******
      ****** ****** ****** ****** ****** ****** ****** ****** ****** ******
      ****** ****** ****** ****** ****** ****** ****** ****** ****** ******
   8  ****** ****** ****** ****** ****** ****** ****** ****** ****** ******
      ****** ****** ****** ****** ****** ****** ****** ****** ****** ******
      ****** ****** ****** ****** ****** ****** ****** ****** ****** ******
   9  ****** ****** ****** ****** ****** ****** ****** ****** ****** ******
      ****** ****** ****** ****** ****** ****** ****** ****** ****** ******
      ****** ****** ****** ****** ****** ****** ****** ****** ****** ******
  10  ****** ****** ****** ****** ****** ****** ****** ****** ****** ******
      ****** ****** ****** ****** ****** ****** ****** ****** ****** ******
      ****** ****** ****** ****** ****** ****** ****** ****** ****** ******
  11  ****** ****** ****** ****** ****** ****** ****** ****** ****** ******
      ****** ****** ****** ****** ****** ****** ****** ****** ****** ******
      ****** ****** ****** ****** ****** ****** ****** ****** ****** ******
  12  ****** ****** ****** ****** ****** ****** ****** ****** ****** ******
      ****** ****** ****** ****** ****** ****** ****** ****** ****** ******
      ****** ****** ****** ****** ****** ****** ****** ****** ****** ******
  13  ****** ****** ****** ****** ****** ****** ****** ****** ****** ******
      ****** ****** ****** ****** ****** ****** ****** ****** ****** ******
      ****** ****** ****** ****** ****** ****** ****** ****** ****** ******
  14  ****** ****** ****** ****** ****** ****** ****** ****** ****** ******
      ****** ****** ****** ****** ****** ****** ****** ****** ****** ******
      ****** ****** ****** ****** ****** ****** ****** ****** ****** ******
  15  ****** ****** ****** ****** ****** ****** ****** ****** ****** ******
      ****** ****** ****** ****** ****** ****** ****** ****** ****** ******
      ****** ****** ****** ****** ****** ****** ****** ****** ****** ******
  16  ****** ****** ****** ****** ****** ****** ****** ****** ****** ******
      ****** ****** ****** ****** ****** ****** ****** ****** ****** ******
      ****** ****** ****** ****** ****** ****** ****** ****** ****** ******
  17  ****** ****** ****** ****** ****** ****** ****** ****** ****** ******
      ****** ****** ****** ****** ****** ****** ****** ****** ****** ******
      ****** ****** ****** ****** ****** ****** ****** ****** ****** ******
  18  ****** ****** ****** ****** ****** ****** ****** ****** ****** ******
      ****** ****** ****** ****** ****** ****** ****** ****** ****** ******
      ****** ****** ****** ****** ****** ****** ****** ****** ****** ******
  19  ****** ****** ****** ****** ****** ****** ****** ****** ****** ******
      ****** ****** ****** ****** ****** ****** ****** ****** ****** ******
      ****** ****** ****** ****** ****** ****** ****** ****** ****** ******
  20  ****** ****** ****** ****** ****** ****** ****** ****** ****** ******
      ****** ****** ****** ****** ****** ****** ****** ****** ****** ******
      ****** ****** ****** ****** ****** ****** ****** ****** ****** ******
  21  ****** ****** ****** ****** ****** ****** ****** ****** ****** ******
      ****** ****** ****** ****** ****** ****** ****** ****** ****** ******
      ****** ****** ****** ****** ****** ****** ****** ****** ****** ******
  22  ****** ****** ****** ****** ****** ****** ****** ****** ****** ******
      ****** ****** ****** ****** ****** ****** ****** ****** ****** ******
      ****** ****** ****** ****** ****** ****** ****** ****** ****** ******
  23  ****** ****** ****** ****** ****** ****** ****** ****** ****** ******
      ****** ****** ****** ****** ****** ****** ****** ****** ****** ******
      ****** ****** ****** ****** ****** ****** ****** ****** ****** ******
  24  ****** ****** ****** ****** ****** ****** ****** ****** ****** ******
      ****** ****** ****** ****** ****** ****** ****** ****** ****** ******
      ****** ****** ****** ****** ****** ****** ****** ****** ****** ******
  25  ****** ****** ****** ****** ****** ****** ****** ****** ****** ******
      ****** ****** ****** ****** ****** ****** ****** ****** ****** ******
      ****** ****** ****** ****** ****** ****** ****** ****** ****** ******

 HEAD WILL BE SAVED ON UNIT   51 AT END OF TIME STEP    1, STRESS PERIOD    5
1
  VOLUMETRIC BUDGET FOR ENTIRE MODEL AT END OF TIME STEP    1, STRESS PERIOD   5
  ------------------------------------------------------------------------------

     CUMULATIVE VOLUMES      L**3       RATES FOR THIS TIME STEP      L**3/T
     ------------------                 ------------------------

           IN:                                      IN:
           ---                                      ---
             STORAGE =    30592350.5310               STORAGE =       17909.0781
       CONSTANT HEAD =    10168870.6435         CONSTANT HEAD =       30276.1366
               WELLS =           0.0000                 WELLS =           0.0000
            RECHARGE =    10074000.0000              RECHARGE =       13800.0000
      STREAM LEAKAGE =     6776555.2177        STREAM LEAKAGE =       21215.5669

            TOTAL IN =    57611776.3922              TOTAL IN =       83200.7817

          OUT:                                     OUT:
          ----                                     ----
             STORAGE =         493.4444               STORAGE =           0.0000
       CONSTANT HEAD =           0.0000         CONSTANT HEAD =           0.0000
               WELLS =    20162909.5046                 WELLS =       44120.1521
            RECHARGE =           0.0000              RECHARGE =           0.0000
      STREAM LEAKAGE =    37448375.7180        STREAM LEAKAGE =       39080.6326

           TOTAL OUT =    57611778.6670             TOTAL OUT =       83200.7847

            IN - OUT =          -2.2749              IN - OUT =      -3.0368E-03

 PERCENT DISCREPANCY =          -0.00     PERCENT DISCREPANCY =          -0.00






         TIME SUMMARY AT END OF TIME STEP    1 IN STRESS PERIOD    5
                    SECONDS     MINUTES      HOURS       DAYS        YEARS
                    -----------------------------------------------------------
   TIME STEP LENGTH 7.94880E+06 1.32480E+05  2208.0      92.000     0.25188    
 STRESS PERIOD TIME 7.94880E+06 1.32480E+05  2208.0      92.000     0.25188    
         TOTAL TIME 3.94848E+07 6.58080E+05  10968.      457.00      1.2512    
1
1
                            STRESS PERIOD NO.    6, LENGTH =   91.00000    
                            -----------------------------------------------

                              NUMBER OF TIME STEPS =     1

                               MULTIPLIER FOR DELT =     1.500

                            INITIAL TIME STEP SIZE =   91.00000    

 WELL NO.  LAYER   ROW   COL   STRESS RATE         
 --------------------------------------------------
      1      1     11     21     -0.1135E+05
      2      1     18     20      -9351.    
      3      1     16     28     -0.1298E+05
      4      1     10     28     -0.1044E+05

      4 WELLS

                 RECHARGE =  2.000000E-03

 REUSING STREAM SEGMENT DATA FROM LAST STRESS PERIOD
 
 SOLVING FOR HEAD 


     7 CALLS TO PCG ROUTINE FOR TIME STEP   1 IN STRESS PERIOD    6
    26 TOTAL ITERATIONS

 OUTPUT CONTROL FOR STRESS PERIOD    6   TIME STEP    1
    SAVE BUDGET
    SAVE HEAD FOR ALL LAYERS
    PRINT HEAD FOR ALL LAYERS
 UBDSV2 SAVING "STREAMFLOW OUT  " ON UNIT  50 AT TIME STEP  1, STRESS PERIOD   6



 STREAM LISTING     PERIOD      6   STEP        1

 LAYER ROW COL. STREAM  RCH.  FLOW INTO     FLOW TO   FLOW OUT OF   OVRLND.     DIRECT     STREAM       STREAM     STREAM     STREAM   STREAMBED  STREAMBED
                SEG.NO.  NO.  STRM. RCH.    AQUIFER    STRM. RCH.    RUNOFF     PRECIP       ET          HEAD       DEPTH      WIDTH   CONDCTNC.   GRADIENT

   1   13    1     1     1    1.0000E+05 -2.4564E+03   1.0246E+05  0.000E+00  0.000E+00  0.000E+00  4.84071E+01  1.457E-01  2.000E+01  2.000E+04 -1.228E-01
   1   13    2     1     2    1.0246E+05 -3.5076E+03   1.0596E+05  0.000E+00  0.000E+00  0.000E+00  4.79324E+01  1.483E-01  2.000E+01  2.000E+04 -1.754E-01
   1   14    3     1     3    1.0596E+05 -6.6258E+02   1.0663E+05  0.000E+00  0.000E+00  0.000E+00  4.74569E+01  1.500E-01  2.000E+01  2.000E+04 -3.313E-02
   1   15    4     1     4    1.0663E+05 -6.3844E+02   1.0727E+05  0.000E+00  0.000E+00  0.000E+00  4.69801E+01  1.506E-01  2.000E+01  2.000E+04 -3.192E-02
   1   16    5     1     5    1.0727E+05 -2.1888E+03   1.0945E+05  0.000E+00  0.000E+00  0.000E+00  4.65041E+01  1.518E-01  2.000E+01  2.000E+04 -1.094E-01
   1   16    6     1     6    1.0945E+05 -1.3699E+03   1.1082E+05  0.000E+00  0.000E+00  0.000E+00  4.60283E+01  1.533E-01  2.000E+01  2.000E+04 -6.849E-02
   1   16    7     1     7    1.1082E+05 -1.3328E+03   1.1216E+05  0.000E+00  0.000E+00  0.000E+00  4.55521E+01  1.544E-01  2.000E+01  2.000E+04 -6.664E-02
   1   16    8     1     8    1.1216E+05 -1.3128E+03   1.1347E+05  0.000E+00  0.000E+00  0.000E+00  4.50760E+01  1.555E-01  2.000E+01  2.000E+04 -6.564E-02
   1   16    9     1     9    1.1347E+05 -1.2836E+03   1.1475E+05  0.000E+00  0.000E+00  0.000E+00  4.45998E+01  1.566E-01  2.000E+01  2.000E+04 -6.418E-02
   1   16   10     1    10    1.1475E+05 -1.2401E+03   1.1599E+05  0.000E+00  0.000E+00  0.000E+00  4.41235E+01  1.576E-01  2.000E+01  2.000E+04 -6.201E-02
   1   16   11     1    11    1.1599E+05 -1.1946E+03   1.1719E+05  0.000E+00  0.000E+00  0.000E+00  4.36472E+01  1.586E-01  2.000E+01  2.000E+04 -5.973E-02
   1   16   12     1    12    1.1719E+05 -1.8962E+03   1.1908E+05  0.000E+00  0.000E+00  0.000E+00  4.31712E+01  1.599E-01  2.000E+01  2.000E+04 -9.481E-02
   1   15   13     1    13    1.1908E+05 -1.8701E+03   1.2095E+05  0.000E+00  0.000E+00  0.000E+00  4.26955E+01  1.614E-01  2.000E+01  2.000E+04 -9.350E-02
   1   14   14     1    14    1.2095E+05 -2.1660E+03   1.2312E+05  0.000E+00  0.000E+00  0.000E+00  4.22198E+01  1.630E-01  2.000E+01  2.000E+04 -1.083E-01
   1   13   15     1    15    1.2312E+05 -2.5044E+03   1.2562E+05  0.000E+00  0.000E+00  0.000E+00  4.17444E+01  1.649E-01  2.000E+01  2.000E+04 -1.252E-01
   1   12   16     1    16    1.2562E+05 -3.2082E+03   1.2883E+05  0.000E+00  0.000E+00  0.000E+00  4.12694E+01  1.671E-01  2.000E+01  2.000E+04 -1.604E-01
   1   12   17     1    17    1.2883E+05 -1.8536E+03   1.3069E+05  0.000E+00  0.000E+00  0.000E+00  4.07941E+01  1.691E-01  2.000E+01  2.000E+04 -9.268E-02
   1   12   18     1    18    1.3069E+05 -1.4709E+03   1.3216E+05  0.000E+00  0.000E+00  0.000E+00  4.03181E+01  1.704E-01  2.000E+01  2.000E+04 -7.354E-02
   1   12   19     1    19    1.3216E+05 -6.4969E+02   1.3281E+05  0.000E+00  0.000E+00  0.000E+00  3.98417E+01  1.712E-01  2.000E+01  2.000E+04 -3.248E-02
   1   13   20     1    20    1.3281E+05  1.7019E+02   1.3264E+05  0.000E+00  0.000E+00  0.000E+00  3.93646E+01  1.714E-01  2.000E+01  2.000E+04  8.509E-03
   1   14   21     1    21    1.3264E+05 -3.0851E+00   1.3264E+05  0.000E+00  0.000E+00  0.000E+00  3.88873E+01  1.714E-01  2.000E+01  2.000E+04 -1.543E-04
   1   14   22     1    22    1.3264E+05  5.4128E+03   1.2723E+05  0.000E+00  0.000E+00  0.000E+00  3.84079E+01  1.693E-01  2.000E+01  2.000E+04  2.706E-01
   1    9   30     2     1    5.0000E+04  3.3395E+02   4.9666E+04  0.000E+00  0.000E+00  0.000E+00  4.02406E+01  1.156E-01  2.000E+01  2.000E+04  1.670E-02
   1    9   29     2     2    4.9666E+04  6.5539E+02   4.9011E+04  0.000E+00  0.000E+00  0.000E+00  3.99899E+01  1.149E-01  2.000E+01  2.000E+04  3.277E-02
   1    9   28     2     3    4.9011E+04  2.3864E+03   4.6624E+04  0.000E+00  0.000E+00  0.000E+00  3.97378E+01  1.128E-01  2.000E+01  2.000E+04  1.193E-01
   1    9   27     2     4    4.6624E+04 -1.2164E+03   4.7841E+04  0.000E+00  0.000E+00  0.000E+00  3.94870E+01  1.120E-01  2.000E+01  2.000E+04 -6.082E-02
   1   10   26     2     5    4.7841E+04  1.8656E+02   4.7654E+04  0.000E+00  0.000E+00  0.000E+00  3.92377E+01  1.127E-01  2.000E+01  2.000E+04  9.328E-03
   1   11   25     2     6    4.7654E+04 -3.1446E+02   4.7969E+04  0.000E+00  0.000E+00  0.000E+00  3.89878E+01  1.128E-01  2.000E+01  2.000E+04 -1.572E-02
   1   12   24     2     7    4.7969E+04 -2.9174E+02   4.8260E+04  0.000E+00  0.000E+00  0.000E+00  3.87382E+01  1.132E-01  2.000E+01  2.000E+04 -1.459E-02
   1   13   23     2     8    4.8260E+04 -6.4710E+01   4.8325E+04  0.000E+00  0.000E+00  0.000E+00  3.84885E+01  1.135E-01  2.000E+01  2.000E+04 -3.235E-03
   1   14   22     2     9    4.8325E+04  1.9970E+03   4.6328E+04  0.000E+00  0.000E+00  0.000E+00  3.82371E+01  1.121E-01  2.000E+01  2.000E+04  9.985E-02
   1   14   22     3     1    1.7355E+05 -8.2448E+03   1.8180E+05  0.000E+00  0.000E+00  0.000E+00  3.77250E+01  1.695E-01  2.000E+01  2.000E+04 -4.122E-01
   1   15   23     3     2    1.8180E+05 -3.9347E+02   1.8219E+05  0.000E+00  0.000E+00  0.000E+00  3.68386E+01  1.719E-01  2.000E+01  2.000E+04 -1.967E-02
   1   15   24     3     3    1.8219E+05 -3.0635E+02   1.8250E+05  0.000E+00  0.000E+00  0.000E+00  3.59499E+01  1.721E-01  2.000E+01  2.000E+04 -1.532E-02
   1   15   25     3     4    1.8250E+05 -3.0531E+02   1.8280E+05  0.000E+00  0.000E+00  0.000E+00  3.50612E+01  1.723E-01  2.000E+01  2.000E+04 -1.527E-02
   1   15   26     3     5    1.8280E+05 -1.3069E+02   1.8294E+05  0.000E+00  0.000E+00  0.000E+00  3.41724E+01  1.724E-01  2.000E+01  2.000E+04 -6.534E-03
   1   16   27     3     6    1.8294E+05  9.3518E+02   1.8200E+05  0.000E+00  0.000E+00  0.000E+00  3.32833E+01  1.722E-01  2.000E+01  2.000E+04  4.676E-02
   1   17   28     3     7    1.8200E+05  5.5346E+03   1.7647E+05  0.000E+00  0.000E+00  0.000E+00  3.23926E+01  1.704E-01  2.000E+01  2.000E+04  2.767E-01
   1   18   29     3     8    1.7647E+05 -1.7920E+03   1.7826E+05  0.000E+00  0.000E+00  0.000E+00  3.15026E+01  1.693E-01  2.000E+01  2.000E+04 -8.960E-02
   1   18   30     3     9    1.7826E+05 -2.0925E+03   1.8035E+05  0.000E+00  0.000E+00  0.000E+00  3.06148E+01  1.704E-01  2.000E+01  2.000E+04 -1.046E-01



1
              HEAD IN LAYER   1 AT END OF TIME STEP   1 IN STRESS PERIOD    6
  ---------------------------------------------------------------------------

          1      2      3      4      5      6      7      8      9     10
         11     12     13     14     15     16     17     18     19     20
         21     22     23     24     25     26     27     28     29     30
 .........................................................................
   1  ****** ****** ****** ****** ****** ****** ****** ****** ****** ******
      ****** ****** ****** ****** ****** ****** ****** ****** ****** ******
      ****** ****** ****** ****** ****** ****** ****** ****** ****** ******
   2  ****** ****** ****** ****** ****** ****** ****** ****** ****** ******
      ****** ****** ****** ****** ****** ****** ****** ****** ****** ******
      ****** ****** ****** ****** ****** ****** ****** ****** ****** ******
   3  ****** ****** ****** ****** ****** ****** ****** ****** ****** ******
      ****** ****** ****** ****** ****** ****** ****** ****** ****** ******
      ****** ****** ****** ****** ****** ****** ****** ****** ****** ******
   4  ****** ****** ****** ****** ****** ****** ****** ****** ****** ******
      ****** ****** ****** ****** ****** ****** ****** ****** ****** ******
      ****** ****** ****** ****** ****** ****** ****** ****** ****** ******
   5  ****** ****** ****** ****** ****** ****** ****** ****** ****** ******
      ****** ****** ****** ****** ****** ****** ****** ****** ****** ******
      ****** ****** ****** ****** ****** ****** ****** ****** ****** ******
   6  ****** ****** ****** ****** ****** ****** ****** ****** ****** ******
      ****** ****** ****** ****** ****** ****** ****** ****** ****** ******
      ****** ****** ****** ****** ****** ****** ****** ****** ****** ******
   7  ****** ****** ****** ****** ****** ****** ****** ****** ****** ******
      ****** ****** ****** ****** ****** ****** ****** ****** ****** ******
      ****** ****** ****** ****** ****** ****** ****** ****** ****** ******
   8  ****** ****** ****** ****** ****** ****** ****** ****** ****** ******
      ****** ****** ****** ****** ****** ****** ****** ****** ****** ******
      ****** ****** ****** ****** ****** ****** ****** ****** ****** ******
   9  ****** ****** ****** ****** ****** ****** ****** ****** ****** ******
      ****** ****** ****** ****** ****** ****** ****** ****** ****** ******
      ****** ****** ****** ****** ****** ****** ****** ****** ****** ******
  10  ****** ****** ****** ****** ****** ****** ****** ****** ****** ******
      ****** ****** ****** ****** ****** ****** ****** ****** ****** ******
      ****** ****** ****** ****** ****** ****** ****** ****** ****** ******
  11  ****** ****** ****** ****** ****** ****** ****** ****** ****** ******
      ****** ****** ****** ****** ****** ****** ****** ****** ****** ******
      ****** ****** ****** ****** ****** ****** ****** ****** ****** ******
  12  ****** ****** ****** ****** ****** ****** ****** ****** ****** ******
      ****** ****** ****** ****** ****** ****** ****** ****** ****** ******
      ****** ****** ****** ****** ****** ****** ****** ****** ****** ******
  13  ****** ****** ****** ****** ****** ****** ****** ****** ****** ******
      ****** ****** ****** ****** ****** ****** ****** ****** ****** ******
      ****** ****** ****** ****** ****** ****** ****** ****** ****** ******
  14  ****** ****** ****** ****** ****** ****** ****** ****** ****** ******
      ****** ****** ****** ****** ****** ****** ****** ****** ****** ******
      ****** ****** ****** ****** ****** ****** ****** ****** ****** ******
  15  ****** ****** ****** ****** ****** ****** ****** ****** ****** ******
      ****** ****** ****** ****** ****** ****** ****** ****** ****** ******
      ****** ****** ****** ****** ****** ****** ****** ****** ****** ******
  16  ****** ****** ****** ****** ****** ****** ****** ****** ****** ******
      ****** ****** ****** ****** ****** ****** ****** ****** ****** ******
      ****** ****** ****** ****** ****** ****** ****** ****** ****** ******
  17  ****** ****** ****** ****** ****** ****** ****** ****** ****** ******
      ****** ****** ****** ****** ****** ****** ****** ****** ****** ******
      ****** ****** ****** ****** ****** ****** ****** ****** ****** ******
  18  ****** ****** ****** ****** ****** ****** ****** ****** ****** ******
      ****** ****** ****** ****** ****** ****** ****** ****** ****** ******
      ****** ****** ****** ****** ****** ****** ****** ****** ****** ******
  19  ****** ****** ****** ****** ****** ****** ****** ****** ****** ******
      ****** ****** ****** ****** ****** ****** ****** ****** ****** ******
      ****** ****** ****** ****** ****** ****** ****** ****** ****** ******
  20  ****** ****** ****** ****** ****** ****** ****** ****** ****** ******
      ****** ****** ****** ****** ****** ****** ****** ****** ****** ******
      ****** ****** ****** ****** ****** ****** ****** ****** ****** ******
  21  ****** ****** ****** ****** ****** ****** ****** ****** ****** ******
      ****** ****** ****** ****** ****** ****** ****** ****** ****** ******
      ****** ****** ****** ****** ****** ****** ****** ****** ****** ******
  22  ****** ****** ****** ****** ****** ****** ****** ****** ****** ******
      ****** ****** ****** ****** ****** ****** ****** ****** ****** ******
      ****** ****** ****** ****** ****** ****** ****** ****** ****** ******
  23  ****** ****** ****** ****** ****** ****** ****** ****** ****** ******
      ****** ****** ****** ****** ****** ****** ****** ****** ****** ******
      ****** ****** ****** ****** ****** ****** ****** ****** ****** ******
  24  ****** ****** ****** ****** ****** ****** ****** ****** ****** ******
      ****** ****** ****** ****** ****** ****** ****** ****** ****** ******
      ****** ****** ****** ****** ****** ****** ****** ****** ****** ******
  25  ****** ****** ****** ****** ****** ****** ****** ****** ****** ******
      ****** ****** ****** ****** ****** ****** ****** ****** ****** ******
      ****** ****** ****** ****** ****** ****** ****** ****** ****** ******

 HEAD WILL BE SAVED ON UNIT   51 AT END OF TIME STEP    1, STRESS PERIOD    6
1
  VOLUMETRIC BUDGET FOR ENTIRE MODEL AT END OF TIME STEP    1, STRESS PERIOD   6
  ------------------------------------------------------------------------------

     CUMULATIVE VOLUMES      L**3       RATES FOR THIS TIME STEP      L**3/T
     ------------------                 ------------------------

           IN:                                      IN:
           ---                                      ---
             STORAGE =    30592350.5310               STORAGE =           0.0000
       CONSTANT HEAD =    12747506.9270         CONSTANT HEAD =       28336.6625
               WELLS =           0.0000                 WELLS =           0.0000
            RECHARGE =    15097200.0000              RECHARGE =       55200.0000
      STREAM LEAKAGE =     8379241.0447        STREAM LEAKAGE =       17611.9322

            TOTAL IN =    66816298.5027              TOTAL IN =      101148.5946

          OUT:                                     OUT:
          ----                                     ----
             STORAGE =      825524.8044               STORAGE =        9066.2787
       CONSTANT HEAD =           0.0000         CONSTANT HEAD =           0.0000
               WELLS =    24177843.3447                 WELLS =       44120.1521
            RECHARGE =           0.0000              RECHARGE =           0.0000
      STREAM LEAKAGE =    41812932.3641        STREAM LEAKAGE =       47962.1609

           TOTAL OUT =    66816300.5131             TOTAL OUT =      101148.5917

            IN - OUT =          -2.0105              IN - OUT =       2.9054E-03

 PERCENT DISCREPANCY =          -0.00     PERCENT DISCREPANCY =           0.00






         TIME SUMMARY AT END OF TIME STEP    1 IN STRESS PERIOD    6
                    SECONDS     MINUTES      HOURS       DAYS        YEARS
                    -----------------------------------------------------------
   TIME STEP LENGTH 7.86240E+06 1.31040E+05  2184.0      91.000     0.24914    
 STRESS PERIOD TIME 7.86240E+06 1.31040E+05  2184.0      91.000     0.24914    
         TOTAL TIME 4.73472E+07 7.89120E+05  13152.      548.00      1.5003    
1
1
                            STRESS PERIOD NO.    7, LENGTH =   91.00000    
                            -----------------------------------------------

                              NUMBER OF TIME STEPS =     1

                               MULTIPLIER FOR DELT =     1.500

                            INITIAL TIME STEP SIZE =   91.00000    

 WELL NO.  LAYER   ROW   COL   STRESS RATE         
 --------------------------------------------------
      1      1     11     21     -0.1135E+05
      2      1     18     20      -9351.    
      3      1     16     28     -0.1298E+05
      4      1     10     28     -0.1044E+05

      4 WELLS

                 RECHARGE =   0.00000    

 REUSING STREAM SEGMENT DATA FROM LAST STRESS PERIOD
 
 SOLVING FOR HEAD 


     7 CALLS TO PCG ROUTINE FOR TIME STEP   1 IN STRESS PERIOD    7
    26 TOTAL ITERATIONS

 OUTPUT CONTROL FOR STRESS PERIOD    7   TIME STEP    1
    SAVE BUDGET
    SAVE HEAD FOR ALL LAYERS
    PRINT HEAD FOR ALL LAYERS
 UBDSV2 SAVING "STREAMFLOW OUT  " ON UNIT  50 AT TIME STEP  1, STRESS PERIOD   7



 STREAM LISTING     PERIOD      7   STEP        1

 LAYER ROW COL. STREAM  RCH.  FLOW INTO     FLOW TO   FLOW OUT OF   OVRLND.     DIRECT     STREAM       STREAM     STREAM     STREAM   STREAMBED  STREAMBED
                SEG.NO.  NO.  STRM. RCH.    AQUIFER    STRM. RCH.    RUNOFF     PRECIP       ET          HEAD       DEPTH      WIDTH   CONDCTNC.   GRADIENT

   1   13    1     1     1    1.0000E+05 -1.7966E+03   1.0180E+05  0.000E+00  0.000E+00  0.000E+00  4.84068E+01  1.454E-01  2.000E+01  2.000E+04 -8.983E-02
   1   13    2     1     2    1.0180E+05 -2.7696E+03   1.0457E+05  0.000E+00  0.000E+00  0.000E+00  4.79315E+01  1.474E-01  2.000E+01  2.000E+04 -1.385E-01
   1   14    3     1     3    1.0457E+05 -4.1157E+02   1.0498E+05  0.000E+00  0.000E+00  0.000E+00  4.74556E+01  1.488E-01  2.000E+01  2.000E+04 -2.058E-02
   1   15    4     1     4    1.0498E+05 -3.7641E+02   1.0535E+05  0.000E+00  0.000E+00  0.000E+00  4.69786E+01  1.491E-01  2.000E+01  2.000E+04 -1.882E-02
   1   16    5     1     5    1.0535E+05 -1.4351E+03   1.0679E+05  0.000E+00  0.000E+00  0.000E+00  4.65021E+01  1.499E-01  2.000E+01  2.000E+04 -7.176E-02
   1   16    6     1     6    1.0679E+05 -9.1561E+02   1.0770E+05  0.000E+00  0.000E+00  0.000E+00  4.60259E+01  1.509E-01  2.000E+01  2.000E+04 -4.578E-02
   1   16    7     1     7    1.0770E+05 -8.9691E+02   1.0860E+05  0.000E+00  0.000E+00  0.000E+00  4.55493E+01  1.516E-01  2.000E+01  2.000E+04 -4.485E-02
   1   16    8     1     8    1.0860E+05 -8.8276E+02   1.0948E+05  0.000E+00  0.000E+00  0.000E+00  4.50728E+01  1.524E-01  2.000E+01  2.000E+04 -4.414E-02
   1   16    9     1     9    1.0948E+05 -8.5645E+02   1.1034E+05  0.000E+00  0.000E+00  0.000E+00  4.45963E+01  1.531E-01  2.000E+01  2.000E+04 -4.282E-02
   1   16   10     1    10    1.1034E+05 -8.1512E+02   1.1116E+05  0.000E+00  0.000E+00  0.000E+00  4.41197E+01  1.538E-01  2.000E+01  2.000E+04 -4.076E-02
   1   16   11     1    11    1.1116E+05 -7.6785E+02   1.1192E+05  0.000E+00  0.000E+00  0.000E+00  4.36431E+01  1.544E-01  2.000E+01  2.000E+04 -3.839E-02
   1   16   12     1    12    1.1192E+05 -1.1788E+03   1.1310E+05  0.000E+00  0.000E+00  0.000E+00  4.31666E+01  1.553E-01  2.000E+01  2.000E+04 -5.894E-02
   1   15   13     1    13    1.1310E+05 -1.1032E+03   1.1421E+05  0.000E+00  0.000E+00  0.000E+00  4.26903E+01  1.562E-01  2.000E+01  2.000E+04 -5.516E-02
   1   14   14     1    14    1.1421E+05 -1.3730E+03   1.1558E+05  0.000E+00  0.000E+00  0.000E+00  4.22140E+01  1.572E-01  2.000E+01  2.000E+04 -6.865E-02
   1   13   15     1    15    1.1558E+05 -1.7109E+03   1.1729E+05  0.000E+00  0.000E+00  0.000E+00  4.17380E+01  1.585E-01  2.000E+01  2.000E+04 -8.555E-02
   1   12   16     1    16    1.1729E+05 -2.4239E+03   1.1971E+05  0.000E+00  0.000E+00  0.000E+00  4.12624E+01  1.602E-01  2.000E+01  2.000E+04 -1.212E-01
   1   12   17     1    17    1.1971E+05 -1.2812E+03   1.2099E+05  0.000E+00  0.000E+00  0.000E+00  4.07867E+01  1.617E-01  2.000E+01  2.000E+04 -6.406E-02
   1   12   18     1    18    1.2099E+05 -9.1175E+02   1.2191E+05  0.000E+00  0.000E+00  0.000E+00  4.03103E+01  1.625E-01  2.000E+01  2.000E+04 -4.559E-02
   1   12   19     1    19    1.2191E+05  3.3112E+01   1.2187E+05  0.000E+00  0.000E+00  0.000E+00  3.98333E+01  1.629E-01  2.000E+01  2.000E+04  1.656E-03
   1   13   20     1    20    1.2187E+05  8.3911E+02   1.2103E+05  0.000E+00  0.000E+00  0.000E+00  3.93557E+01  1.625E-01  2.000E+01  2.000E+04  4.196E-02
   1   14   21     1    21    1.2103E+05  6.6037E+02   1.2037E+05  0.000E+00  0.000E+00  0.000E+00  3.88779E+01  1.619E-01  2.000E+01  2.000E+04  3.302E-02
   1   14   22     1    22    1.2037E+05  5.5760E+03   1.1480E+05  0.000E+00  0.000E+00  0.000E+00  3.83981E+01  1.594E-01  2.000E+01  2.000E+04  2.788E-01
   1    9   30     2     1    5.0000E+04  8.4649E+02   4.9154E+04  0.000E+00  0.000E+00  0.000E+00  4.02403E+01  1.153E-01  2.000E+01  2.000E+04  4.232E-02
   1    9   29     2     2    4.9154E+04  1.1661E+03   4.7987E+04  0.000E+00  0.000E+00  0.000E+00  3.99889E+01  1.139E-01  2.000E+01  2.000E+04  5.830E-02
   1    9   28     2     3    4.7987E+04  2.8981E+03   4.5089E+04  0.000E+00  0.000E+00  0.000E+00  3.97360E+01  1.110E-01  2.000E+01  2.000E+04  1.449E-01
   1    9   27     2     4    4.5089E+04 -5.2227E+02   4.5612E+04  0.000E+00  0.000E+00  0.000E+00  3.94843E+01  1.093E-01  2.000E+01  2.000E+04 -2.611E-02
   1   10   26     2     5    4.5612E+04  8.8312E+02   4.4728E+04  0.000E+00  0.000E+00  0.000E+00  3.92340E+01  1.090E-01  2.000E+01  2.000E+04  4.416E-02
   1   11   25     2     6    4.4728E+04  3.5355E+02   4.4375E+04  0.000E+00  0.000E+00  0.000E+00  3.89831E+01  1.081E-01  2.000E+01  2.000E+04  1.768E-02
   1   12   24     2     7    4.4375E+04  3.1701E+02   4.4058E+04  0.000E+00  0.000E+00  0.000E+00  3.87326E+01  1.076E-01  2.000E+01  2.000E+04  1.585E-02
   1   13   23     2     8    4.4058E+04  1.2670E+02   4.3931E+04  0.000E+00  0.000E+00  0.000E+00  3.84823E+01  1.073E-01  2.000E+01  2.000E+04  6.335E-03
   1   14   22     2     9    4.3931E+04  2.2264E+03   4.1705E+04  0.000E+00  0.000E+00  0.000E+00  3.82306E+01  1.056E-01  2.000E+01  2.000E+04  1.113E-01
   1   14   22     3     1    1.5650E+05 -8.0847E+03   1.6459E+05  0.000E+00  0.000E+00  0.000E+00  3.77150E+01  1.595E-01  2.000E+01  2.000E+04 -4.042E-01
   1   15   23     3     2    1.6459E+05 -1.8643E+02   1.6477E+05  0.000E+00  0.000E+00  0.000E+00  3.68286E+01  1.619E-01  2.000E+01  2.000E+04 -9.321E-03
   1   15   24     3     3    1.6477E+05 -1.3234E+02   1.6491E+05  0.000E+00  0.000E+00  0.000E+00  3.59398E+01  1.620E-01  2.000E+01  2.000E+04 -6.617E-03
   1   15   25     3     4    1.6491E+05 -1.2826E+02   1.6503E+05  0.000E+00  0.000E+00  0.000E+00  3.50510E+01  1.621E-01  2.000E+01  2.000E+04 -6.413E-03
   1   15   26     3     5    1.6503E+05  7.0772E+01   1.6496E+05  0.000E+00  0.000E+00  0.000E+00  3.41621E+01  1.621E-01  2.000E+01  2.000E+04  3.539E-03
   1   16   27     3     6    1.6496E+05  1.1679E+03   1.6380E+05  0.000E+00  0.000E+00  0.000E+00  3.32728E+01  1.617E-01  2.000E+01  2.000E+04  5.840E-02
   1   17   28     3     7    1.6380E+05  6.1774E+03   1.5762E+05  0.000E+00  0.000E+00  0.000E+00  3.23818E+01  1.596E-01  2.000E+01  2.000E+04  3.089E-01
   1   18   29     3     8    1.5762E+05 -1.1033E+03   1.5872E+05  0.000E+00  0.000E+00  0.000E+00  3.14914E+01  1.580E-01  2.000E+01  2.000E+04 -5.516E-02
   1   18   30     3     9    1.5872E+05 -1.5625E+03   1.6028E+05  0.000E+00  0.000E+00  0.000E+00  3.06033E+01  1.588E-01  2.000E+01  2.000E+04 -7.812E-02



1
              HEAD IN LAYER   1 AT END OF TIME STEP   1 IN STRESS PERIOD    7
  ---------------------------------------------------------------------------

          1      2      3      4      5      6      7      8      9     10
         11     12     13     14     15     16     17     18     19     20
         21     22     23     24     25     26     27     28     29     30
 .........................................................................
   1  ****** ****** ****** ****** ****** ****** ****** ****** ****** ******
      ****** ****** ****** ****** ****** ****** ****** ****** ****** ******
      ****** ****** ****** ****** ****** ****** ****** ****** ****** ******
   2  ****** ****** ****** ****** ****** ****** ****** ****** ****** ******
      ****** ****** ****** ****** ****** ****** ****** ****** ****** ******
      ****** ****** ****** ****** ****** ****** ****** ****** ****** ******
   3  ****** ****** ****** ****** ****** ****** ****** ****** ****** ******
      ****** ****** ****** ****** ****** ****** ****** ****** ****** ******
      ****** ****** ****** ****** ****** ****** ****** ****** ****** ******
   4  ****** ****** ****** ****** ****** ****** ****** ****** ****** ******
      ****** ****** ****** ****** ****** ****** ****** ****** ****** ******
      ****** ****** ****** ****** ****** ****** ****** ****** ****** ******
   5  ****** ****** ****** ****** ****** ****** ****** ****** ****** ******
      ****** ****** ****** ****** ****** ****** ****** ****** ****** ******
      ****** ****** ****** ****** ****** ****** ****** ****** ****** ******
   6  ****** ****** ****** ****** ****** ****** ****** ****** ****** ******
      ****** ****** ****** ****** ****** ****** ****** ****** ****** ******
      ****** ****** ****** ****** ****** ****** ****** ****** ****** ******
   7  ****** ****** ****** ****** ****** ****** ****** ****** ****** ******
      ****** ****** ****** ****** ****** ****** ****** ****** ****** ******
      ****** ****** ****** ****** ****** ****** ****** ****** ****** ******
   8  ****** ****** ****** ****** ****** ****** ****** ****** ****** ******
      ****** ****** ****** ****** ****** ****** ****** ****** ****** ******
      ****** ****** ****** ****** ****** ****** ****** ****** ****** ******
   9  ****** ****** ****** ****** ****** ****** ****** ****** ****** ******
      ****** ****** ****** ****** ****** ****** ****** ****** ****** ******
      ****** ****** ****** ****** ****** ****** ****** ****** ****** ******
  10  ****** ****** ****** ****** ****** ****** ****** ****** ****** ******
      ****** ****** ****** ****** ****** ****** ****** ****** ****** ******
      ****** ****** ****** ****** ****** ****** ****** ****** ****** ******
  11  ****** ****** ****** ****** ****** ****** ****** ****** ****** ******
      ****** ****** ****** ****** ****** ****** ****** ****** ****** ******
      ****** ****** ****** ****** ****** ****** ****** ****** ****** ******
  12  ****** ****** ****** ****** ****** ****** ****** ****** ****** ******
      ****** ****** ****** ****** ****** ****** ****** ****** ****** ******
      ****** ****** ****** ****** ****** ****** ****** ****** ****** ******
  13  ****** ****** ****** ****** ****** ****** ****** ****** ****** ******
      ****** ****** ****** ****** ****** ****** ****** ****** ****** ******
      ****** ****** ****** ****** ****** ****** ****** ****** ****** ******
  14  ****** ****** ****** ****** ****** ****** ****** ****** ****** ******
      ****** ****** ****** ****** ****** ****** ****** ****** ****** ******
      ****** ****** ****** ****** ****** ****** ****** ****** ****** ******
  15  ****** ****** ****** ****** ****** ****** ****** ****** ****** ******
      ****** ****** ****** ****** ****** ****** ****** ****** ****** ******
      ****** ****** ****** ****** ****** ****** ****** ****** ****** ******
  16  ****** ****** ****** ****** ****** ****** ****** ****** ****** ******
      ****** ****** ****** ****** ****** ****** ****** ****** ****** ******
      ****** ****** ****** ****** ****** ****** ****** ****** ****** ******
  17  ****** ****** ****** ****** ****** ****** ****** ****** ****** ******
      ****** ****** ****** ****** ****** ****** ****** ****** ****** ******
      ****** ****** ****** ****** ****** ****** ****** ****** ****** ******
  18  ****** ****** ****** ****** ****** ****** ****** ****** ****** ******
      ****** ****** ****** ****** ****** ****** ****** ****** ****** ******
      ****** ****** ****** ****** ****** ****** ****** ****** ****** ******
  19  ****** ****** ****** ****** ****** ****** ****** ****** ****** ******
      ****** ****** ****** ****** ****** ****** ****** ****** ****** ******
      ****** ****** ****** ****** ****** ****** ****** ****** ****** ******
  20  ****** ****** ****** ****** ****** ****** ****** ****** ****** ******
      ****** ****** ****** ****** ****** ****** ****** ****** ****** ******
      ****** ****** ****** ****** ****** ****** ****** ****** ****** ******
  21  ****** ****** ****** ****** ****** ****** ****** ****** ****** ******
      ****** ****** ****** ****** ****** ****** ****** ****** ****** ******
      ****** ****** ****** ****** ****** ****** ****** ****** ****** ******
  22  ****** ****** ****** ****** ****** ****** ****** ****** ****** ******
      ****** ****** ****** ****** ****** ****** ****** ****** ****** ******
      ****** ****** ****** ****** ****** ****** ****** ****** ****** ******
  23  ****** ****** ****** ****** ****** ****** ****** ****** ****** ******
      ****** ****** ****** ****** ****** ****** ****** ****** ****** ******
      ****** ****** ****** ****** ****** ****** ****** ****** ****** ******
  24  ****** ****** ****** ****** ****** ****** ****** ****** ****** ******
      ****** ****** ****** ****** ****** ****** ****** ****** ****** ******
      ****** ****** ****** ****** ****** ****** ****** ****** ****** ******
  25  ****** ****** ****** ****** ****** ****** ****** ****** ****** ******
      ****** ****** ****** ****** ****** ****** ****** ****** ****** ******
      ****** ****** ****** ****** ****** ****** ****** ****** ****** ******

 HEAD WILL BE SAVED ON UNIT   51 AT END OF TIME STEP    1, STRESS PERIOD    7
1
  VOLUMETRIC BUDGET FOR ENTIRE MODEL AT END OF TIME STEP    1, STRESS PERIOD   7
  ------------------------------------------------------------------------------

     CUMULATIVE VOLUMES      L**3       RATES FOR THIS TIME STEP      L**3/T
     ------------------                 ------------------------

           IN:                                      IN:
           ---                                      ---
             STORAGE =    32609303.1418               STORAGE =       22164.3144
       CONSTANT HEAD =    15681364.8075         CONSTANT HEAD =       32240.1965
               WELLS =           0.0000                 WELLS =           0.0000
            RECHARGE =    15097200.0000              RECHARGE =           0.0000
      STREAM LEAKAGE =    10503373.4404        STREAM LEAKAGE =       23342.1142

            TOTAL IN =    73891241.3897              TOTAL IN =       77746.6251

          OUT:                                     OUT:
          ----                                     ----
             STORAGE =      825524.8044               STORAGE =           0.0000
       CONSTANT HEAD =           0.0000         CONSTANT HEAD =           0.0000
               WELLS =    28192777.1848                 WELLS =       44120.1521
            RECHARGE =           0.0000              RECHARGE =           0.0000
      STREAM LEAKAGE =    44872941.9066        STREAM LEAKAGE =       33626.4785

           TOTAL OUT =    73891243.8958             TOTAL OUT =       77746.6306

            IN - OUT =          -2.5061              IN - OUT =      -5.4465E-03

 PERCENT DISCREPANCY =          -0.00     PERCENT DISCREPANCY =          -0.00






         TIME SUMMARY AT END OF TIME STEP    1 IN STRESS PERIOD    7
                    SECONDS     MINUTES      HOURS       DAYS        YEARS
                    -----------------------------------------------------------
   TIME STEP LENGTH 7.86240E+06 1.31040E+05  2184.0      91.000     0.24914    
 STRESS PERIOD TIME 7.86240E+06 1.31040E+05  2184.0      91.000     0.24914    
         TOTAL TIME 5.52096E+07 9.20160E+05  15336.      639.00      1.7495    
1
1
                            STRESS PERIOD NO.    8, LENGTH =   91.00000    
                            -----------------------------------------------

                              NUMBER OF TIME STEPS =     1

                               MULTIPLIER FOR DELT =     1.500

                            INITIAL TIME STEP SIZE =   91.00000    

 WELL NO.  LAYER   ROW   COL   STRESS RATE         
 --------------------------------------------------
      1      1     11     21     -0.1135E+05
      2      1     18     20      -9351.    
      3      1     16     28     -0.1298E+05
      4      1     10     28     -0.1044E+05

      4 WELLS

                 RECHARGE =  1.000000E-03

 REUSING STREAM SEGMENT DATA FROM LAST STRESS PERIOD
 
 SOLVING FOR HEAD 


     6 CALLS TO PCG ROUTINE FOR TIME STEP   1 IN STRESS PERIOD    8
    22 TOTAL ITERATIONS

 OUTPUT CONTROL FOR STRESS PERIOD    8   TIME STEP    1
    SAVE BUDGET
    SAVE HEAD FOR ALL LAYERS
    PRINT HEAD FOR ALL LAYERS
 UBDSV2 SAVING "STREAMFLOW OUT  " ON UNIT  50 AT TIME STEP  1, STRESS PERIOD   8



 STREAM LISTING     PERIOD      8   STEP        1

 LAYER ROW COL. STREAM  RCH.  FLOW INTO     FLOW TO   FLOW OUT OF   OVRLND.     DIRECT     STREAM       STREAM     STREAM     STREAM   STREAMBED  STREAMBED
                SEG.NO.  NO.  STRM. RCH.    AQUIFER    STRM. RCH.    RUNOFF     PRECIP       ET          HEAD       DEPTH      WIDTH   CONDCTNC.   GRADIENT

   1   13    1     1     1    1.0000E+05 -1.8748E+03   1.0187E+05  0.000E+00  0.000E+00  0.000E+00  4.84068E+01  1.455E-01  2.000E+01  2.000E+04 -9.374E-02
   1   13    2     1     2    1.0187E+05 -2.8482E+03   1.0472E+05  0.000E+00  0.000E+00  0.000E+00  4.79316E+01  1.475E-01  2.000E+01  2.000E+04 -1.424E-01
   1   14    3     1     3    1.0472E+05 -4.7637E+02   1.0520E+05  0.000E+00  0.000E+00  0.000E+00  4.74557E+01  1.489E-01  2.000E+01  2.000E+04 -2.382E-02
   1   15    4     1     4    1.0520E+05 -4.4565E+02   1.0565E+05  0.000E+00  0.000E+00  0.000E+00  4.69789E+01  1.493E-01  2.000E+01  2.000E+04 -2.228E-02
   1   16    5     1     5    1.0565E+05 -1.6089E+03   1.0725E+05  0.000E+00  0.000E+00  0.000E+00  4.65025E+01  1.502E-01  2.000E+01  2.000E+04 -8.045E-02
   1   16    6     1     6    1.0725E+05 -1.0228E+03   1.0828E+05  0.000E+00  0.000E+00  0.000E+00  4.60263E+01  1.513E-01  2.000E+01  2.000E+04 -5.114E-02
   1   16    7     1     7    1.0828E+05 -9.9913E+02   1.0928E+05  0.000E+00  0.000E+00  0.000E+00  4.55499E+01  1.521E-01  2.000E+01  2.000E+04 -4.996E-02
   1   16    8     1     8    1.0928E+05 -9.8410E+02   1.1026E+05  0.000E+00  0.000E+00  0.000E+00  4.50734E+01  1.530E-01  2.000E+01  2.000E+04 -4.920E-02
   1   16    9     1     9    1.1026E+05 -9.5883E+02   1.1122E+05  0.000E+00  0.000E+00  0.000E+00  4.45970E+01  1.538E-01  2.000E+01  2.000E+04 -4.794E-02
   1   16   10     1    10    1.1122E+05 -9.1982E+02   1.1214E+05  0.000E+00  0.000E+00  0.000E+00  4.41205E+01  1.546E-01  2.000E+01  2.000E+04 -4.599E-02
   1   16   11     1    11    1.1214E+05 -8.7534E+02   1.1301E+05  0.000E+00  0.000E+00  0.000E+00  4.36439E+01  1.553E-01  2.000E+01  2.000E+04 -4.377E-02
   1   16   12     1    12    1.1301E+05 -1.3395E+03   1.1435E+05  0.000E+00  0.000E+00  0.000E+00  4.31676E+01  1.562E-01  2.000E+01  2.000E+04 -6.698E-02
   1   15   13     1    13    1.1435E+05 -1.2721E+03   1.1563E+05  0.000E+00  0.000E+00  0.000E+00  4.26914E+01  1.573E-01  2.000E+01  2.000E+04 -6.360E-02
   1   14   14     1    14    1.1563E+05 -1.5357E+03   1.1716E+05  0.000E+00  0.000E+00  0.000E+00  4.22153E+01  1.584E-01  2.000E+01  2.000E+04 -7.678E-02
   1   13   15     1    15    1.1716E+05 -1.8615E+03   1.1902E+05  0.000E+00  0.000E+00  0.000E+00  4.17394E+01  1.598E-01  2.000E+01  2.000E+04 -9.308E-02
   1   12   16     1    16    1.1902E+05 -2.5378E+03   1.2156E+05  0.000E+00  0.000E+00  0.000E+00  4.12639E+01  1.616E-01  2.000E+01  2.000E+04 -1.269E-01
   1   12   17     1    17    1.2156E+05 -1.3936E+03   1.2295E+05  0.000E+00  0.000E+00  0.000E+00  4.07882E+01  1.632E-01  2.000E+01  2.000E+04 -6.968E-02
   1   12   18     1    18    1.2295E+05 -1.0306E+03   1.2398E+05  0.000E+00  0.000E+00  0.000E+00  4.03119E+01  1.642E-01  2.000E+01  2.000E+04 -5.153E-02
   1   12   19     1    19    1.2398E+05 -1.1690E+02   1.2410E+05  0.000E+00  0.000E+00  0.000E+00  3.98351E+01  1.646E-01  2.000E+01  2.000E+04 -5.845E-03
   1   13   20     1    20    1.2410E+05  6.6125E+02   1.2344E+05  0.000E+00  0.000E+00  0.000E+00  3.93576E+01  1.644E-01  2.000E+01  2.000E+04  3.306E-02
   1   14   21     1    21    1.2344E+05  5.0332E+02   1.2294E+05  0.000E+00  0.000E+00  0.000E+00  3.88798E+01  1.639E-01  2.000E+01  2.000E+04  2.517E-02
   1   14   22     1    22    1.2294E+05  5.5271E+03   1.1741E+05  0.000E+00  0.000E+00  0.000E+00  3.84002E+01  1.615E-01  2.000E+01  2.000E+04  2.764E-01
   1    9   30     2     1    5.0000E+04  6.8298E+02   4.9317E+04  0.000E+00  0.000E+00  0.000E+00  4.02404E+01  1.154E-01  2.000E+01  2.000E+04  3.415E-02
   1    9   29     2     2    4.9317E+04  1.0053E+03   4.8312E+04  0.000E+00  0.000E+00  0.000E+00  3.99892E+01  1.142E-01  2.000E+01  2.000E+04  5.027E-02
   1    9   28     2     3    4.8312E+04  2.7429E+03   4.5569E+04  0.000E+00  0.000E+00  0.000E+00  3.97366E+01  1.116E-01  2.000E+01  2.000E+04  1.371E-01
   1    9   27     2     4    4.5569E+04 -7.0112E+02   4.6270E+04  0.000E+00  0.000E+00  0.000E+00  3.94851E+01  1.101E-01  2.000E+01  2.000E+04 -3.506E-02
   1   10   26     2     5    4.6270E+04  6.7732E+02   4.5593E+04  0.000E+00  0.000E+00  0.000E+00  3.92351E+01  1.101E-01  2.000E+01  2.000E+04  3.387E-02
   1   11   25     2     6    4.5593E+04  1.4933E+02   4.5443E+04  0.000E+00  0.000E+00  0.000E+00  3.89845E+01  1.095E-01  2.000E+01  2.000E+04  7.467E-03
   1   12   24     2     7    4.5443E+04  1.3164E+02   4.5312E+04  0.000E+00  0.000E+00  0.000E+00  3.87343E+01  1.093E-01  2.000E+01  2.000E+04  6.582E-03
   1   13   23     2     8    4.5312E+04  5.2383E+01   4.5259E+04  0.000E+00  0.000E+00  0.000E+00  3.84842E+01  1.092E-01  2.000E+01  2.000E+04  2.619E-03
   1   14   22     2     9    4.5259E+04  2.1753E+03   4.3084E+04  0.000E+00  0.000E+00  0.000E+00  3.82326E+01  1.076E-01  2.000E+01  2.000E+04  1.088E-01
   1   14   22     3     1    1.6049E+05 -8.1279E+03   1.6862E+05  0.000E+00  0.000E+00  0.000E+00  3.77174E+01  1.618E-01  2.000E+01  2.000E+04 -4.064E-01
   1   15   23     3     2    1.6862E+05 -2.5014E+02   1.6887E+05  0.000E+00  0.000E+00  0.000E+00  3.68310E+01  1.643E-01  2.000E+01  2.000E+04 -1.251E-02
   1   15   24     3     3    1.6887E+05 -1.9254E+02   1.6906E+05  0.000E+00  0.000E+00  0.000E+00  3.59422E+01  1.644E-01  2.000E+01  2.000E+04 -9.627E-03
   1   15   25     3     4    1.6906E+05 -1.9021E+02   1.6925E+05  0.000E+00  0.000E+00  0.000E+00  3.50534E+01  1.645E-01  2.000E+01  2.000E+04 -9.510E-03
   1   15   26     3     5    1.6925E+05 -3.6838E+00   1.6926E+05  0.000E+00  0.000E+00  0.000E+00  3.41646E+01  1.646E-01  2.000E+01  2.000E+04 -1.842E-04
   1   16   27     3     6    1.6926E+05  1.0865E+03   1.6817E+05  0.000E+00  0.000E+00  0.000E+00  3.32754E+01  1.643E-01  2.000E+01  2.000E+04  5.432E-02
   1   17   28     3     7    1.6817E+05  5.9748E+03   1.6220E+05  0.000E+00  0.000E+00  0.000E+00  3.23844E+01  1.622E-01  2.000E+01  2.000E+04  2.987E-01
   1   18   29     3     8    1.6220E+05 -1.2664E+03   1.6346E+05  0.000E+00  0.000E+00  0.000E+00  3.14942E+01  1.608E-01  2.000E+01  2.000E+04 -6.332E-02
   1   18   30     3     9    1.6346E+05 -1.7077E+03   1.6517E+05  0.000E+00  0.000E+00  0.000E+00  3.06061E+01  1.617E-01  2.000E+01  2.000E+04 -8.539E-02



1
              HEAD IN LAYER   1 AT END OF TIME STEP   1 IN STRESS PERIOD    8
  ---------------------------------------------------------------------------

          1      2      3      4      5      6      7      8      9     10
         11     12     13     14     15     16     17     18     19     20
         21     22     23     24     25     26     27     28     29     30
 .........................................................................
   1  ****** ****** ****** ****** ****** ****** ****** ****** ****** ******
      ****** ****** ****** ****** ****** ****** ****** ****** ****** ******
      ****** ****** ****** ****** ****** ****** ****** ****** ****** ******
   2  ****** ****** ****** ****** ****** ****** ****** ****** ****** ******
      ****** ****** ****** ****** ****** ****** ****** ****** ****** ******
      ****** ****** ****** ****** ****** ****** ****** ****** ****** ******
   3  ****** ****** ****** ****** ****** ****** ****** ****** ****** ******
      ****** ****** ****** ****** ****** ****** ****** ****** ****** ******
      ****** ****** ****** ****** ****** ****** ****** ****** ****** ******
   4  ****** ****** ****** ****** ****** ****** ****** ****** ****** ******
      ****** ****** ****** ****** ****** ****** ****** ****** ****** ******
      ****** ****** ****** ****** ****** ****** ****** ****** ****** ******
   5  ****** ****** ****** ****** ****** ****** ****** ****** ****** ******
      ****** ****** ****** ****** ****** ****** ****** ****** ****** ******
      ****** ****** ****** ****** ****** ****** ****** ****** ****** ******
   6  ****** ****** ****** ****** ****** ****** ****** ****** ****** ******
      ****** ****** ****** ****** ****** ****** ****** ****** ****** ******
      ****** ****** ****** ****** ****** ****** ****** ****** ****** ******
   7  ****** ****** ****** ****** ****** ****** ****** ****** ****** ******
      ****** ****** ****** ****** ****** ****** ****** ****** ****** ******
      ****** ****** ****** ****** ****** ****** ****** ****** ****** ******
   8  ****** ****** ****** ****** ****** ****** ****** ****** ****** ******
      ****** ****** ****** ****** ****** ****** ****** ****** ****** ******
      ****** ****** ****** ****** ****** ****** ****** ****** ****** ******
   9  ****** ****** ****** ****** ****** ****** ****** ****** ****** ******
      ****** ****** ****** ****** ****** ****** ****** ****** ****** ******
      ****** ****** ****** ****** ****** ****** ****** ****** ****** ******
  10  ****** ****** ****** ****** ****** ****** ****** ****** ****** ******
      ****** ****** ****** ****** ****** ****** ****** ****** ****** ******
      ****** ****** ****** ****** ****** ****** ****** ****** ****** ******
  11  ****** ****** ****** ****** ****** ****** ****** ****** ****** ******
      ****** ****** ****** ****** ****** ****** ****** ****** ****** ******
      ****** ****** ****** ****** ****** ****** ****** ****** ****** ******
  12  ****** ****** ****** ****** ****** ****** ****** ****** ****** ******
      ****** ****** ****** ****** ****** ****** ****** ****** ****** ******
      ****** ****** ****** ****** ****** ****** ****** ****** ****** ******
  13  ****** ****** ****** ****** ****** ****** ****** ****** ****** ******
      ****** ****** ****** ****** ****** ****** ****** ****** ****** ******
      ****** ****** ****** ****** ****** ****** ****** ****** ****** ******
  14  ****** ****** ****** ****** ****** ****** ****** ****** ****** ******
      ****** ****** ****** ****** ****** ****** ****** ****** ****** ******
      ****** ****** ****** ****** ****** ****** ****** ****** ****** ******
  15  ****** ****** ****** ****** ****** ****** ****** ****** ****** ******
      ****** ****** ****** ****** ****** ****** ****** ****** ****** ******
      ****** ****** ****** ****** ****** ****** ****** ****** ****** ******
  16  ****** ****** ****** ****** ****** ****** ****** ****** ****** ******
      ****** ****** ****** ****** ****** ****** ****** ****** ****** ******
      ****** ****** ****** ****** ****** ****** ****** ****** ****** ******
  17  ****** ****** ****** ****** ****** ****** ****** ****** ****** ******
      ****** ****** ****** ****** ****** ****** ****** ****** ****** ******
      ****** ****** ****** ****** ****** ****** ****** ****** ****** ******
  18  ****** ****** ****** ****** ****** ****** ****** ****** ****** ******
      ****** ****** ****** ****** ****** ****** ****** ****** ****** ******
      ****** ****** ****** ****** ****** ****** ****** ****** ****** ******
  19  ****** ****** ****** ****** ****** ****** ****** ****** ****** ******
      ****** ****** ****** ****** ****** ****** ****** ****** ****** ******
      ****** ****** ****** ****** ****** ****** ****** ****** ****** ******
  20  ****** ****** ****** ****** ****** ****** ****** ****** ****** ******
      ****** ****** ****** ****** ****** ****** ****** ****** ****** ******
      ****** ****** ****** ****** ****** ****** ****** ****** ****** ******
  21  ****** ****** ****** ****** ****** ****** ****** ****** ****** ******
      ****** ****** ****** ****** ****** ****** ****** ****** ****** ******
      ****** ****** ****** ****** ****** ****** ****** ****** ****** ******
  22  ****** ****** ****** ****** ****** ****** ****** ****** ****** ******
      ****** ****** ****** ****** ****** ****** ****** ****** ****** ******
      ****** ****** ****** ****** ****** ****** ****** ****** ****** ******
  23  ****** ****** ****** ****** ****** ****** ****** ****** ****** ******
      ****** ****** ****** ****** ****** ****** ****** ****** ****** ******
      ****** ****** ****** ****** ****** ****** ****** ****** ****** ******
  24  ****** ****** ****** ****** ****** ****** ****** ****** ****** ******
      ****** ****** ****** ****** ****** ****** ****** ****** ****** ******
      ****** ****** ****** ****** ****** ****** ****** ****** ****** ******
  25  ****** ****** ****** ****** ****** ****** ****** ****** ****** ******
      ****** ****** ****** ****** ****** ****** ****** ****** ****** ******
      ****** ****** ****** ****** ****** ****** ****** ****** ****** ******

 HEAD WILL BE SAVED ON UNIT   51 AT END OF TIME STEP    1, STRESS PERIOD    8
1
  VOLUMETRIC BUDGET FOR ENTIRE MODEL AT END OF TIME STEP    1, STRESS PERIOD   8
  ------------------------------------------------------------------------------

     CUMULATIVE VOLUMES      L**3       RATES FOR THIS TIME STEP      L**3/T
     ------------------                 ------------------------

           IN:                                      IN:
           ---                                      ---
             STORAGE =    32730299.9571               STORAGE =        1329.6353
       CONSTANT HEAD =    18586888.3135         CONSTANT HEAD =       31928.8297
               WELLS =           0.0000                 WELLS =           0.0000
            RECHARGE =    17608800.0000              RECHARGE =       27600.0000
      STREAM LEAKAGE =    12448055.5776        STREAM LEAKAGE =       21370.1334

            TOTAL IN =    81374043.8481              TOTAL IN =       82228.5984

          OUT:                                     OUT:
          ----                                     ----
             STORAGE =      968121.5796               STORAGE =        1566.9975
       CONSTANT HEAD =           0.0000         CONSTANT HEAD =           0.0000
               WELLS =    32207711.0249                 WELLS =       44120.1521
            RECHARGE =           0.0000              RECHARGE =           0.0000
      STREAM LEAKAGE =    48198212.9777        STREAM LEAKAGE =       36541.4403

           TOTAL OUT =    81374045.5822             TOTAL OUT =       82228.5900

            IN - OUT =          -1.7340              IN - OUT =       8.4845E-03

 PERCENT DISCREPANCY =          -0.00     PERCENT DISCREPANCY =           0.00






         TIME SUMMARY AT END OF TIME STEP    1 IN STRESS PERIOD    8
                    SECONDS     MINUTES      HOURS       DAYS        YEARS
                    -----------------------------------------------------------
   TIME STEP LENGTH 7.86240E+06 1.31040E+05  2184.0      91.000     0.24914    
 STRESS PERIOD TIME 7.86240E+06 1.31040E+05  2184.0      91.000     0.24914    
         TOTAL TIME 6.30720E+07 1.05120E+06  17520.      730.00      1.9986    
1
1
                            STRESS PERIOD NO.    9, LENGTH =   92.00000    
                            -----------------------------------------------

                              NUMBER OF TIME STEPS =     1

                               MULTIPLIER FOR DELT =     1.500

                            INITIAL TIME STEP SIZE =   92.00000    

 WELL NO.  LAYER   ROW   COL   STRESS RATE         
 --------------------------------------------------
      1      1     11     21     -0.1135E+05
      2      1     18     20      -9351.    
      3      1     16     28     -0.1298E+05
      4      1     10     28     -0.1044E+05

      4 WELLS

                 RECHARGE =  5.000000E-04

 REUSING STREAM SEGMENT DATA FROM LAST STRESS PERIOD
 
 SOLVING FOR HEAD 


     6 CALLS TO PCG ROUTINE FOR TIME STEP   1 IN STRESS PERIOD    9
    23 TOTAL ITERATIONS

 OUTPUT CONTROL FOR STRESS PERIOD    9   TIME STEP    1
    SAVE BUDGET
    SAVE HEAD FOR ALL LAYERS
    PRINT HEAD FOR ALL LAYERS
 UBDSV2 SAVING "STREAMFLOW OUT  " ON UNIT  50 AT TIME STEP  1, STRESS PERIOD   9



 STREAM LISTING     PERIOD      9   STEP        1

 LAYER ROW COL. STREAM  RCH.  FLOW INTO     FLOW TO   FLOW OUT OF   OVRLND.     DIRECT     STREAM       STREAM     STREAM     STREAM   STREAMBED  STREAMBED
                SEG.NO.  NO.  STRM. RCH.    AQUIFER    STRM. RCH.    RUNOFF     PRECIP       ET          HEAD       DEPTH      WIDTH   CONDCTNC.   GRADIENT

   1   13    1     1     1    1.0000E+05 -1.6641E+03   1.0166E+05  0.000E+00  0.000E+00  0.000E+00  4.84067E+01  1.454E-01  2.000E+01  2.000E+04 -8.320E-02
   1   13    2     1     2    1.0166E+05 -2.6097E+03   1.0427E+05  0.000E+00  0.000E+00  0.000E+00  4.79313E+01  1.472E-01  2.000E+01  2.000E+04 -1.305E-01
   1   14    3     1     3    1.0427E+05 -4.0615E+02   1.0468E+05  0.000E+00  0.000E+00  0.000E+00  4.74553E+01  1.485E-01  2.000E+01  2.000E+04 -2.031E-02
   1   15    4     1     4    1.0468E+05 -3.7428E+02   1.0505E+05  0.000E+00  0.000E+00  0.000E+00  4.69784E+01  1.488E-01  2.000E+01  2.000E+04 -1.871E-02
   1   16    5     1     5    1.0505E+05 -1.4166E+03   1.0647E+05  0.000E+00  0.000E+00  0.000E+00  4.65019E+01  1.496E-01  2.000E+01  2.000E+04 -7.083E-02
   1   16    6     1     6    1.0647E+05 -9.0314E+02   1.0737E+05  0.000E+00  0.000E+00  0.000E+00  4.60256E+01  1.506E-01  2.000E+01  2.000E+04 -4.516E-02
   1   16    7     1     7    1.0737E+05 -8.8322E+02   1.0826E+05  0.000E+00  0.000E+00  0.000E+00  4.55491E+01  1.513E-01  2.000E+01  2.000E+04 -4.416E-02
   1   16    8     1     8    1.0826E+05 -8.6970E+02   1.0913E+05  0.000E+00  0.000E+00  0.000E+00  4.50725E+01  1.521E-01  2.000E+01  2.000E+04 -4.348E-02
   1   16    9     1     9    1.0913E+05 -8.4596E+02   1.0997E+05  0.000E+00  0.000E+00  0.000E+00  4.45960E+01  1.528E-01  2.000E+01  2.000E+04 -4.230E-02
   1   16   10     1    10    1.0997E+05 -8.0884E+02   1.1078E+05  0.000E+00  0.000E+00  0.000E+00  4.41194E+01  1.535E-01  2.000E+01  2.000E+04 -4.044E-02
   1   16   11     1    11    1.1078E+05 -7.6519E+02   1.1155E+05  0.000E+00  0.000E+00  0.000E+00  4.36428E+01  1.541E-01  2.000E+01  2.000E+04 -3.826E-02
   1   16   12     1    12    1.1155E+05 -1.1511E+03   1.1270E+05  0.000E+00  0.000E+00  0.000E+00  4.31663E+01  1.549E-01  2.000E+01  2.000E+04 -5.755E-02
   1   15   13     1    13    1.1270E+05 -1.0634E+03   1.1376E+05  0.000E+00  0.000E+00  0.000E+00  4.26899E+01  1.558E-01  2.000E+01  2.000E+04 -5.317E-02
   1   14   14     1    14    1.1376E+05 -1.3143E+03   1.1508E+05  0.000E+00  0.000E+00  0.000E+00  4.22136E+01  1.568E-01  2.000E+01  2.000E+04 -6.571E-02
   1   13   15     1    15    1.1508E+05 -1.6349E+03   1.1671E+05  0.000E+00  0.000E+00  0.000E+00  4.17376E+01  1.580E-01  2.000E+01  2.000E+04 -8.174E-02
   1   12   16     1    16    1.1671E+05 -2.3040E+03   1.1901E+05  0.000E+00  0.000E+00  0.000E+00  4.12619E+01  1.596E-01  2.000E+01  2.000E+04 -1.152E-01
   1   12   17     1    17    1.1901E+05 -1.2324E+03   1.2025E+05  0.000E+00  0.000E+00  0.000E+00  4.07861E+01  1.611E-01  2.000E+01  2.000E+04 -6.162E-02
   1   12   18     1    18    1.2025E+05 -8.7657E+02   1.2112E+05  0.000E+00  0.000E+00  0.000E+00  4.03097E+01  1.619E-01  2.000E+01  2.000E+04 -4.383E-02
   1   12   19     1    19    1.2112E+05  6.8468E+01   1.2105E+05  0.000E+00  0.000E+00  0.000E+00  3.98327E+01  1.623E-01  2.000E+01  2.000E+04  3.423E-03
   1   13   20     1    20    1.2105E+05  8.3444E+02   1.2022E+05  0.000E+00  0.000E+00  0.000E+00  3.93551E+01  1.619E-01  2.000E+01  2.000E+04  4.172E-02
   1   14   21     1    21    1.2022E+05  6.7545E+02   1.1955E+05  0.000E+00  0.000E+00  0.000E+00  3.88772E+01  1.613E-01  2.000E+01  2.000E+04  3.377E-02
   1   14   22     1    22    1.1955E+05  5.5668E+03   1.1398E+05  0.000E+00  0.000E+00  0.000E+00  3.83974E+01  1.587E-01  2.000E+01  2.000E+04  2.783E-01
   1    9   30     2     1    5.0000E+04  8.0592E+02   4.9194E+04  0.000E+00  0.000E+00  0.000E+00  4.02403E+01  1.153E-01  2.000E+01  2.000E+04  4.030E-02
   1    9   29     2     2    4.9194E+04  1.1284E+03   4.8066E+04  0.000E+00  0.000E+00  0.000E+00  3.99889E+01  1.139E-01  2.000E+01  2.000E+04  5.642E-02
   1    9   28     2     3    4.8066E+04  2.8678E+03   4.5198E+04  0.000E+00  0.000E+00  0.000E+00  3.97361E+01  1.111E-01  2.000E+01  2.000E+04  1.434E-01
   1    9   27     2     4    4.5198E+04 -5.2566E+02   4.5723E+04  0.000E+00  0.000E+00  0.000E+00  3.94844E+01  1.094E-01  2.000E+01  2.000E+04 -2.628E-02
   1   10   26     2     5    4.5723E+04  8.5006E+02   4.4873E+04  0.000E+00  0.000E+00  0.000E+00  3.92342E+01  1.092E-01  2.000E+01  2.000E+04  4.250E-02
   1   11   25     2     6    4.4873E+04  3.1464E+02   4.4559E+04  0.000E+00  0.000E+00  0.000E+00  3.89834E+01  1.084E-01  2.000E+01  2.000E+04  1.573E-02
   1   12   24     2     7    4.4559E+04  2.8354E+02   4.4275E+04  0.000E+00  0.000E+00  0.000E+00  3.87329E+01  1.079E-01  2.000E+01  2.000E+04  1.418E-02
   1   13   23     2     8    4.4275E+04  9.9337E+01   4.4176E+04  0.000E+00  0.000E+00  0.000E+00  3.84826E+01  1.076E-01  2.000E+01  2.000E+04  4.967E-03
   1   14   22     2     9    4.4176E+04  2.2377E+03   4.1938E+04  0.000E+00  0.000E+00  0.000E+00  3.82309E+01  1.059E-01  2.000E+01  2.000E+04  1.119E-01
   1   14   22     3     1    1.5592E+05 -8.0875E+03   1.6400E+05  0.000E+00  0.000E+00  0.000E+00  3.77147E+01  1.591E-01  2.000E+01  2.000E+04 -4.044E-01
   1   15   23     3     2    1.6400E+05 -1.9740E+02   1.6420E+05  0.000E+00  0.000E+00  0.000E+00  3.68282E+01  1.616E-01  2.000E+01  2.000E+04 -9.870E-03
   1   15   24     3     3    1.6420E+05 -1.4942E+02   1.6435E+05  0.000E+00  0.000E+00  0.000E+00  3.59395E+01  1.617E-01  2.000E+01  2.000E+04 -7.471E-03
   1   15   25     3     4    1.6435E+05 -1.4685E+02   1.6450E+05  0.000E+00  0.000E+00  0.000E+00  3.50507E+01  1.618E-01  2.000E+01  2.000E+04 -7.342E-03
   1   15   26     3     5    1.6450E+05  4.3969E+01   1.6445E+05  0.000E+00  0.000E+00  0.000E+00  3.41618E+01  1.618E-01  2.000E+01  2.000E+04  2.198E-03
   1   16   27     3     6    1.6445E+05  1.1426E+03   1.6331E+05  0.000E+00  0.000E+00  0.000E+00  3.32726E+01  1.614E-01  2.000E+01  2.000E+04  5.713E-02
   1   17   28     3     7    1.6331E+05  6.1287E+03   1.5718E+05  0.000E+00  0.000E+00  0.000E+00  3.23815E+01  1.593E-01  2.000E+01  2.000E+04  3.064E-01
   1   18   29     3     8    1.5718E+05 -1.0897E+03   1.5827E+05  0.000E+00  0.000E+00  0.000E+00  3.14911E+01  1.578E-01  2.000E+01  2.000E+04 -5.448E-02
   1   18   30     3     9    1.5827E+05 -1.5751E+03   1.5985E+05  0.000E+00  0.000E+00  0.000E+00  3.06030E+01  1.586E-01  2.000E+01  2.000E+04 -7.875E-02



1
              HEAD IN LAYER   1 AT END OF TIME STEP   1 IN STRESS PERIOD    9
  ---------------------------------------------------------------------------

          1      2      3      4      5      6      7      8      9     10
         11     12     13     14     15     16     17     18     19     20
         21     22     23     24     25     26     27     28     29     30
 .........................................................................
   1  ****** ****** ****** ****** ****** ****** ****** ****** ****** ******
      ****** ****** ****** ****** ****** ****** ****** ****** ****** ******
      ****** ****** ****** ****** ****** ****** ****** ****** ****** ******
   2  ****** ****** ****** ****** ****** ****** ****** ****** ****** ******
      ****** ****** ****** ****** ****** ****** ****** ****** ****** ******
      ****** ****** ****** ****** ****** ****** ****** ****** ****** ******
   3  ****** ****** ****** ****** ****** ****** ****** ****** ****** ******
      ****** ****** ****** ****** ****** ****** ****** ****** ****** ******
      ****** ****** ****** ****** ****** ****** ****** ****** ****** ******
   4  ****** ****** ****** ****** ****** ****** ****** ****** ****** ******
      ****** ****** ****** ****** ****** ****** ****** ****** ****** ******
      ****** ****** ****** ****** ****** ****** ****** ****** ****** ******
   5  ****** ****** ****** ****** ****** ****** ****** ****** ****** ******
      ****** ****** ****** ****** ****** ****** ****** ****** ****** ******
      ****** ****** ****** ****** ****** ****** ****** ****** ****** ******
   6  ****** ****** ****** ****** ****** ****** ****** ****** ****** ******
      ****** ****** ****** ****** ****** ****** ****** ****** ****** ******
      ****** ****** ****** ****** ****** ****** ****** ****** ****** ******
   7  ****** ****** ****** ****** ****** ****** ****** ****** ****** ******
      ****** ****** ****** ****** ****** ****** ****** ****** ****** ******
      ****** ****** ****** ****** ****** ****** ****** ****** ****** ******
   8  ****** ****** ****** ****** ****** ****** ****** ****** ****** ******
      ****** ****** ****** ****** ****** ****** ****** ****** ****** ******
      ****** ****** ****** ****** ****** ****** ****** ****** ****** ******
   9  ****** ****** ****** ****** ****** ****** ****** ****** ****** ******
      ****** ****** ****** ****** ****** ****** ****** ****** ****** ******
      ****** ****** ****** ****** ****** ****** ****** ****** ****** ******
  10  ****** ****** ****** ****** ****** ****** ****** ****** ****** ******
      ****** ****** ****** ****** ****** ****** ****** ****** ****** ******
      ****** ****** ****** ****** ****** ****** ****** ****** ****** ******
  11  ****** ****** ****** ****** ****** ****** ****** ****** ****** ******
      ****** ****** ****** ****** ****** ****** ****** ****** ****** ******
      ****** ****** ****** ****** ****** ****** ****** ****** ****** ******
  12  ****** ****** ****** ****** ****** ****** ****** ****** ****** ******
      ****** ****** ****** ****** ****** ****** ****** ****** ****** ******
      ****** ****** ****** ****** ****** ****** ****** ****** ****** ******
  13  ****** ****** ****** ****** ****** ****** ****** ****** ****** ******
      ****** ****** ****** ****** ****** ****** ****** ****** ****** ******
      ****** ****** ****** ****** ****** ****** ****** ****** ****** ******
  14  ****** ****** ****** ****** ****** ****** ****** ****** ****** ******
      ****** ****** ****** ****** ****** ****** ****** ****** ****** ******
      ****** ****** ****** ****** ****** ****** ****** ****** ****** ******
  15  ****** ****** ****** ****** ****** ****** ****** ****** ****** ******
      ****** ****** ****** ****** ****** ****** ****** ****** ****** ******
      ****** ****** ****** ****** ****** ****** ****** ****** ****** ******
  16  ****** ****** ****** ****** ****** ****** ****** ****** ****** ******
      ****** ****** ****** ****** ****** ****** ****** ****** ****** ******
      ****** ****** ****** ****** ****** ****** ****** ****** ****** ******
  17  ****** ****** ****** ****** ****** ****** ****** ****** ****** ******
      ****** ****** ****** ****** ****** ****** ****** ****** ****** ******
      ****** ****** ****** ****** ****** ****** ****** ****** ****** ******
  18  ****** ****** ****** ****** ****** ****** ****** ****** ****** ******
      ****** ****** ****** ****** ****** ****** ****** ****** ****** ******
      ****** ****** ****** ****** ****** ****** ****** ****** ****** ******
  19  ****** ****** ****** ****** ****** ****** ****** ****** ****** ******
      ****** ****** ****** ****** ****** ****** ****** ****** ****** ******
      ****** ****** ****** ****** ****** ****** ****** ****** ****** ******
  20  ****** ****** ****** ****** ****** ****** ****** ****** ****** ******
      ****** ****** ****** ****** ****** ****** ****** ****** ****** ******
      ****** ****** ****** ****** ****** ****** ****** ****** ****** ******
  21  ****** ****** ****** ****** ****** ****** ****** ****** ****** ******
      ****** ****** ****** ****** ****** ****** ****** ****** ****** ******
      ****** ****** ****** ****** ****** ****** ****** ****** ****** ******
  22  ****** ****** ****** ****** ****** ****** ****** ****** ****** ******
      ****** ****** ****** ****** ****** ****** ****** ****** ****** ******
      ****** ****** ****** ****** ****** ****** ****** ****** ****** ******
  23  ****** ****** ****** ****** ****** ****** ****** ****** ****** ******
      ****** ****** ****** ****** ****** ****** ****** ****** ****** ******
      ****** ****** ****** ****** ****** ****** ****** ****** ****** ******
  24  ****** ****** ****** ****** ****** ****** ****** ****** ****** ******
      ****** ****** ****** ****** ****** ****** ****** ****** ****** ******
      ****** ****** ****** ****** ****** ****** ****** ****** ****** ******
  25  ****** ****** ****** ****** ****** ****** ****** ****** ****** ******
      ****** ****** ****** ****** ****** ****** ****** ****** ****** ******
      ****** ****** ****** ****** ****** ****** ****** ****** ****** ******

 HEAD WILL BE SAVED ON UNIT   51 AT END OF TIME STEP    1, STRESS PERIOD    9
1
  VOLUMETRIC BUDGET FOR ENTIRE MODEL AT END OF TIME STEP    1, STRESS PERIOD   9
  ------------------------------------------------------------------------------

     CUMULATIVE VOLUMES      L**3       RATES FOR THIS TIME STEP      L**3/T
     ------------------                 ------------------------

           IN:                                      IN:
           ---                                      ---
             STORAGE =    33382106.2597               STORAGE =        7084.8511
       CONSTANT HEAD =    21630466.6375         CONSTANT HEAD =       33082.3731
               WELLS =           0.0000                 WELLS =           0.0000
            RECHARGE =    18878400.0000              RECHARGE =       13800.0000
      STREAM LEAKAGE =    14568460.3253        STREAM LEAKAGE =       23047.8777

            TOTAL IN =    88459433.2225              TOTAL IN =       77015.1019

          OUT:                                     OUT:
          ----                                     ----
             STORAGE =      968121.5796               STORAGE =           0.0000
       CONSTANT HEAD =           0.0000         CONSTANT HEAD =           0.0000
               WELLS =    36266765.0171                 WELLS =       44120.1521
            RECHARGE =           0.0000              RECHARGE =           0.0000
      STREAM LEAKAGE =    51224548.4287        STREAM LEAKAGE =       32894.9506

           TOTAL OUT =    88459435.0253             TOTAL OUT =       77015.1026

            IN - OUT =          -1.8028              IN - OUT =      -7.4797E-04

 PERCENT DISCREPANCY =          -0.00     PERCENT DISCREPANCY =          -0.00






         TIME SUMMARY AT END OF TIME STEP    1 IN STRESS PERIOD    9
                    SECONDS     MINUTES      HOURS       DAYS        YEARS
                    -----------------------------------------------------------
   TIME STEP LENGTH 7.94880E+06 1.32480E+05  2208.0      92.000     0.25188    
 STRESS PERIOD TIME 7.94880E+06 1.32480E+05  2208.0      92.000     0.25188    
         TOTAL TIME 7.10208E+07 1.18368E+06  19728.      822.00      2.2505    
1
1
                            STRESS PERIOD NO.   10, LENGTH =   91.00000    
                            -----------------------------------------------

                              NUMBER OF TIME STEPS =     1

                               MULTIPLIER FOR DELT =     1.500

                            INITIAL TIME STEP SIZE =   91.00000    

 WELL NO.  LAYER   ROW   COL   STRESS RATE         
 --------------------------------------------------
      1      1     11     21     -0.1135E+05
      2      1     18     20      -9351.    
      3      1     16     28     -0.1298E+05
      4      1     10     28     -0.1044E+05

      4 WELLS

                 RECHARGE =  2.000000E-03

 REUSING STREAM SEGMENT DATA FROM LAST STRESS PERIOD
 
 SOLVING FOR HEAD 


     7 CALLS TO PCG ROUTINE FOR TIME STEP   1 IN STRESS PERIOD   10
    26 TOTAL ITERATIONS

 OUTPUT CONTROL FOR STRESS PERIOD   10   TIME STEP    1
    SAVE BUDGET
    SAVE HEAD FOR ALL LAYERS
    PRINT HEAD FOR ALL LAYERS
 UBDSV2 SAVING "STREAMFLOW OUT  " ON UNIT  50 AT TIME STEP  1, STRESS PERIOD  10



 STREAM LISTING     PERIOD     10   STEP        1

 LAYER ROW COL. STREAM  RCH.  FLOW INTO     FLOW TO   FLOW OUT OF   OVRLND.     DIRECT     STREAM       STREAM     STREAM     STREAM   STREAMBED  STREAMBED
                SEG.NO.  NO.  STRM. RCH.    AQUIFER    STRM. RCH.    RUNOFF     PRECIP       ET          HEAD       DEPTH      WIDTH   CONDCTNC.   GRADIENT

   1   13    1     1     1    1.0000E+05 -2.1193E+03   1.0212E+05  0.000E+00  0.000E+00  0.000E+00  4.84069E+01  1.456E-01  2.000E+01  2.000E+04 -1.060E-01
   1   13    2     1     2    1.0212E+05 -3.1144E+03   1.0523E+05  0.000E+00  0.000E+00  0.000E+00  4.79319E+01  1.478E-01  2.000E+01  2.000E+04 -1.557E-01
   1   14    3     1     3    1.0523E+05 -5.9314E+02   1.0583E+05  0.000E+00  0.000E+00  0.000E+00  4.74562E+01  1.494E-01  2.000E+01  2.000E+04 -2.966E-02
   1   15    4     1     4    1.0583E+05 -5.7407E+02   1.0640E+05  0.000E+00  0.000E+00  0.000E+00  4.69794E+01  1.499E-01  2.000E+01  2.000E+04 -2.870E-02
   1   16    5     1     5    1.0640E+05 -2.0358E+03   1.0844E+05  0.000E+00  0.000E+00  0.000E+00  4.65033E+01  1.510E-01  2.000E+01  2.000E+04 -1.018E-01
   1   16    6     1     6    1.0844E+05 -1.2656E+03   1.0970E+05  0.000E+00  0.000E+00  0.000E+00  4.60274E+01  1.524E-01  2.000E+01  2.000E+04 -6.328E-02
   1   16    7     1     7    1.0970E+05 -1.2280E+03   1.1093E+05  0.000E+00  0.000E+00  0.000E+00  4.55512E+01  1.534E-01  2.000E+01  2.000E+04 -6.140E-02
   1   16    8     1     8    1.1093E+05 -1.2090E+03   1.1214E+05  0.000E+00  0.000E+00  0.000E+00  4.50749E+01  1.544E-01  2.000E+01  2.000E+04 -6.045E-02
   1   16    9     1     9    1.1214E+05 -1.1837E+03   1.1332E+05  0.000E+00  0.000E+00  0.000E+00  4.45986E+01  1.554E-01  2.000E+01  2.000E+04 -5.918E-02
   1   16   10     1    10    1.1332E+05 -1.1466E+03   1.1447E+05  0.000E+00  0.000E+00  0.000E+00  4.41223E+01  1.564E-01  2.000E+01  2.000E+04 -5.733E-02
   1   16   11     1    11    1.1447E+05 -1.1063E+03   1.1558E+05  0.000E+00  0.000E+00  0.000E+00  4.36460E+01  1.573E-01  2.000E+01  2.000E+04 -5.531E-02
   1   16   12     1    12    1.1558E+05 -1.7206E+03   1.1730E+05  0.000E+00  0.000E+00  0.000E+00  4.31698E+01  1.585E-01  2.000E+01  2.000E+04 -8.603E-02
   1   15   13     1    13    1.1730E+05 -1.6506E+03   1.1895E+05  0.000E+00  0.000E+00  0.000E+00  4.26939E+01  1.599E-01  2.000E+01  2.000E+04 -8.253E-02
   1   14   14     1    14    1.1895E+05 -1.9092E+03   1.2086E+05  0.000E+00  0.000E+00  0.000E+00  4.22181E+01  1.613E-01  2.000E+01  2.000E+04 -9.546E-02
   1   13   15     1    15    1.2086E+05 -2.2203E+03   1.2308E+05  0.000E+00  0.000E+00  0.000E+00  4.17425E+01  1.630E-01  2.000E+01  2.000E+04 -1.110E-01
   1   12   16     1    16    1.2308E+05 -2.8687E+03   1.2595E+05  0.000E+00  0.000E+00  0.000E+00  4.12673E+01  1.650E-01  2.000E+01  2.000E+04 -1.434E-01
   1   12   17     1    17    1.2595E+05 -1.6592E+03   1.2760E+05  0.000E+00  0.000E+00  0.000E+00  4.07918E+01  1.668E-01  2.000E+01  2.000E+04 -8.296E-02
   1   12   18     1    18    1.2760E+05 -1.2991E+03   1.2890E+05  0.000E+00  0.000E+00  0.000E+00  4.03157E+01  1.679E-01  2.000E+01  2.000E+04 -6.495E-02
   1   12   19     1    19    1.2890E+05 -4.5149E+02   1.2935E+05  0.000E+00  0.000E+00  0.000E+00  3.98391E+01  1.686E-01  2.000E+01  2.000E+04 -2.257E-02
   1   13   20     1    20    1.2935E+05  3.1270E+02   1.2904E+05  0.000E+00  0.000E+00  0.000E+00  3.93619E+01  1.687E-01  2.000E+01  2.000E+04  1.563E-02
   1   14   21     1    21    1.2904E+05  1.5045E+02   1.2889E+05  0.000E+00  0.000E+00  0.000E+00  3.88844E+01  1.685E-01  2.000E+01  2.000E+04  7.523E-03
   1   14   22     1    22    1.2889E+05  5.4360E+03   1.2346E+05  0.000E+00  0.000E+00  0.000E+00  3.84049E+01  1.663E-01  2.000E+01  2.000E+04  2.718E-01
   1    9   30     2     1    5.0000E+04  3.9136E+02   4.9609E+04  0.000E+00  0.000E+00  0.000E+00  4.02406E+01  1.156E-01  2.000E+01  2.000E+04  1.957E-02
   1    9   29     2     2    4.9609E+04  7.1615E+02   4.8892E+04  0.000E+00  0.000E+00  0.000E+00  3.99898E+01  1.148E-01  2.000E+01  2.000E+04  3.581E-02
   1    9   28     2     3    4.8892E+04  2.4563E+03   4.6436E+04  0.000E+00  0.000E+00  0.000E+00  3.97376E+01  1.126E-01  2.000E+01  2.000E+04  1.228E-01
   1    9   27     2     4    4.6436E+04 -1.0794E+03   4.7516E+04  0.000E+00  0.000E+00  0.000E+00  3.94866E+01  1.116E-01  2.000E+01  2.000E+04 -5.397E-02
   1   10   26     2     5    4.7516E+04  2.9647E+02   4.7219E+04  0.000E+00  0.000E+00  0.000E+00  3.92372E+01  1.122E-01  2.000E+01  2.000E+04  1.482E-02
   1   11   25     2     6    4.7219E+04 -2.1435E+02   4.7433E+04  0.000E+00  0.000E+00  0.000E+00  3.89871E+01  1.121E-01  2.000E+01  2.000E+04 -1.072E-02
   1   12   24     2     7    4.7433E+04 -1.9521E+02   4.7629E+04  0.000E+00  0.000E+00  0.000E+00  3.87374E+01  1.124E-01  2.000E+01  2.000E+04 -9.760E-03
   1   13   23     2     8    4.7629E+04 -4.9401E+01   4.7678E+04  0.000E+00  0.000E+00  0.000E+00  3.84876E+01  1.126E-01  2.000E+01  2.000E+04 -2.470E-03
   1   14   22     2     9    4.7678E+04  2.0600E+03   4.5618E+04  0.000E+00  0.000E+00  0.000E+00  3.82361E+01  1.111E-01  2.000E+01  2.000E+04  1.030E-01
   1   14   22     3     1    1.6907E+05 -8.2141E+03   1.7729E+05  0.000E+00  0.000E+00  0.000E+00  3.77224E+01  1.669E-01  2.000E+01  2.000E+04 -4.107E-01
   1   15   23     3     2    1.7729E+05 -3.5982E+02   1.7765E+05  0.000E+00  0.000E+00  0.000E+00  3.68360E+01  1.693E-01  2.000E+01  2.000E+04 -1.799E-02
   1   15   24     3     3    1.7765E+05 -2.8653E+02   1.7793E+05  0.000E+00  0.000E+00  0.000E+00  3.59473E+01  1.695E-01  2.000E+01  2.000E+04 -1.433E-02
   1   15   25     3     4    1.7793E+05 -2.8737E+02   1.7822E+05  0.000E+00  0.000E+00  0.000E+00  3.50586E+01  1.697E-01  2.000E+01  2.000E+04 -1.437E-02
   1   15   26     3     5    1.7822E+05 -1.1823E+02   1.7834E+05  0.000E+00  0.000E+00  0.000E+00  3.41698E+01  1.698E-01  2.000E+01  2.000E+04 -5.912E-03
   1   16   27     3     6    1.7834E+05  9.5678E+02   1.7738E+05  0.000E+00  0.000E+00  0.000E+00  3.32807E+01  1.696E-01  2.000E+01  2.000E+04  4.784E-02
   1   17   28     3     7    1.7738E+05  5.6083E+03   1.7177E+05  0.000E+00  0.000E+00  0.000E+00  3.23899E+01  1.677E-01  2.000E+01  2.000E+04  2.804E-01
   1   18   29     3     8    1.7177E+05 -1.6405E+03   1.7342E+05  0.000E+00  0.000E+00  0.000E+00  3.14999E+01  1.665E-01  2.000E+01  2.000E+04 -8.202E-02
   1   18   30     3     9    1.7342E+05 -2.0000E+03   1.7542E+05  0.000E+00  0.000E+00  0.000E+00  3.06120E+01  1.676E-01  2.000E+01  2.000E+04 -1.000E-01



1
              HEAD IN LAYER   1 AT END OF TIME STEP   1 IN STRESS PERIOD   10
  ---------------------------------------------------------------------------

          1      2      3      4      5      6      7      8      9     10
         11     12     13     14     15     16     17     18     19     20
         21     22     23     24     25     26     27     28     29     30
 .........................................................................
   1  ****** ****** ****** ****** ****** ****** ****** ****** ****** ******
      ****** ****** ****** ****** ****** ****** ****** ****** ****** ******
      ****** ****** ****** ****** ****** ****** ****** ****** ****** ******
   2  ****** ****** ****** ****** ****** ****** ****** ****** ****** ******
      ****** ****** ****** ****** ****** ****** ****** ****** ****** ******
      ****** ****** ****** ****** ****** ****** ****** ****** ****** ******
   3  ****** ****** ****** ****** ****** ****** ****** ****** ****** ******
      ****** ****** ****** ****** ****** ****** ****** ****** ****** ******
      ****** ****** ****** ****** ****** ****** ****** ****** ****** ******
   4  ****** ****** ****** ****** ****** ****** ****** ****** ****** ******
      ****** ****** ****** ****** ****** ****** ****** ****** ****** ******
      ****** ****** ****** ****** ****** ****** ****** ****** ****** ******
   5  ****** ****** ****** ****** ****** ****** ****** ****** ****** ******
      ****** ****** ****** ****** ****** ****** ****** ****** ****** ******
      ****** ****** ****** ****** ****** ****** ****** ****** ****** ******
   6  ****** ****** ****** ****** ****** ****** ****** ****** ****** ******
      ****** ****** ****** ****** ****** ****** ****** ****** ****** ******
      ****** ****** ****** ****** ****** ****** ****** ****** ****** ******
   7  ****** ****** ****** ****** ****** ****** ****** ****** ****** ******
      ****** ****** ****** ****** ****** ****** ****** ****** ****** ******
      ****** ****** ****** ****** ****** ****** ****** ****** ****** ******
   8  ****** ****** ****** ****** ****** ****** ****** ****** ****** ******
      ****** ****** ****** ****** ****** ****** ****** ****** ****** ******
      ****** ****** ****** ****** ****** ****** ****** ****** ****** ******
   9  ****** ****** ****** ****** ****** ****** ****** ****** ****** ******
      ****** ****** ****** ****** ****** ****** ****** ****** ****** ******
      ****** ****** ****** ****** ****** ****** ****** ****** ****** ******
  10  ****** ****** ****** ****** ****** ****** ****** ****** ****** ******
      ****** ****** ****** ****** ****** ****** ****** ****** ****** ******
      ****** ****** ****** ****** ****** ****** ****** ****** ****** ******
  11  ****** ****** ****** ****** ****** ****** ****** ****** ****** ******
      ****** ****** ****** ****** ****** ****** ****** ****** ****** ******
      ****** ****** ****** ****** ****** ****** ****** ****** ****** ******
  12  ****** ****** ****** ****** ****** ****** ****** ****** ****** ******
      ****** ****** ****** ****** ****** ****** ****** ****** ****** ******
      ****** ****** ****** ****** ****** ****** ****** ****** ****** ******
  13  ****** ****** ****** ****** ****** ****** ****** ****** ****** ******
      ****** ****** ****** ****** ****** ****** ****** ****** ****** ******
      ****** ****** ****** ****** ****** ****** ****** ****** ****** ******
  14  ****** ****** ****** ****** ****** ****** ****** ****** ****** ******
      ****** ****** ****** ****** ****** ****** ****** ****** ****** ******
      ****** ****** ****** ****** ****** ****** ****** ****** ****** ******
  15  ****** ****** ****** ****** ****** ****** ****** ****** ****** ******
      ****** ****** ****** ****** ****** ****** ****** ****** ****** ******
      ****** ****** ****** ****** ****** ****** ****** ****** ****** ******
  16  ****** ****** ****** ****** ****** ****** ****** ****** ****** ******
      ****** ****** ****** ****** ****** ****** ****** ****** ****** ******
      ****** ****** ****** ****** ****** ****** ****** ****** ****** ******
  17  ****** ****** ****** ****** ****** ****** ****** ****** ****** ******
      ****** ****** ****** ****** ****** ****** ****** ****** ****** ******
      ****** ****** ****** ****** ****** ****** ****** ****** ****** ******
  18  ****** ****** ****** ****** ****** ****** ****** ****** ****** ******
      ****** ****** ****** ****** ****** ****** ****** ****** ****** ******
      ****** ****** ****** ****** ****** ****** ****** ****** ****** ******
  19  ****** ****** ****** ****** ****** ****** ****** ****** ****** ******
      ****** ****** ****** ****** ****** ****** ****** ****** ****** ******
      ****** ****** ****** ****** ****** ****** ****** ****** ****** ******
  20  ****** ****** ****** ****** ****** ****** ****** ****** ****** ******
      ****** ****** ****** ****** ****** ****** ****** ****** ****** ******
      ****** ****** ****** ****** ****** ****** ****** ****** ****** ******
  21  ****** ****** ****** ****** ****** ****** ****** ****** ****** ******
      ****** ****** ****** ****** ****** ****** ****** ****** ****** ******
      ****** ****** ****** ****** ****** ****** ****** ****** ****** ******
  22  ****** ****** ****** ****** ****** ****** ****** ****** ****** ******
      ****** ****** ****** ****** ****** ****** ****** ****** ****** ******
      ****** ****** ****** ****** ****** ****** ****** ****** ****** ******
  23  ****** ****** ****** ****** ****** ****** ****** ****** ****** ******
      ****** ****** ****** ****** ****** ****** ****** ****** ****** ******
      ****** ****** ****** ****** ****** ****** ****** ****** ****** ******
  24  ****** ****** ****** ****** ****** ****** ****** ****** ****** ******
      ****** ****** ****** ****** ****** ****** ****** ****** ****** ******
      ****** ****** ****** ****** ****** ****** ****** ****** ****** ******
  25  ****** ****** ****** ****** ****** ****** ****** ****** ****** ******
      ****** ****** ****** ****** ****** ****** ****** ****** ****** ******
      ****** ****** ****** ****** ****** ****** ****** ****** ****** ******

 HEAD WILL BE SAVED ON UNIT   51 AT END OF TIME STEP    1, STRESS PERIOD   10
1
  VOLUMETRIC BUDGET FOR ENTIRE MODEL AT END OF TIME STEP    1, STRESS PERIOD  10
  ------------------------------------------------------------------------------

     CUMULATIVE VOLUMES      L**3       RATES FOR THIS TIME STEP      L**3/T
     ------------------                 ------------------------

           IN:                                      IN:
           ---                                      ---
             STORAGE =    33382106.2597               STORAGE =           0.0000
       CONSTANT HEAD =    24371321.6455         CONSTANT HEAD =       30119.2858
               WELLS =           0.0000                 WELLS =           0.0000
            RECHARGE =    23901600.0000              RECHARGE =       55200.0000
      STREAM LEAKAGE =    16241451.0904        STREAM LEAKAGE =       18384.5139

            TOTAL IN =    97896478.9956              TOTAL IN =      103703.7997

          OUT:                                     OUT:
          ----                                     ----
             STORAGE =     2404443.6409               STORAGE =       15783.7589
       CONSTANT HEAD =           0.0000         CONSTANT HEAD =           0.0000
               WELLS =    40281698.8571                 WELLS =       44120.1521
            RECHARGE =           0.0000              RECHARGE =           0.0000
      STREAM LEAKAGE =    55210338.0231        STREAM LEAKAGE =       43799.8857

           TOTAL OUT =    97896480.5212             TOTAL OUT =      103703.7967

            IN - OUT =          -1.5257              IN - OUT =       3.0458E-03

 PERCENT DISCREPANCY =          -0.00     PERCENT DISCREPANCY =           0.00






         TIME SUMMARY AT END OF TIME STEP    1 IN STRESS PERIOD   10
                    SECONDS     MINUTES      HOURS       DAYS        YEARS
                    -----------------------------------------------------------
   TIME STEP LENGTH 7.86240E+06 1.31040E+05  2184.0      91.000     0.24914    
 STRESS PERIOD TIME 7.86240E+06 1.31040E+05  2184.0      91.000     0.24914    
         TOTAL TIME 7.88832E+07 1.31472E+06  21912.      913.00      2.4997    
1
1
                            STRESS PERIOD NO.   11, LENGTH =   91.00000    
                            -----------------------------------------------

                              NUMBER OF TIME STEPS =     1

                               MULTIPLIER FOR DELT =     1.500

                            INITIAL TIME STEP SIZE =   91.00000    

 WELL NO.  LAYER   ROW   COL   STRESS RATE         
 --------------------------------------------------
      1      1     11     21     -0.1135E+05
      2      1     18     20      -9351.    
      3      1     16     28     -0.1298E+05
      4      1     10     28     -0.1044E+05

      4 WELLS

                 RECHARGE =   0.00000    

 REUSING STREAM SEGMENT DATA FROM LAST STRESS PERIOD
 
 SOLVING FOR HEAD 


     7 CALLS TO PCG ROUTINE FOR TIME STEP   1 IN STRESS PERIOD   11
    26 TOTAL ITERATIONS

 OUTPUT CONTROL FOR STRESS PERIOD   11   TIME STEP    1
    SAVE BUDGET
    SAVE HEAD FOR ALL LAYERS
    PRINT HEAD FOR ALL LAYERS
 UBDSV2 SAVING "STREAMFLOW OUT  " ON UNIT  50 AT TIME STEP  1, STRESS PERIOD  11



 STREAM LISTING     PERIOD     11   STEP        1

 LAYER ROW COL. STREAM  RCH.  FLOW INTO     FLOW TO   FLOW OUT OF   OVRLND.     DIRECT     STREAM       STREAM     STREAM     STREAM   STREAMBED  STREAMBED
                SEG.NO.  NO.  STRM. RCH.    AQUIFER    STRM. RCH.    RUNOFF     PRECIP       ET          HEAD       DEPTH      WIDTH   CONDCTNC.   GRADIENT

   1   13    1     1     1    1.0000E+05 -1.5535E+03   1.0155E+05  0.000E+00  0.000E+00  0.000E+00  4.84067E+01  1.453E-01  2.000E+01  2.000E+04 -7.768E-02
   1   13    2     1     2    1.0155E+05 -2.4845E+03   1.0404E+05  0.000E+00  0.000E+00  0.000E+00  4.79312E+01  1.471E-01  2.000E+01  2.000E+04 -1.242E-01
   1   14    3     1     3    1.0404E+05 -3.6260E+02   1.0440E+05  0.000E+00  0.000E+00  0.000E+00  4.74551E+01  1.483E-01  2.000E+01  2.000E+04 -1.813E-02
   1   15    4     1     4    1.0440E+05 -3.3245E+02   1.0473E+05  0.000E+00  0.000E+00  0.000E+00  4.69781E+01  1.486E-01  2.000E+01  2.000E+04 -1.662E-02
   1   16    5     1     5    1.0473E+05 -1.3481E+03   1.0608E+05  0.000E+00  0.000E+00  0.000E+00  4.65016E+01  1.493E-01  2.000E+01  2.000E+04 -6.741E-02
   1   16    6     1     6    1.0608E+05 -8.5159E+02   1.0693E+05  0.000E+00  0.000E+00  0.000E+00  4.60252E+01  1.502E-01  2.000E+01  2.000E+04 -4.258E-02
   1   16    7     1     7    1.0693E+05 -8.3154E+02   1.0776E+05  0.000E+00  0.000E+00  0.000E+00  4.55487E+01  1.509E-01  2.000E+01  2.000E+04 -4.158E-02
   1   16    8     1     8    1.0776E+05 -8.1805E+02   1.0858E+05  0.000E+00  0.000E+00  0.000E+00  4.50721E+01  1.516E-01  2.000E+01  2.000E+04 -4.090E-02
   1   16    9     1     9    1.0858E+05 -7.9492E+02   1.0938E+05  0.000E+00  0.000E+00  0.000E+00  4.45955E+01  1.523E-01  2.000E+01  2.000E+04 -3.975E-02
   1   16   10     1    10    1.0938E+05 -7.5888E+02   1.1014E+05  0.000E+00  0.000E+00  0.000E+00  4.41189E+01  1.530E-01  2.000E+01  2.000E+04 -3.794E-02
   1   16   11     1    11    1.1014E+05 -7.1667E+02   1.1085E+05  0.000E+00  0.000E+00  0.000E+00  4.36422E+01  1.536E-01  2.000E+01  2.000E+04 -3.583E-02
   1   16   12     1    12    1.1085E+05 -1.0751E+03   1.1193E+05  0.000E+00  0.000E+00  0.000E+00  4.31657E+01  1.543E-01  2.000E+01  2.000E+04 -5.375E-02
   1   15   13     1    13    1.1193E+05 -9.6271E+02   1.1289E+05  0.000E+00  0.000E+00  0.000E+00  4.26893E+01  1.552E-01  2.000E+01  2.000E+04 -4.814E-02
   1   14   14     1    14    1.1289E+05 -1.2039E+03   1.1409E+05  0.000E+00  0.000E+00  0.000E+00  4.22129E+01  1.561E-01  2.000E+01  2.000E+04 -6.020E-02
   1   13   15     1    15    1.1409E+05 -1.5209E+03   1.1562E+05  0.000E+00  0.000E+00  0.000E+00  4.17367E+01  1.572E-01  2.000E+01  2.000E+04 -7.604E-02
   1   12   16     1    16    1.1562E+05 -2.1933E+03   1.1781E+05  0.000E+00  0.000E+00  0.000E+00  4.12610E+01  1.587E-01  2.000E+01  2.000E+04 -1.097E-01
   1   12   17     1    17    1.1781E+05 -1.1534E+03   1.1896E+05  0.000E+00  0.000E+00  0.000E+00  4.07851E+01  1.601E-01  2.000E+01  2.000E+04 -5.767E-02
   1   12   18     1    18    1.1896E+05 -8.0076E+02   1.1976E+05  0.000E+00  0.000E+00  0.000E+00  4.03086E+01  1.609E-01  2.000E+01  2.000E+04 -4.004E-02
   1   12   19     1    19    1.1976E+05  1.6028E+02   1.1960E+05  0.000E+00  0.000E+00  0.000E+00  3.98316E+01  1.611E-01  2.000E+01  2.000E+04  8.014E-03
   1   13   20     1    20    1.1960E+05  9.2475E+02   1.1868E+05  0.000E+00  0.000E+00  0.000E+00  3.93539E+01  1.607E-01  2.000E+01  2.000E+04  4.624E-02
   1   14   21     1    21    1.1868E+05  7.4753E+02   1.1793E+05  0.000E+00  0.000E+00  0.000E+00  3.88759E+01  1.600E-01  2.000E+01  2.000E+04  3.738E-02
   1   14   22     1    22    1.1793E+05  5.5873E+03   1.1234E+05  0.000E+00  0.000E+00  0.000E+00  3.83961E+01  1.574E-01  2.000E+01  2.000E+04  2.794E-01
   1    9   30     2     1    5.0000E+04  8.7921E+02   4.9121E+04  0.000E+00  0.000E+00  0.000E+00  4.02403E+01  1.153E-01  2.000E+01  2.000E+04  4.396E-02
   1    9   29     2     2    4.9121E+04  1.2009E+03   4.7920E+04  0.000E+00  0.000E+00  0.000E+00  3.99888E+01  1.138E-01  2.000E+01  2.000E+04  6.005E-02
   1    9   28     2     3    4.7920E+04  2.9388E+03   4.4981E+04  0.000E+00  0.000E+00  0.000E+00  3.97359E+01  1.109E-01  2.000E+01  2.000E+04  1.469E-01
   1    9   27     2     4    4.4981E+04 -4.4034E+02   4.5421E+04  0.000E+00  0.000E+00  0.000E+00  3.94841E+01  1.091E-01  2.000E+01  2.000E+04 -2.202E-02
   1   10   26     2     5    4.5421E+04  9.5001E+02   4.4471E+04  0.000E+00  0.000E+00  0.000E+00  3.92337E+01  1.087E-01  2.000E+01  2.000E+04  4.750E-02
   1   11   25     2     6    4.4471E+04  4.1534E+02   4.4056E+04  0.000E+00  0.000E+00  0.000E+00  3.89827E+01  1.077E-01  2.000E+01  2.000E+04  2.077E-02
   1   12   24     2     7    4.4056E+04  3.7741E+02   4.3679E+04  0.000E+00  0.000E+00  0.000E+00  3.87321E+01  1.071E-01  2.000E+01  2.000E+04  1.887E-02
   1   13   23     2     8    4.3679E+04  1.3629E+02   4.3542E+04  0.000E+00  0.000E+00  0.000E+00  3.84817E+01  1.067E-01  2.000E+01  2.000E+04  6.815E-03
   1   14   22     2     9    4.3542E+04  2.2656E+03   4.1277E+04  0.000E+00  0.000E+00  0.000E+00  3.82300E+01  1.050E-01  2.000E+01  2.000E+04  1.133E-01
   1   14   22     3     1    1.5362E+05 -8.0680E+03   1.6169E+05  0.000E+00  0.000E+00  0.000E+00  3.77133E+01  1.577E-01  2.000E+01  2.000E+04 -4.034E-01
   1   15   23     3     2    1.6169E+05 -1.6776E+02   1.6186E+05  0.000E+00  0.000E+00  0.000E+00  3.68269E+01  1.602E-01  2.000E+01  2.000E+04 -8.388E-03
   1   15   24     3     3    1.6186E+05 -1.2140E+02   1.6198E+05  0.000E+00  0.000E+00  0.000E+00  3.59381E+01  1.603E-01  2.000E+01  2.000E+04 -6.070E-03
   1   15   25     3     4    1.6198E+05 -1.1841E+02   1.6210E+05  0.000E+00  0.000E+00  0.000E+00  3.50492E+01  1.603E-01  2.000E+01  2.000E+04 -5.920E-03
   1   15   26     3     5    1.6210E+05  7.7454E+01   1.6202E+05  0.000E+00  0.000E+00  0.000E+00  3.41604E+01  1.604E-01  2.000E+01  2.000E+04  3.873E-03
   1   16   27     3     6    1.6202E+05  1.1798E+03   1.6084E+05  0.000E+00  0.000E+00  0.000E+00  3.32711E+01  1.600E-01  2.000E+01  2.000E+04  5.899E-02
   1   17   28     3     7    1.6084E+05  6.2180E+03   1.5462E+05  0.000E+00  0.000E+00  0.000E+00  3.23800E+01  1.578E-01  2.000E+01  2.000E+04  3.109E-01
   1   18   29     3     8    1.5462E+05 -1.0186E+03   1.5564E+05  0.000E+00  0.000E+00  0.000E+00  3.14895E+01  1.562E-01  2.000E+01  2.000E+04 -5.093E-02
   1   18   30     3     9    1.5564E+05 -1.5109E+03   1.5715E+05  0.000E+00  0.000E+00  0.000E+00  3.06014E+01  1.570E-01  2.000E+01  2.000E+04 -7.555E-02



1
              HEAD IN LAYER   1 AT END OF TIME STEP   1 IN STRESS PERIOD   11
  ---------------------------------------------------------------------------

          1      2      3      4      5      6      7      8      9     10
         11     12     13     14     15     16     17     18     19     20
         21     22     23     24     25     26     27     28     29     30
 .........................................................................
   1  ****** ****** ****** ****** ****** ****** ****** ****** ****** ******
      ****** ****** ****** ****** ****** ****** ****** ****** ****** ******
      ****** ****** ****** ****** ****** ****** ****** ****** ****** ******
   2  ****** ****** ****** ****** ****** ****** ****** ****** ****** ******
      ****** ****** ****** ****** ****** ****** ****** ****** ****** ******
      ****** ****** ****** ****** ****** ****** ****** ****** ****** ******
   3  ****** ****** ****** ****** ****** ****** ****** ****** ****** ******
      ****** ****** ****** ****** ****** ****** ****** ****** ****** ******
      ****** ****** ****** ****** ****** ****** ****** ****** ****** ******
   4  ****** ****** ****** ****** ****** ****** ****** ****** ****** ******
      ****** ****** ****** ****** ****** ****** ****** ****** ****** ******
      ****** ****** ****** ****** ****** ****** ****** ****** ****** ******
   5  ****** ****** ****** ****** ****** ****** ****** ****** ****** ******
      ****** ****** ****** ****** ****** ****** ****** ****** ****** ******
      ****** ****** ****** ****** ****** ****** ****** ****** ****** ******
   6  ****** ****** ****** ****** ****** ****** ****** ****** ****** ******
      ****** ****** ****** ****** ****** ****** ****** ****** ****** ******
      ****** ****** ****** ****** ****** ****** ****** ****** ****** ******
   7  ****** ****** ****** ****** ****** ****** ****** ****** ****** ******
      ****** ****** ****** ****** ****** ****** ****** ****** ****** ******
      ****** ****** ****** ****** ****** ****** ****** ****** ****** ******
   8  ****** ****** ****** ****** ****** ****** ****** ****** ****** ******
      ****** ****** ****** ****** ****** ****** ****** ****** ****** ******
      ****** ****** ****** ****** ****** ****** ****** ****** ****** ******
   9  ****** ****** ****** ****** ****** ****** ****** ****** ****** ******
      ****** ****** ****** ****** ****** ****** ****** ****** ****** ******
      ****** ****** ****** ****** ****** ****** ****** ****** ****** ******
  10  ****** ****** ****** ****** ****** ****** ****** ****** ****** ******
      ****** ****** ****** ****** ****** ****** ****** ****** ****** ******
      ****** ****** ****** ****** ****** ****** ****** ****** ****** ******
  11  ****** ****** ****** ****** ****** ****** ****** ****** ****** ******
      ****** ****** ****** ****** ****** ****** ****** ****** ****** ******
      ****** ****** ****** ****** ****** ****** ****** ****** ****** ******
  12  ****** ****** ****** ****** ****** ****** ****** ****** ****** ******
      ****** ****** ****** ****** ****** ****** ****** ****** ****** ******
      ****** ****** ****** ****** ****** ****** ****** ****** ****** ******
  13  ****** ****** ****** ****** ****** ****** ****** ****** ****** ******
      ****** ****** ****** ****** ****** ****** ****** ****** ****** ******
      ****** ****** ****** ****** ****** ****** ****** ****** ****** ******
  14  ****** ****** ****** ****** ****** ****** ****** ****** ****** ******
      ****** ****** ****** ****** ****** ****** ****** ****** ****** ******
      ****** ****** ****** ****** ****** ****** ****** ****** ****** ******
  15  ****** ****** ****** ****** ****** ****** ****** ****** ****** ******
      ****** ****** ****** ****** ****** ****** ****** ****** ****** ******
      ****** ****** ****** ****** ****** ****** ****** ****** ****** ******
  16  ****** ****** ****** ****** ****** ****** ****** ****** ****** ******
      ****** ****** ****** ****** ****** ****** ****** ****** ****** ******
      ****** ****** ****** ****** ****** ****** ****** ****** ****** ******
  17  ****** ****** ****** ****** ****** ****** ****** ****** ****** ******
      ****** ****** ****** ****** ****** ****** ****** ****** ****** ******
      ****** ****** ****** ****** ****** ****** ****** ****** ****** ******
  18  ****** ****** ****** ****** ****** ****** ****** ****** ****** ******
      ****** ****** ****** ****** ****** ****** ****** ****** ****** ******
      ****** ****** ****** ****** ****** ****** ****** ****** ****** ******
  19  ****** ****** ****** ****** ****** ****** ****** ****** ****** ******
      ****** ****** ****** ****** ****** ****** ****** ****** ****** ******
      ****** ****** ****** ****** ****** ****** ****** ****** ****** ******
  20  ****** ****** ****** ****** ****** ****** ****** ****** ****** ******
      ****** ****** ****** ****** ****** ****** ****** ****** ****** ******
      ****** ****** ****** ****** ****** ****** ****** ****** ****** ******
  21  ****** ****** ****** ****** ****** ****** ****** ****** ****** ******
      ****** ****** ****** ****** ****** ****** ****** ****** ****** ******
      ****** ****** ****** ****** ****** ****** ****** ****** ****** ******
  22  ****** ****** ****** ****** ****** ****** ****** ****** ****** ******
      ****** ****** ****** ****** ****** ****** ****** ****** ****** ******
      ****** ****** ****** ****** ****** ****** ****** ****** ****** ******
  23  ****** ****** ****** ****** ****** ****** ****** ****** ****** ******
      ****** ****** ****** ****** ****** ****** ****** ****** ****** ******
      ****** ****** ****** ****** ****** ****** ****** ****** ****** ******
  24  ****** ****** ****** ****** ****** ****** ****** ****** ****** ******
      ****** ****** ****** ****** ****** ****** ****** ****** ****** ******
      ****** ****** ****** ****** ****** ****** ****** ****** ****** ******
  25  ****** ****** ****** ****** ****** ****** ****** ****** ****** ******
      ****** ****** ****** ****** ****** ****** ****** ****** ****** ******
      ****** ****** ****** ****** ****** ****** ****** ****** ****** ******

 HEAD WILL BE SAVED ON UNIT   51 AT END OF TIME STEP    1, STRESS PERIOD   11
1
  VOLUMETRIC BUDGET FOR ENTIRE MODEL AT END OF TIME STEP    1, STRESS PERIOD  11
  ------------------------------------------------------------------------------

     CUMULATIVE VOLUMES      L**3       RATES FOR THIS TIME STEP      L**3/T
     ------------------                 ------------------------

           IN:                                      IN:
           ---                                      ---
             STORAGE =    35008457.7022               STORAGE =       17871.9939
       CONSTANT HEAD =    27410508.9891         CONSTANT HEAD =       33397.6631
               WELLS =           0.0000                 WELLS =           0.0000
            RECHARGE =    23901600.0000              RECHARGE =           0.0000
      STREAM LEAKAGE =    18430801.8363        STREAM LEAKAGE =       24058.7994

            TOTAL IN =   104751368.5276              TOTAL IN =       75328.4564

          OUT:                                     OUT:
          ----                                     ----
             STORAGE =     2404443.6409               STORAGE =           0.0000
       CONSTANT HEAD =           0.0000         CONSTANT HEAD =           0.0000
               WELLS =    44296632.6972                 WELLS =       44120.1521
            RECHARGE =           0.0000              RECHARGE =           0.0000
      STREAM LEAKAGE =    58050294.1509        STREAM LEAKAGE =       31208.3091

           TOTAL OUT =   104751370.4890             TOTAL OUT =       75328.4612

            IN - OUT =          -1.9614              IN - OUT =      -4.7885E-03

 PERCENT DISCREPANCY =          -0.00     PERCENT DISCREPANCY =          -0.00






         TIME SUMMARY AT END OF TIME STEP    1 IN STRESS PERIOD   11
                    SECONDS     MINUTES      HOURS       DAYS        YEARS
                    -----------------------------------------------------------
   TIME STEP LENGTH 7.86240E+06 1.31040E+05  2184.0      91.000     0.24914    
 STRESS PERIOD TIME 7.86240E+06 1.31040E+05  2184.0      91.000     0.24914    
         TOTAL TIME 8.67456E+07 1.44576E+06  24096.      1004.0      2.7488    
1
1
                            STRESS PERIOD NO.   12, LENGTH =   91.00000    
                            -----------------------------------------------

                              NUMBER OF TIME STEPS =     1

                               MULTIPLIER FOR DELT =     1.500

                            INITIAL TIME STEP SIZE =   91.00000    

 WELL NO.  LAYER   ROW   COL   STRESS RATE         
 --------------------------------------------------
      1      1     11     21     -0.1135E+05
      2      1     18     20      -9351.    
      3      1     16     28     -0.1298E+05
      4      1     10     28     -0.1044E+05

      4 WELLS

                 RECHARGE =  1.000000E-03

 REUSING STREAM SEGMENT DATA FROM LAST STRESS PERIOD
 
 SOLVING FOR HEAD 


     6 CALLS TO PCG ROUTINE FOR TIME STEP   1 IN STRESS PERIOD   12
    23 TOTAL ITERATIONS

 OUTPUT CONTROL FOR STRESS PERIOD   12   TIME STEP    1
    SAVE BUDGET
    SAVE HEAD FOR ALL LAYERS
    PRINT HEAD FOR ALL LAYERS
 UBDSV2 SAVING "STREAMFLOW OUT  " ON UNIT  50 AT TIME STEP  1, STRESS PERIOD  12



 STREAM LISTING     PERIOD     12   STEP        1

 LAYER ROW COL. STREAM  RCH.  FLOW INTO     FLOW TO   FLOW OUT OF   OVRLND.     DIRECT     STREAM       STREAM     STREAM     STREAM   STREAMBED  STREAMBED
                SEG.NO.  NO.  STRM. RCH.    AQUIFER    STRM. RCH.    RUNOFF     PRECIP       ET          HEAD       DEPTH      WIDTH   CONDCTNC.   GRADIENT

   1   13    1     1     1    1.0000E+05 -1.6992E+03   1.0170E+05  0.000E+00  0.000E+00  0.000E+00  4.84068E+01  1.454E-01  2.000E+01  2.000E+04 -8.496E-02
   1   13    2     1     2    1.0170E+05 -2.6414E+03   1.0434E+05  0.000E+00  0.000E+00  0.000E+00  4.79313E+01  1.473E-01  2.000E+01  2.000E+04 -1.321E-01
   1   14    3     1     3    1.0434E+05 -4.4142E+02   1.0478E+05  0.000E+00  0.000E+00  0.000E+00  4.74554E+01  1.486E-01  2.000E+01  2.000E+04 -2.207E-02
   1   15    4     1     4    1.0478E+05 -4.1503E+02   1.0520E+05  0.000E+00  0.000E+00  0.000E+00  4.69785E+01  1.489E-01  2.000E+01  2.000E+04 -2.075E-02
   1   16    5     1     5    1.0520E+05 -1.5580E+03   1.0676E+05  0.000E+00  0.000E+00  0.000E+00  4.65021E+01  1.498E-01  2.000E+01  2.000E+04 -7.790E-02
   1   16    6     1     6    1.0676E+05 -9.8223E+02   1.0774E+05  0.000E+00  0.000E+00  0.000E+00  4.60259E+01  1.509E-01  2.000E+01  2.000E+04 -4.911E-02
   1   16    7     1     7    1.0774E+05 -9.5712E+02   1.0869E+05  0.000E+00  0.000E+00  0.000E+00  4.55494E+01  1.517E-01  2.000E+01  2.000E+04 -4.786E-02
   1   16    8     1     8    1.0869E+05 -9.4257E+02   1.0964E+05  0.000E+00  0.000E+00  0.000E+00  4.50729E+01  1.525E-01  2.000E+01  2.000E+04 -4.713E-02
   1   16    9     1     9    1.0964E+05 -9.1984E+02   1.1056E+05  0.000E+00  0.000E+00  0.000E+00  4.45964E+01  1.532E-01  2.000E+01  2.000E+04 -4.599E-02
   1   16   10     1    10    1.1056E+05 -8.8507E+02   1.1144E+05  0.000E+00  0.000E+00  0.000E+00  4.41199E+01  1.540E-01  2.000E+01  2.000E+04 -4.425E-02
   1   16   11     1    11    1.1144E+05 -8.4502E+02   1.1229E+05  0.000E+00  0.000E+00  0.000E+00  4.36434E+01  1.547E-01  2.000E+01  2.000E+04 -4.225E-02
   1   16   12     1    12    1.1229E+05 -1.2769E+03   1.1356E+05  0.000E+00  0.000E+00  0.000E+00  4.31670E+01  1.556E-01  2.000E+01  2.000E+04 -6.384E-02
   1   15   13     1    13    1.1356E+05 -1.1802E+03   1.1474E+05  0.000E+00  0.000E+00  0.000E+00  4.26907E+01  1.566E-01  2.000E+01  2.000E+04 -5.901E-02
   1   14   14     1    14    1.1474E+05 -1.4222E+03   1.1617E+05  0.000E+00  0.000E+00  0.000E+00  4.22145E+01  1.577E-01  2.000E+01  2.000E+04 -7.111E-02
   1   13   15     1    15    1.1617E+05 -1.7321E+03   1.1790E+05  0.000E+00  0.000E+00  0.000E+00  4.17385E+01  1.590E-01  2.000E+01  2.000E+04 -8.660E-02
   1   12   16     1    16    1.1790E+05 -2.3785E+03   1.2028E+05  0.000E+00  0.000E+00  0.000E+00  4.12629E+01  1.606E-01  2.000E+01  2.000E+04 -1.189E-01
   1   12   17     1    17    1.2028E+05 -1.3077E+03   1.2158E+05  0.000E+00  0.000E+00  0.000E+00  4.07871E+01  1.621E-01  2.000E+01  2.000E+04 -6.539E-02
   1   12   18     1    18    1.2158E+05 -9.5709E+02   1.2254E+05  0.000E+00  0.000E+00  0.000E+00  4.03108E+01  1.630E-01  2.000E+01  2.000E+04 -4.785E-02
   1   12   19     1    19    1.2254E+05 -3.2996E+01   1.2257E+05  0.000E+00  0.000E+00  0.000E+00  3.98339E+01  1.634E-01  2.000E+01  2.000E+04 -1.650E-03
   1   13   20     1    20    1.2257E+05  7.1404E+02   1.2186E+05  0.000E+00  0.000E+00  0.000E+00  3.93563E+01  1.632E-01  2.000E+01  2.000E+04  3.570E-02
   1   14   21     1    21    1.2186E+05  5.5336E+02   1.2131E+05  0.000E+00  0.000E+00  0.000E+00  3.88786E+01  1.626E-01  2.000E+01  2.000E+04  2.767E-02
   1   14   22     1    22    1.2131E+05  5.5327E+03   1.1577E+05  0.000E+00  0.000E+00  0.000E+00  3.83988E+01  1.602E-01  2.000E+01  2.000E+04  2.766E-01
   1    9   30     2     1    5.0000E+04  7.0262E+02   4.9297E+04  0.000E+00  0.000E+00  0.000E+00  4.02404E+01  1.154E-01  2.000E+01  2.000E+04  3.513E-02
   1    9   29     2     2    4.9297E+04  1.0264E+03   4.8271E+04  0.000E+00  0.000E+00  0.000E+00  3.99892E+01  1.142E-01  2.000E+01  2.000E+04  5.132E-02
   1    9   28     2     3    4.8271E+04  2.7678E+03   4.5503E+04  0.000E+00  0.000E+00  0.000E+00  3.97365E+01  1.115E-01  2.000E+01  2.000E+04  1.384E-01
   1    9   27     2     4    4.5503E+04 -6.4993E+02   4.6153E+04  0.000E+00  0.000E+00  0.000E+00  3.94850E+01  1.100E-01  2.000E+01  2.000E+04 -3.250E-02
   1   10   26     2     5    4.6153E+04  7.1983E+02   4.5433E+04  0.000E+00  0.000E+00  0.000E+00  3.92349E+01  1.099E-01  2.000E+01  2.000E+04  3.599E-02
   1   11   25     2     6    4.5433E+04  1.8911E+02   4.5244E+04  0.000E+00  0.000E+00  0.000E+00  3.89843E+01  1.093E-01  2.000E+01  2.000E+04  9.455E-03
   1   12   24     2     7    4.5244E+04  1.7092E+02   4.5073E+04  0.000E+00  0.000E+00  0.000E+00  3.87340E+01  1.090E-01  2.000E+01  2.000E+04  8.546E-03
   1   13   23     2     8    4.5073E+04  5.8639E+01   4.5015E+04  0.000E+00  0.000E+00  0.000E+00  3.84838E+01  1.088E-01  2.000E+01  2.000E+04  2.932E-03
   1   14   22     2     9    4.5015E+04  2.1998E+03   4.2815E+04  0.000E+00  0.000E+00  0.000E+00  3.82322E+01  1.072E-01  2.000E+01  2.000E+04  1.100E-01
   1   14   22     3     1    1.5859E+05 -8.1186E+03   1.6671E+05  0.000E+00  0.000E+00  0.000E+00  3.77163E+01  1.607E-01  2.000E+01  2.000E+04 -4.059E-01
   1   15   23     3     2    1.6671E+05 -2.3976E+02   1.6695E+05  0.000E+00  0.000E+00  0.000E+00  3.68298E+01  1.632E-01  2.000E+01  2.000E+04 -1.199E-02
   1   15   24     3     3    1.6695E+05 -1.8646E+02   1.6713E+05  0.000E+00  0.000E+00  0.000E+00  3.59411E+01  1.633E-01  2.000E+01  2.000E+04 -9.323E-03
   1   15   25     3     4    1.6713E+05 -1.8475E+02   1.6732E+05  0.000E+00  0.000E+00  0.000E+00  3.50523E+01  1.634E-01  2.000E+01  2.000E+04 -9.237E-03
   1   15   26     3     5    1.6732E+05 -1.2787E-02   1.6732E+05  0.000E+00  0.000E+00  0.000E+00  3.41635E+01  1.635E-01  2.000E+01  2.000E+04 -6.393E-07
   1   16   27     3     6    1.6732E+05  1.0930E+03   1.6623E+05  0.000E+00  0.000E+00  0.000E+00  3.32743E+01  1.631E-01  2.000E+01  2.000E+04  5.465E-02
   1   17   28     3     7    1.6623E+05  5.9974E+03   1.6023E+05  0.000E+00  0.000E+00  0.000E+00  3.23833E+01  1.611E-01  2.000E+01  2.000E+04  2.999E-01
   1   18   29     3     8    1.6023E+05 -1.2191E+03   1.6145E+05  0.000E+00  0.000E+00  0.000E+00  3.14930E+01  1.596E-01  2.000E+01  2.000E+04 -6.095E-02
   1   18   30     3     9    1.6145E+05 -1.6789E+03   1.6313E+05  0.000E+00  0.000E+00  0.000E+00  3.06049E+01  1.605E-01  2.000E+01  2.000E+04 -8.395E-02



1
              HEAD IN LAYER   1 AT END OF TIME STEP   1 IN STRESS PERIOD   12
  ---------------------------------------------------------------------------

          1      2      3      4      5      6      7      8      9     10
         11     12     13     14     15     16     17     18     19     20
         21     22     23     24     25     26     27     28     29     30
 .........................................................................
   1  ****** ****** ****** ****** ****** ****** ****** ****** ****** ******
      ****** ****** ****** ****** ****** ****** ****** ****** ****** ******
      ****** ****** ****** ****** ****** ****** ****** ****** ****** ******
   2  ****** ****** ****** ****** ****** ****** ****** ****** ****** ******
      ****** ****** ****** ****** ****** ****** ****** ****** ****** ******
      ****** ****** ****** ****** ****** ****** ****** ****** ****** ******
   3  ****** ****** ****** ****** ****** ****** ****** ****** ****** ******
      ****** ****** ****** ****** ****** ****** ****** ****** ****** ******
      ****** ****** ****** ****** ****** ****** ****** ****** ****** ******
   4  ****** ****** ****** ****** ****** ****** ****** ****** ****** ******
      ****** ****** ****** ****** ****** ****** ****** ****** ****** ******
      ****** ****** ****** ****** ****** ****** ****** ****** ****** ******
   5  ****** ****** ****** ****** ****** ****** ****** ****** ****** ******
      ****** ****** ****** ****** ****** ****** ****** ****** ****** ******
      ****** ****** ****** ****** ****** ****** ****** ****** ****** ******
   6  ****** ****** ****** ****** ****** ****** ****** ****** ****** ******
      ****** ****** ****** ****** ****** ****** ****** ****** ****** ******
      ****** ****** ****** ****** ****** ****** ****** ****** ****** ******
   7  ****** ****** ****** ****** ****** ****** ****** ****** ****** ******
      ****** ****** ****** ****** ****** ****** ****** ****** ****** ******
      ****** ****** ****** ****** ****** ****** ****** ****** ****** ******
   8  ****** ****** ****** ****** ****** ****** ****** ****** ****** ******
      ****** ****** ****** ****** ****** ****** ****** ****** ****** ******
      ****** ****** ****** ****** ****** ****** ****** ****** ****** ******
   9  ****** ****** ****** ****** ****** ****** ****** ****** ****** ******
      ****** ****** ****** ****** ****** ****** ****** ****** ****** ******
      ****** ****** ****** ****** ****** ****** ****** ****** ****** ******
  10  ****** ****** ****** ****** ****** ****** ****** ****** ****** ******
      ****** ****** ****** ****** ****** ****** ****** ****** ****** ******
      ****** ****** ****** ****** ****** ****** ****** ****** ****** ******
  11  ****** ****** ****** ****** ****** ****** ****** ****** ****** ******
      ****** ****** ****** ****** ****** ****** ****** ****** ****** ******
      ****** ****** ****** ****** ****** ****** ****** ****** ****** ******
  12  ****** ****** ****** ****** ****** ****** ****** ****** ****** ******
      ****** ****** ****** ****** ****** ****** ****** ****** ****** ******
      ****** ****** ****** ****** ****** ****** ****** ****** ****** ******
  13  ****** ****** ****** ****** ****** ****** ****** ****** ****** ******
      ****** ****** ****** ****** ****** ****** ****** ****** ****** ******
      ****** ****** ****** ****** ****** ****** ****** ****** ****** ******
  14  ****** ****** ****** ****** ****** ****** ****** ****** ****** ******
      ****** ****** ****** ****** ****** ****** ****** ****** ****** ******
      ****** ****** ****** ****** ****** ****** ****** ****** ****** ******
  15  ****** ****** ****** ****** ****** ****** ****** ****** ****** ******
      ****** ****** ****** ****** ****** ****** ****** ****** ****** ******
      ****** ****** ****** ****** ****** ****** ****** ****** ****** ******
  16  ****** ****** ****** ****** ****** ****** ****** ****** ****** ******
      ****** ****** ****** ****** ****** ****** ****** ****** ****** ******
      ****** ****** ****** ****** ****** ****** ****** ****** ****** ******
  17  ****** ****** ****** ****** ****** ****** ****** ****** ****** ******
      ****** ****** ****** ****** ****** ****** ****** ****** ****** ******
      ****** ****** ****** ****** ****** ****** ****** ****** ****** ******
  18  ****** ****** ****** ****** ****** ****** ****** ****** ****** ******
      ****** ****** ****** ****** ****** ****** ****** ****** ****** ******
      ****** ****** ****** ****** ****** ****** ****** ****** ****** ******
  19  ****** ****** ****** ****** ****** ****** ****** ****** ****** ******
      ****** ****** ****** ****** ****** ****** ****** ****** ****** ******
      ****** ****** ****** ****** ****** ****** ****** ****** ****** ******
  20  ****** ****** ****** ****** ****** ****** ****** ****** ****** ******
      ****** ****** ****** ****** ****** ****** ****** ****** ****** ******
      ****** ****** ****** ****** ****** ****** ****** ****** ****** ******
  21  ****** ****** ****** ****** ****** ****** ****** ****** ****** ******
      ****** ****** ****** ****** ****** ****** ****** ****** ****** ******
      ****** ****** ****** ****** ****** ****** ****** ****** ****** ******
  22  ****** ****** ****** ****** ****** ****** ****** ****** ****** ******
      ****** ****** ****** ****** ****** ****** ****** ****** ****** ******
      ****** ****** ****** ****** ****** ****** ****** ****** ****** ******
  23  ****** ****** ****** ****** ****** ****** ****** ****** ****** ******
      ****** ****** ****** ****** ****** ****** ****** ****** ****** ******
      ****** ****** ****** ****** ****** ****** ****** ****** ****** ******
  24  ****** ****** ****** ****** ****** ****** ****** ****** ****** ******
      ****** ****** ****** ****** ****** ****** ****** ****** ****** ******
      ****** ****** ****** ****** ****** ****** ****** ****** ****** ******
  25  ****** ****** ****** ****** ****** ****** ****** ****** ****** ******
      ****** ****** ****** ****** ****** ****** ****** ****** ****** ******
      ****** ****** ****** ****** ****** ****** ****** ****** ****** ******

 HEAD WILL BE SAVED ON UNIT   51 AT END OF TIME STEP    1, STRESS PERIOD   12
1
  VOLUMETRIC BUDGET FOR ENTIRE MODEL AT END OF TIME STEP    1, STRESS PERIOD  12
  ------------------------------------------------------------------------------

     CUMULATIVE VOLUMES      L**3       RATES FOR THIS TIME STEP      L**3/T
     ------------------                 ------------------------

           IN:                                      IN:
           ---                                      ---
             STORAGE =    35009032.0217               STORAGE =           6.3112
       CONSTANT HEAD =    30385862.4156         CONSTANT HEAD =       32696.1915
               WELLS =           0.0000                 WELLS =           0.0000
            RECHARGE =    26413200.0000              RECHARGE =       27600.0000
      STREAM LEAKAGE =    20407824.7199        STREAM LEAKAGE =       21725.5262

            TOTAL IN =   112215919.1573              TOTAL IN =       82028.0289

          OUT:                                     OUT:
          ----                                     ----
             STORAGE =     2682524.6524               STORAGE =        3055.8353
       CONSTANT HEAD =           0.0000         CONSTANT HEAD =           0.0000
               WELLS =    48311566.5373                 WELLS =       44120.1521
            RECHARGE =           0.0000              RECHARGE =           0.0000
      STREAM LEAKAGE =    61221829.8709        STREAM LEAKAGE =       34852.0409

           TOTAL OUT =   112215921.0606             TOTAL OUT =       82028.0283

            IN - OUT =          -1.9033              IN - OUT =       6.3843E-04

 PERCENT DISCREPANCY =          -0.00     PERCENT DISCREPANCY =           0.00






         TIME SUMMARY AT END OF TIME STEP    1 IN STRESS PERIOD   12
                    SECONDS     MINUTES      HOURS       DAYS        YEARS
                    -----------------------------------------------------------
   TIME STEP LENGTH 7.86240E+06 1.31040E+05  2184.0      91.000     0.24914    
 STRESS PERIOD TIME 7.86240E+06 1.31040E+05  2184.0      91.000     0.24914    
         TOTAL TIME 9.46080E+07 1.57680E+06  26280.      1095.0      2.9979    
1

 Run end date and time (yyyy/mm/dd hh:mm:ss): 2018/10/14 15:31:49
 Elapsed run time:  0.098 Seconds

