                                  MODFLOW-2005     
      U.S. GEOLOGICAL SURVEY MODULAR FINITE-DIFFERENCE GROUND-WATER FLOW MODEL
                            VERSION 1.11.00 8/8/2013

 LIST FILE: supply2.lst
                         UNIT   10

 OPENING ..\data\supply.dis
 FILE TYPE:DIS   UNIT   11   STATUS:OLD    
 FORMAT:FORMATTED              ACCESS:SEQUENTIAL          

 OPENING ..\data\supply.ba6
 FILE TYPE:BAS6   UNIT   12   STATUS:OLD    
 FORMAT:FORMATTED              ACCESS:SEQUENTIAL          

 OPENING ..\data\supply.bc6
 FILE TYPE:BCF6   UNIT   13   STATUS:OLD    
 FORMAT:FORMATTED              ACCESS:SEQUENTIAL          

 OPENING ..\data\supply.rch
 FILE TYPE:RCH   UNIT   15   STATUS:OLD    
 FORMAT:FORMATTED              ACCESS:SEQUENTIAL          

 OPENING ..\data\supply2.sfr
 FILE TYPE:SFR   UNIT   16   STATUS:OLD    
 FORMAT:FORMATTED              ACCESS:SEQUENTIAL          

 OPENING ..\data\supply.oc
 FILE TYPE:OC   UNIT   17   STATUS:OLD    
 FORMAT:FORMATTED              ACCESS:SEQUENTIAL          

 OPENING ..\data\supply.pcg
 FILE TYPE:PCG   UNIT   18   STATUS:OLD    
 FORMAT:FORMATTED              ACCESS:SEQUENTIAL          

 OPENING supply2.wel
 FILE TYPE:WEL   UNIT   19   STATUS:OLD    
 FORMAT:FORMATTED              ACCESS:SEQUENTIAL          

 OPENING supply2sf.cbc
 FILE TYPE:DATA(BINARY)   UNIT   50   STATUS:UNKNOWN
 FORMAT:BINARY                 ACCESS:SEQUENTIAL          

 OPENING supply2hd.bhd
 FILE TYPE:DATA(BINARY)   UNIT   51   STATUS:UNKNOWN
 FORMAT:BINARY                 ACCESS:SEQUENTIAL          

 BAS -- BASIC PACKAGE, VERSION 7, 5/2/2005 INPUT READ FROM UNIT   12
 
 MODFLOW was compiled using uniform precision
 Precision of REAL and DOUBLE PRECISION variables:          15

 DISCRETIZATION INPUT DATA READ FROM UNIT   11
    1 LAYERS        25 ROWS        30 COLUMNS
   12 STRESS PERIOD(S) IN SIMULATION
 MODEL TIME UNIT IS DAYS
 MODEL LENGTH UNIT IS UNDEFINED
  Confining bed flag for each layer:
   0

                     DELR =   200.000    

                     DELC =   200.000    

 TOP ELEVATION OF LAYER 1 =  100.0000    

   MODEL LAYER BOTTOM EL. =   0.00000     FOR LAYER   1


 STRESS PERIOD     LENGTH       TIME STEPS     MULTIPLIER FOR DELT    SS FLAG
 ----------------------------------------------------------------------------
        1         92.00000          1                    1.500         TR
        2         91.00000          1                    1.500         TR
        3         91.00000          1                    1.500         TR
        4         91.00000          1                    1.500         TR
        5         92.00000          1                    1.500         TR
        6         91.00000          1                    1.500         TR
        7         91.00000          1                    1.500         TR
        8         91.00000          1                    1.500         TR
        9         92.00000          1                    1.500         TR
       10         91.00000          1                    1.500         TR
       11         91.00000          1                    1.500         TR
       12         91.00000          1                    1.500         TR

 TRANSIENT SIMULATION



 
 #MODOFC transient water supply sample problem                                   
 #                                                                               
 THE FREE FORMAT OPTION HAS BEEN SELECTED



                     BOUNDARY ARRAY FOR LAYER   1
 READING ON UNIT   12 WITH FORMAT: (20I4)              

 AQUIFER HEAD WILL BE SET TO   0.0000     AT ALL NO-FLOW NODES (IBOUND=0).



                       INITIAL HEAD FOR LAYER   1
 READING ON UNIT   12 WITH FORMAT: (10F13.0)           

 OUTPUT CONTROL IS SPECIFIED ONLY AT TIME STEPS FOR WHICH OUTPUT IS DESIRED
 COMPACT CELL-BY-CELL BUDGET FILES WILL BE WRITTEN
 HEAD PRINT FORMAT CODE IS  18    DRAWDOWN PRINT FORMAT CODE IS   0
 HEADS WILL BE SAVED ON UNIT   51    DRAWDOWNS WILL BE SAVED ON UNIT    0

 BCF -- BLOCK-CENTERED FLOW PACKAGE, VERSION 7, 5/2/2005
         INPUT READ FROM UNIT 13
 TRANSIENT SIMULATION
 HEAD AT CELLS THAT CONVERT TO DRY=   0.0000    
 WETTING CAPABILITY IS NOT ACTIVE
      LAYER  LAYER-TYPE CODE     INTERBLOCK T
      --------------------------------------------
         1            0          0 -- HARMONIC    

 COLUMN TO ROW ANISOTROPY =  1.000000    

     PRIMARY STORAGE COEF =  5.000000E-02 FOR LAYER   1

     TRANSMIS. ALONG ROWS =   500.000     FOR LAYER   1

 WEL -- WELL PACKAGE, VERSION 7, 5/2/2005 INPUT READ FROM UNIT   19
 # Well package input file written by MMProc
 No named parameters
 MAXIMUM OF      6 ACTIVE WELLS AT ONE TIME


     0 Well parameters

 RCH -- RECHARGE PACKAGE, VERSION 7, 5/2/2005 INPUT READ FROM UNIT   15
 No named parameters
 OPTION 1 -- RECHARGE TO TOP LAYER


     0 Recharge parameters

 SFR7 -- STREAMFLOW ROUTING PACKAGE, VERSION 1.0.7, 2013-01-15
         INPUT READ FROM UNIT  16
 #  Supply2 test problem for GWM-VI
 #  The eighth entry in the first data line is ISTCB2 -
 #    Setting this to a negative number indicates that
 #    streamflows out of the reach will be saved to a
 #    binary file.  The absolute value of ISTCB2 is the
 #    unit to which unformatted flows will be written.
 #
 No named parameters
 Segment information will not be 
 read by reach
 No named parameters
 No specifed inflow files


 NUMBER OF STREAM REACHES IS   40

 NUMBER OF STREAM SEGMENTS IS    3

 NUMBER OF STREAM PARAMETERS IS    0

 NUMBER OF STREAM SEGMENTS DEFINED USING PARAMETERS IS              0

 MAXIMUM ERROR FOR STREAM LEAKAGE RATES IS  1.00E-04

 CONSTANT FOR MANNINGS EQUATION IS  1.2839E+05





   STREAM NETWORK DESCRIPTION: 

   LAYER    ROW    COL   SEGMENT   REACH     LENGTH
                          NUMBER   NUMBER    IN CELL        
   --------------------------------------------------
      1     13      1       1        1    2.0000E+02
      1     13      2       1        2    2.0000E+02
      1     14      3       1        3    2.0000E+02
      1     15      4       1        4    2.0000E+02
      1     16      5       1        5    2.0000E+02
      1     16      6       1        6    2.0000E+02
      1     16      7       1        7    2.0000E+02
      1     16      8       1        8    2.0000E+02
      1     16      9       1        9    2.0000E+02
      1     16     10       1       10    2.0000E+02
      1     16     11       1       11    2.0000E+02
      1     16     12       1       12    2.0000E+02
      1     15     13       1       13    2.0000E+02
      1     14     14       1       14    2.0000E+02
      1     13     15       1       15    2.0000E+02
      1     12     16       1       16    2.0000E+02
      1     12     17       1       17    2.0000E+02
      1     12     18       1       18    2.0000E+02
      1     12     19       1       19    2.0000E+02
      1     13     20       1       20    2.0000E+02
      1     14     21       1       21    2.0000E+02
      1     14     22       1       22    2.0000E+02
      1      9     30       2        1    2.0000E+02
      1      9     29       2        2    2.0000E+02
      1      9     28       2        3    2.0000E+02
      1      9     27       2        4    2.0000E+02
      1     10     26       2        5    2.0000E+02
      1     11     25       2        6    2.0000E+02
      1     12     24       2        7    2.0000E+02
      1     13     23       2        8    2.0000E+02
      1     14     22       2        9    2.0000E+02
      1     14     22       3        1    2.0000E+02
      1     15     23       3        2    2.0000E+02
      1     15     24       3        3    2.0000E+02
      1     15     25       3        4    2.0000E+02
      1     15     26       3        5    2.0000E+02
      1     16     27       3        6    2.0000E+02
      1     17     28       3        7    2.0000E+02
      1     18     29       3        8    2.0000E+02
      1     18     30       3        9    2.0000E+02




 PCG -- CONJUGATE-GRADIENT SOLUTION PACKAGE, VERSION 7, 5/2/2005
 MAXIMUM OF    500 CALLS OF SOLUTION ROUTINE
 MAXIMUM OF      5 INTERNAL ITERATIONS PER CALL TO SOLUTION ROUTINE
 MATRIX PRECONDITIONING TYPE :    1



                                    SOLUTION BY THE CONJUGATE-GRADIENT METHOD
                                   -------------------------------------------
                    MAXIMUM NUMBER OF CALLS TO PCG ROUTINE =      500
                        MAXIMUM ITERATIONS PER CALL TO PCG =        5
                               MATRIX PRECONDITIONING TYPE =        1
        RELAXATION FACTOR (ONLY USED WITH PRECOND. TYPE 1) =    0.10000E+01
 PARAMETER OF POLYNOMIAL PRECOND. = 2 (2) OR IS CALCULATED :        0
                         HEAD CHANGE CRITERION FOR CLOSURE =    0.10000E-05
                     RESIDUAL CHANGE CRITERION FOR CLOSURE =    0.10000E+01
            PCG HEAD AND RESIDUAL CHANGE PRINTOUT INTERVAL =        1
     PRINTING FROM SOLVER IS LIMITED(1) OR SUPPRESSED (>1) =        1
                            STEADY-STATE DAMPING PARAMETER =    0.10000E+01
                               TRANSIENT DAMPING PARAMETER =    0.10000E+01
1
                            STRESS PERIOD NO.    1, LENGTH =   92.00000    
                            -----------------------------------------------

                              NUMBER OF TIME STEPS =     1

                               MULTIPLIER FOR DELT =     1.500

                            INITIAL TIME STEP SIZE =   92.00000    

 WELL NO.  LAYER   ROW   COL   STRESS RATE         
 --------------------------------------------------
      1      1     23     10     -0.1134E+05
      2      1     17      3     -0.1036E+05
      3      1     23     22     -0.1645E+05

      3 WELLS

                 RECHARGE =  5.000000E-04



 CLASSIFICATION & COUNT OF STREAM SEGMENTS BASED ON SOURCE OF INFLOW:

                HEADWATER     DIVERSION     RECEIVES TRIBUTARY FLOW
                ---------     ---------     -----------------------
                     2              0               1



                    INPUT DATA FOR EACH STREAM SEGMENT
 ---------------------------------------------------------------------------------------------

 SEGMENT    SEG.     INFLOW   OVERLAND   STREAM    STREAM   ICALC  OUTFLOW  DIVERSION PRIORITY
    NO.    LENGTH     RATE     RUNOFF      ET       PPT.    METH.  TO SEG.  FROM SEG.    NO.

      1  4.400E+03 1.000E+05 0.000E+00 0.000E+00 0.000E+00    1        3        0        0
      2  1.800E+03 5.000E+04 0.000E+00 0.000E+00 0.000E+00    1        3        0        0
      3  1.800E+03 0.000E+00 0.000E+00 0.000E+00 0.000E+00    1        0        0        0


         STREAMBED PROPERTIES AND STREAM DIMENSIONS

 SEGMENT     BED HYD. COND.      BED THICKNESS     ELEV.-TOP OF BED     WIDTH OF STREAM     DEPTH OF STREAM    STREAM ROUGHNESS
    No.     UPPER     LOWER     UPPER     LOWER     UPPER     LOWER     UPPER     LOWER     UPPER     LOWER   CHANNEL      BANK

     1  5.000E+00 5.000E+00 1.000E+00 1.000E+00 4.850E+01 3.800E+01 2.000E+01 2.000E+01                     5.000E-02
     2  5.000E+00 5.000E+00 1.000E+00 1.000E+00 4.025E+01 3.800E+01 2.000E+01 2.000E+01                     5.000E-02
     3  5.000E+00 5.000E+00 1.000E+00 1.000E+00 3.800E+01 3.000E+01 2.000E+01 2.000E+01                     5.000E-02



 
 SOLVING FOR HEAD 


     8 CALLS TO PCG ROUTINE FOR TIME STEP   1 IN STRESS PERIOD    1
    34 TOTAL ITERATIONS

 OUTPUT CONTROL FOR STRESS PERIOD    1   TIME STEP    1
    SAVE BUDGET
    SAVE HEAD FOR ALL LAYERS
    PRINT HEAD FOR ALL LAYERS
 UBDSV2 SAVING "STREAMFLOW OUT  " ON UNIT  50 AT TIME STEP  1, STRESS PERIOD   1



 STREAM LISTING     PERIOD      1   STEP        1

 LAYER ROW COL. STREAM  RCH.  FLOW INTO     FLOW TO   FLOW OUT OF   OVRLND.     DIRECT     STREAM       STREAM     STREAM     STREAM   STREAMBED  STREAMBED
                SEG.NO.  NO.  STRM. RCH.    AQUIFER    STRM. RCH.    RUNOFF     PRECIP       ET          HEAD       DEPTH      WIDTH   CONDCTNC.   GRADIENT

   1   13    1     1     1    1.0000E+05 -5.3093E+03   1.0531E+05  0.000E+00  0.000E+00  0.000E+00  4.84083E+01  1.469E-01  2.000E+01  2.000E+04 -2.655E-01
   1   13    2     1     2    1.0531E+05 -8.2323E+03   1.1354E+05  0.000E+00  0.000E+00  0.000E+00  4.79368E+01  1.527E-01  2.000E+01  2.000E+04 -4.116E-01
   1   14    3     1     3    1.1354E+05 -6.7721E+03   1.2031E+05  0.000E+00  0.000E+00  0.000E+00  4.74657E+01  1.589E-01  2.000E+01  2.000E+04 -3.386E-01
   1   15    4     1     4    1.2031E+05 -5.9220E+03   1.2624E+05  0.000E+00  0.000E+00  0.000E+00  4.69935E+01  1.640E-01  2.000E+01  2.000E+04 -2.961E-01
   1   16    5     1     5    1.2624E+05 -5.5767E+03   1.3181E+05  0.000E+00  0.000E+00  0.000E+00  4.65208E+01  1.685E-01  2.000E+01  2.000E+04 -2.788E-01
   1   16    6     1     6    1.3181E+05 -5.4759E+03   1.3729E+05  0.000E+00  0.000E+00  0.000E+00  4.60478E+01  1.728E-01  2.000E+01  2.000E+04 -2.738E-01
   1   16    7     1     7    1.3729E+05 -5.8180E+03   1.4311E+05  0.000E+00  0.000E+00  0.000E+00  4.55749E+01  1.772E-01  2.000E+01  2.000E+04 -2.909E-01
   1   16    8     1     8    1.4311E+05 -5.9796E+03   1.4909E+05  0.000E+00  0.000E+00  0.000E+00  4.51021E+01  1.816E-01  2.000E+01  2.000E+04 -2.990E-01
   1   16    9     1     9    1.4909E+05 -6.0290E+03   1.5511E+05  0.000E+00  0.000E+00  0.000E+00  4.46292E+01  1.860E-01  2.000E+01  2.000E+04 -3.015E-01
   1   16   10     1    10    1.5511E+05 -6.0001E+03   1.6112E+05  0.000E+00  0.000E+00  0.000E+00  4.41563E+01  1.904E-01  2.000E+01  2.000E+04 -3.000E-01
   1   16   11     1    11    1.6112E+05 -5.9371E+03   1.6705E+05  0.000E+00  0.000E+00  0.000E+00  4.36833E+01  1.947E-01  2.000E+01  2.000E+04 -2.969E-01
   1   16   12     1    12    1.6705E+05 -7.6961E+03   1.7475E+05  0.000E+00  0.000E+00  0.000E+00  4.32109E+01  1.995E-01  2.000E+01  2.000E+04 -3.848E-01
   1   15   13     1    13    1.7475E+05 -8.1177E+03   1.8287E+05  0.000E+00  0.000E+00  0.000E+00  4.27391E+01  2.050E-01  2.000E+01  2.000E+04 -4.059E-01
   1   14   14     1    14    1.8287E+05 -8.3948E+03   1.9126E+05  0.000E+00  0.000E+00  0.000E+00  4.22674E+01  2.106E-01  2.000E+01  2.000E+04 -4.197E-01
   1   13   15     1    15    1.9126E+05 -8.6430E+03   1.9990E+05  0.000E+00  0.000E+00  0.000E+00  4.17959E+01  2.163E-01  2.000E+01  2.000E+04 -4.322E-01
   1   12   16     1    16    1.9990E+05 -9.4457E+03   2.0935E+05  0.000E+00  0.000E+00  0.000E+00  4.13246E+01  2.223E-01  2.000E+01  2.000E+04 -4.723E-01
   1   12   17     1    17    2.0935E+05 -6.6511E+03   2.1600E+05  0.000E+00  0.000E+00  0.000E+00  4.08525E+01  2.275E-01  2.000E+01  2.000E+04 -3.326E-01
   1   12   18     1    18    2.1600E+05 -6.4750E+03   2.2248E+05  0.000E+00  0.000E+00  0.000E+00  4.03794E+01  2.317E-01  2.000E+01  2.000E+04 -3.238E-01
   1   12   19     1    19    2.2248E+05 -8.1585E+03   2.3063E+05  0.000E+00  0.000E+00  0.000E+00  3.99067E+01  2.363E-01  2.000E+01  2.000E+04 -4.079E-01
   1   13   20     1    20    2.3063E+05 -6.7011E+03   2.3734E+05  0.000E+00  0.000E+00  0.000E+00  3.94341E+01  2.409E-01  2.000E+01  2.000E+04 -3.351E-01
   1   14   21     1    21    2.3734E+05 -5.5251E+03   2.4286E+05  0.000E+00  0.000E+00  0.000E+00  3.89606E+01  2.447E-01  2.000E+01  2.000E+04 -2.763E-01
   1   14   22     1    22    2.4286E+05  4.3368E+03   2.3852E+05  0.000E+00  0.000E+00  0.000E+00  3.84837E+01  2.450E-01  2.000E+01  2.000E+04  2.168E-01
   1    9   30     2     1    5.0000E+04 -5.5714E+03   5.5571E+04  0.000E+00  0.000E+00  0.000E+00  4.02447E+01  1.197E-01  2.000E+01  2.000E+04 -2.786E-01
   1    9   29     2     2    5.5571E+04 -5.8704E+03   6.1442E+04  0.000E+00  0.000E+00  0.000E+00  4.00023E+01  1.273E-01  2.000E+01  2.000E+04 -2.935E-01
   1    9   28     2     3    6.1442E+04 -6.1946E+03   6.7637E+04  0.000E+00  0.000E+00  0.000E+00  3.97600E+01  1.350E-01  2.000E+01  2.000E+04 -3.097E-01
   1    9   27     2     4    6.7637E+04 -9.5879E+03   7.7224E+04  0.000E+00  0.000E+00  0.000E+00  3.95197E+01  1.447E-01  2.000E+01  2.000E+04 -4.794E-01
   1   10   26     2     5    7.7224E+04 -7.7188E+03   8.4943E+04  0.000E+00  0.000E+00  0.000E+00  3.92799E+01  1.549E-01  2.000E+01  2.000E+04 -3.859E-01
   1   11   25     2     6    8.4943E+04 -6.5934E+03   9.1537E+04  0.000E+00  0.000E+00  0.000E+00  3.90379E+01  1.629E-01  2.000E+01  2.000E+04 -3.297E-01
   1   12   24     2     7    9.1537E+04 -5.3352E+03   9.6872E+04  0.000E+00  0.000E+00  0.000E+00  3.87944E+01  1.694E-01  2.000E+01  2.000E+04 -2.668E-01
   1   13   23     2     8    9.6872E+04 -3.7922E+03   1.0066E+05  0.000E+00  0.000E+00  0.000E+00  3.85493E+01  1.743E-01  2.000E+01  2.000E+04 -1.896E-01
   1   14   22     2     9    1.0066E+05  6.8288E+02   9.9981E+04  0.000E+00  0.000E+00  0.000E+00  3.83010E+01  1.760E-01  2.000E+01  2.000E+04  3.414E-02
   1   14   22     3     1    3.3850E+05 -9.1950E+03   3.4770E+05  0.000E+00  0.000E+00  0.000E+00  3.78071E+01  2.515E-01  2.000E+01  2.000E+04 -4.597E-01
   1   15   23     3     2    3.4770E+05 -5.8001E+03   3.5350E+05  0.000E+00  0.000E+00  0.000E+00  3.69215E+01  2.548E-01  2.000E+01  2.000E+04 -2.900E-01
   1   15   24     3     3    3.5350E+05 -4.2288E+03   3.5773E+05  0.000E+00  0.000E+00  0.000E+00  3.60348E+01  2.570E-01  2.000E+01  2.000E+04 -2.114E-01
   1   15   25     3     4    3.5773E+05 -4.2526E+03   3.6198E+05  0.000E+00  0.000E+00  0.000E+00  3.51477E+01  2.588E-01  2.000E+01  2.000E+04 -2.126E-01
   1   15   26     3     5    3.6198E+05 -5.6075E+03   3.6759E+05  0.000E+00  0.000E+00  0.000E+00  3.42609E+01  2.609E-01  2.000E+01  2.000E+04 -2.804E-01
   1   16   27     3     6    3.6759E+05 -7.1456E+03   3.7473E+05  0.000E+00  0.000E+00  0.000E+00  3.33748E+01  2.637E-01  2.000E+01  2.000E+04 -3.573E-01
   1   17   28     3     7    3.7473E+05 -7.9082E+03   3.8264E+05  0.000E+00  0.000E+00  0.000E+00  3.24891E+01  2.669E-01  2.000E+01  2.000E+04 -3.954E-01
   1   18   29     3     8    3.8264E+05 -8.9425E+03   3.9158E+05  0.000E+00  0.000E+00  0.000E+00  3.16037E+01  2.704E-01  2.000E+01  2.000E+04 -4.471E-01
   1   18   30     3     9    3.9158E+05 -7.4609E+03   3.9905E+05  0.000E+00  0.000E+00  0.000E+00  3.07183E+01  2.738E-01  2.000E+01  2.000E+04 -3.730E-01



1
              HEAD IN LAYER   1 AT END OF TIME STEP   1 IN STRESS PERIOD    1
  ---------------------------------------------------------------------------

          1      2      3      4      5      6      7      8      9     10
         11     12     13     14     15     16     17     18     19     20
         21     22     23     24     25     26     27     28     29     30
 .........................................................................
   1  ****** ****** ****** ****** ****** ****** ****** ****** ****** ******
      ****** ****** ****** ****** ****** ****** ****** ****** ****** ******
      ****** ****** ****** ****** ****** ****** ****** ****** ****** ******
   2  ****** ****** ****** ****** ****** ****** ****** ****** ****** ******
      ****** ****** ****** ****** ****** ****** ****** ****** ****** ******
      ****** ****** ****** ****** ****** ****** ****** ****** ****** ******
   3  ****** ****** ****** ****** ****** ****** ****** ****** ****** ******
      ****** ****** ****** ****** ****** ****** ****** ****** ****** ******
      ****** ****** ****** ****** ****** ****** ****** ****** ****** ******
   4  ****** ****** ****** ****** ****** ****** ****** ****** ****** ******
      ****** ****** ****** ****** ****** ****** ****** ****** ****** ******
      ****** ****** ****** ****** ****** ****** ****** ****** ****** ******
   5  ****** ****** ****** ****** ****** ****** ****** ****** ****** ******
      ****** ****** ****** ****** ****** ****** ****** ****** ****** ******
      ****** ****** ****** ****** ****** ****** ****** ****** ****** ******
   6  ****** ****** ****** ****** ****** ****** ****** ****** ****** ******
      ****** ****** ****** ****** ****** ****** ****** ****** ****** ******
      ****** ****** ****** ****** ****** ****** ****** ****** ****** ******
   7  ****** ****** ****** ****** ****** ****** ****** ****** ****** ******
      ****** ****** ****** ****** ****** ****** ****** ****** ****** ******
      ****** ****** ****** ****** ****** ****** ****** ****** ****** ******
   8  ****** ****** ****** ****** ****** ****** ****** ****** ****** ******
      ****** ****** ****** ****** ****** ****** ****** ****** ****** ******
      ****** ****** ****** ****** ****** ****** ****** ****** ****** ******
   9  ****** ****** ****** ****** ****** ****** ****** ****** ****** ******
      ****** ****** ****** ****** ****** ****** ****** ****** ****** ******
      ****** ****** ****** ****** ****** ****** ****** ****** ****** ******
  10  ****** ****** ****** ****** ****** ****** ****** ****** ****** ******
      ****** ****** ****** ****** ****** ****** ****** ****** ****** ******
      ****** ****** ****** ****** ****** ****** ****** ****** ****** ******
  11  ****** ****** ****** ****** ****** ****** ****** ****** ****** ******
      ****** ****** ****** ****** ****** ****** ****** ****** ****** ******
      ****** ****** ****** ****** ****** ****** ****** ****** ****** ******
  12  ****** ****** ****** ****** ****** ****** ****** ****** ****** ******
      ****** ****** ****** ****** ****** ****** ****** ****** ****** ******
      ****** ****** ****** ****** ****** ****** ****** ****** ****** ******
  13  ****** ****** ****** ****** ****** ****** ****** ****** ****** ******
      ****** ****** ****** ****** ****** ****** ****** ****** ****** ******
      ****** ****** ****** ****** ****** ****** ****** ****** ****** ******
  14  ****** ****** ****** ****** ****** ****** ****** ****** ****** ******
      ****** ****** ****** ****** ****** ****** ****** ****** ****** ******
      ****** ****** ****** ****** ****** ****** ****** ****** ****** ******
  15  ****** ****** ****** ****** ****** ****** ****** ****** ****** ******
      ****** ****** ****** ****** ****** ****** ****** ****** ****** ******
      ****** ****** ****** ****** ****** ****** ****** ****** ****** ******
  16  ****** ****** ****** ****** ****** ****** ****** ****** ****** ******
      ****** ****** ****** ****** ****** ****** ****** ****** ****** ******
      ****** ****** ****** ****** ****** ****** ****** ****** ****** ******
  17  ****** ****** ****** ****** ****** ****** ****** ****** ****** ******
      ****** ****** ****** ****** ****** ****** ****** ****** ****** ******
      ****** ****** ****** ****** ****** ****** ****** ****** ****** ******
  18  ****** ****** ****** ****** ****** ****** ****** ****** ****** ******
      ****** ****** ****** ****** ****** ****** ****** ****** ****** ******
      ****** ****** ****** ****** ****** ****** ****** ****** ****** ******
  19  ****** ****** ****** ****** ****** ****** ****** ****** ****** ******
      ****** ****** ****** ****** ****** ****** ****** ****** ****** ******
      ****** ****** ****** ****** ****** ****** ****** ****** ****** ******
  20  ****** ****** ****** ****** ****** ****** ****** ****** ****** ******
      ****** ****** ****** ****** ****** ****** ****** ****** ****** ******
      ****** ****** ****** ****** ****** ****** ****** ****** ****** ******
  21  ****** ****** ****** ****** ****** ****** ****** ****** ****** ******
      ****** ****** ****** ****** ****** ****** ****** ****** ****** ******
      ****** ****** ****** ****** ****** ****** ****** ****** ****** ******
  22  ****** ****** ****** ****** ****** ****** ****** ****** ****** ******
      ****** ****** ****** ****** ****** ****** ****** ****** ****** ******
      ****** ****** ****** ****** ****** ****** ****** ****** ****** ******
  23  ****** ****** ****** ****** ****** ****** ****** ****** ****** ******
      ****** ****** ****** ****** ****** ****** ****** ****** ****** ******
      ****** ****** ****** ****** ****** ****** ****** ****** ****** ******
  24  ****** ****** ****** ****** ****** ****** ****** ****** ****** ******
      ****** ****** ****** ****** ****** ****** ****** ****** ****** ******
      ****** ****** ****** ****** ****** ****** ****** ****** ****** ******
  25  ****** ****** ****** ****** ****** ****** ****** ****** ****** ******
      ****** ****** ****** ****** ****** ****** ****** ****** ****** ******
      ****** ****** ****** ****** ****** ****** ****** ****** ****** ******

 HEAD WILL BE SAVED ON UNIT   51 AT END OF TIME STEP    1, STRESS PERIOD    1
1
  VOLUMETRIC BUDGET FOR ENTIRE MODEL AT END OF TIME STEP    1, STRESS PERIOD   1
  ------------------------------------------------------------------------------

     CUMULATIVE VOLUMES      L**3       RATES FOR THIS TIME STEP      L**3/T
     ------------------                 ------------------------

           IN:                                      IN:
           ---                                      ---
             STORAGE =    16137778.2844               STORAGE =      175410.6335
       CONSTANT HEAD =     9014184.7856         CONSTANT HEAD =       97980.2694
               WELLS =           0.0000                 WELLS =           0.0000
            RECHARGE =     1269600.0000              RECHARGE =       13800.0000
      STREAM LEAKAGE =      461813.5550        STREAM LEAKAGE =        5019.7126

            TOTAL IN =    26883376.6250              TOTAL IN =      292210.6155

          OUT:                                     OUT:
          ----                                     ----
             STORAGE =           0.0000               STORAGE =           0.0000
       CONSTANT HEAD =           0.0000         CONSTANT HEAD =           0.0000
               WELLS =     3509352.7913                 WELLS =       38145.1390
            RECHARGE =           0.0000              RECHARGE =           0.0000
      STREAM LEAKAGE =    23374023.9724        STREAM LEAKAGE =      254065.4780

           TOTAL OUT =    26883376.7638             TOTAL OUT =      292210.6170

            IN - OUT =          -0.1387              IN - OUT =      -1.5081E-03

 PERCENT DISCREPANCY =          -0.00     PERCENT DISCREPANCY =          -0.00






         TIME SUMMARY AT END OF TIME STEP    1 IN STRESS PERIOD    1
                    SECONDS     MINUTES      HOURS       DAYS        YEARS
                    -----------------------------------------------------------
   TIME STEP LENGTH 7.94880E+06 1.32480E+05  2208.0      92.000     0.25188    
 STRESS PERIOD TIME 7.94880E+06 1.32480E+05  2208.0      92.000     0.25188    
         TOTAL TIME 7.94880E+06 1.32480E+05  2208.0      92.000     0.25188    
1
1
                            STRESS PERIOD NO.    2, LENGTH =   91.00000    
                            -----------------------------------------------

                              NUMBER OF TIME STEPS =     1

                               MULTIPLIER FOR DELT =     1.500

                            INITIAL TIME STEP SIZE =   91.00000    

 WELL NO.  LAYER   ROW   COL   STRESS RATE         
 --------------------------------------------------
      1      1     23     10     -0.1134E+05
      2      1     17      3     -0.1036E+05
      3      1     23     22     -0.1645E+05

      3 WELLS

                 RECHARGE =  2.000000E-03

 REUSING STREAM SEGMENT DATA FROM LAST STRESS PERIOD
 
 SOLVING FOR HEAD 


     7 CALLS TO PCG ROUTINE FOR TIME STEP   1 IN STRESS PERIOD    2
    27 TOTAL ITERATIONS

 OUTPUT CONTROL FOR STRESS PERIOD    2   TIME STEP    1
    SAVE BUDGET
    SAVE HEAD FOR ALL LAYERS
    PRINT HEAD FOR ALL LAYERS
 UBDSV2 SAVING "STREAMFLOW OUT  " ON UNIT  50 AT TIME STEP  1, STRESS PERIOD   2



 STREAM LISTING     PERIOD      2   STEP        1

 LAYER ROW COL. STREAM  RCH.  FLOW INTO     FLOW TO   FLOW OUT OF   OVRLND.     DIRECT     STREAM       STREAM     STREAM     STREAM   STREAMBED  STREAMBED
                SEG.NO.  NO.  STRM. RCH.    AQUIFER    STRM. RCH.    RUNOFF     PRECIP       ET          HEAD       DEPTH      WIDTH   CONDCTNC.   GRADIENT

   1   13    1     1     1    1.0000E+05 -3.2840E+03   1.0328E+05  0.000E+00  0.000E+00  0.000E+00  4.84074E+01  1.461E-01  2.000E+01  2.000E+04 -1.642E-01
   1   13    2     1     2    1.0328E+05 -5.7358E+03   1.0902E+05  0.000E+00  0.000E+00  0.000E+00  4.79340E+01  1.499E-01  2.000E+01  2.000E+04 -2.868E-01
   1   14    3     1     3    1.0902E+05 -3.8354E+03   1.1286E+05  0.000E+00  0.000E+00  0.000E+00  4.74608E+01  1.539E-01  2.000E+01  2.000E+04 -1.918E-01
   1   15    4     1     4    1.1286E+05 -2.9260E+03   1.1578E+05  0.000E+00  0.000E+00  0.000E+00  4.69863E+01  1.567E-01  2.000E+01  2.000E+04 -1.463E-01
   1   16    5     1     5    1.1578E+05 -2.9092E+03   1.1869E+05  0.000E+00  0.000E+00  0.000E+00  4.65114E+01  1.591E-01  2.000E+01  2.000E+04 -1.455E-01
   1   16    6     1     6    1.1869E+05 -3.4368E+03   1.2213E+05  0.000E+00  0.000E+00  0.000E+00  4.60367E+01  1.617E-01  2.000E+01  2.000E+04 -1.718E-01
   1   16    7     1     7    1.2213E+05 -3.7744E+03   1.2590E+05  0.000E+00  0.000E+00  0.000E+00  4.55623E+01  1.646E-01  2.000E+01  2.000E+04 -1.887E-01
   1   16    8     1     8    1.2590E+05 -3.9277E+03   1.2983E+05  0.000E+00  0.000E+00  0.000E+00  4.50881E+01  1.676E-01  2.000E+01  2.000E+04 -1.964E-01
   1   16    9     1     9    1.2983E+05 -3.9770E+03   1.3381E+05  0.000E+00  0.000E+00  0.000E+00  4.46139E+01  1.707E-01  2.000E+01  2.000E+04 -1.988E-01
   1   16   10     1    10    1.3381E+05 -3.9599E+03   1.3777E+05  0.000E+00  0.000E+00  0.000E+00  4.41397E+01  1.738E-01  2.000E+01  2.000E+04 -1.980E-01
   1   16   11     1    11    1.3777E+05 -3.9201E+03   1.4169E+05  0.000E+00  0.000E+00  0.000E+00  4.36654E+01  1.768E-01  2.000E+01  2.000E+04 -1.960E-01
   1   16   12     1    12    1.4169E+05 -5.1755E+03   1.4686E+05  0.000E+00  0.000E+00  0.000E+00  4.31916E+01  1.802E-01  2.000E+01  2.000E+04 -2.588E-01
   1   15   13     1    13    1.4686E+05 -5.1946E+03   1.5206E+05  0.000E+00  0.000E+00  0.000E+00  4.27182E+01  1.841E-01  2.000E+01  2.000E+04 -2.597E-01
   1   14   14     1    14    1.5206E+05 -5.3721E+03   1.5743E+05  0.000E+00  0.000E+00  0.000E+00  4.22448E+01  1.880E-01  2.000E+01  2.000E+04 -2.686E-01
   1   13   15     1    15    1.5743E+05 -5.6759E+03   1.6310E+05  0.000E+00  0.000E+00  0.000E+00  4.17715E+01  1.920E-01  2.000E+01  2.000E+04 -2.838E-01
   1   12   16     1    16    1.6310E+05 -6.8504E+03   1.6995E+05  0.000E+00  0.000E+00  0.000E+00  4.12987E+01  1.964E-01  2.000E+01  2.000E+04 -3.425E-01
   1   12   17     1    17    1.6995E+05 -4.5545E+03   1.7451E+05  0.000E+00  0.000E+00  0.000E+00  4.08254E+01  2.004E-01  2.000E+01  2.000E+04 -2.277E-01
   1   12   18     1    18    1.7451E+05 -4.3835E+03   1.7889E+05  0.000E+00  0.000E+00  0.000E+00  4.03513E+01  2.035E-01  2.000E+01  2.000E+04 -2.192E-01
   1   12   19     1    19    1.7889E+05 -5.6384E+03   1.8453E+05  0.000E+00  0.000E+00  0.000E+00  3.98774E+01  2.070E-01  2.000E+01  2.000E+04 -2.819E-01
   1   13   20     1    20    1.8453E+05 -4.0040E+03   1.8854E+05  0.000E+00  0.000E+00  0.000E+00  3.94035E+01  2.103E-01  2.000E+01  2.000E+04 -2.002E-01
   1   14   21     1    21    1.8854E+05 -3.1356E+03   1.9167E+05  0.000E+00  0.000E+00  0.000E+00  3.89286E+01  2.127E-01  2.000E+01  2.000E+04 -1.568E-01
   1   14   22     1    22    1.9167E+05  4.8815E+03   1.8679E+05  0.000E+00  0.000E+00  0.000E+00  3.84507E+01  2.121E-01  2.000E+01  2.000E+04  2.441E-01
   1    9   30     2     1    5.0000E+04 -3.4581E+03   5.3458E+04  0.000E+00  0.000E+00  0.000E+00  4.02433E+01  1.183E-01  2.000E+01  2.000E+04 -1.729E-01
   1    9   29     2     2    5.3458E+04 -3.7822E+03   5.7240E+04  0.000E+00  0.000E+00  0.000E+00  3.99982E+01  1.232E-01  2.000E+01  2.000E+04 -1.891E-01
   1    9   28     2     3    5.7240E+04 -4.1581E+03   6.1398E+04  0.000E+00  0.000E+00  0.000E+00  3.97534E+01  1.284E-01  2.000E+01  2.000E+04 -2.079E-01
   1    9   27     2     4    6.1398E+04 -7.1648E+03   6.8563E+04  0.000E+00  0.000E+00  0.000E+00  3.95106E+01  1.356E-01  2.000E+01  2.000E+04 -3.582E-01
   1   10   26     2     5    6.8563E+04 -4.8354E+03   7.3399E+04  0.000E+00  0.000E+00  0.000E+00  3.92680E+01  1.430E-01  2.000E+01  2.000E+04 -2.418E-01
   1   11   25     2     6    7.3399E+04 -3.7396E+03   7.7138E+04  0.000E+00  0.000E+00  0.000E+00  3.90231E+01  1.481E-01  2.000E+01  2.000E+04 -1.870E-01
   1   12   24     2     7    7.7138E+04 -2.7492E+03   7.9887E+04  0.000E+00  0.000E+00  0.000E+00  3.87769E+01  1.519E-01  2.000E+01  2.000E+04 -1.375E-01
   1   13   23     2     8    7.9887E+04 -1.7090E+03   8.1596E+04  0.000E+00  0.000E+00  0.000E+00  3.85295E+01  1.545E-01  2.000E+01  2.000E+04 -8.545E-02
   1   14   22     2     9    8.1596E+04  1.4592E+03   8.0137E+04  0.000E+00  0.000E+00  0.000E+00  3.82796E+01  1.546E-01  2.000E+01  2.000E+04  7.296E-02
   1   14   22     3     1    2.6693E+05 -8.6532E+03   2.7558E+05  0.000E+00  0.000E+00  0.000E+00  3.77740E+01  2.184E-01  2.000E+01  2.000E+04 -4.327E-01
   1   15   23     3     2    2.7558E+05 -3.6024E+03   2.7918E+05  0.000E+00  0.000E+00  0.000E+00  3.68881E+01  2.214E-01  2.000E+01  2.000E+04 -1.801E-01
   1   15   24     3     3    2.7918E+05 -2.4684E+03   2.8165E+05  0.000E+00  0.000E+00  0.000E+00  3.60006E+01  2.228E-01  2.000E+01  2.000E+04 -1.234E-01
   1   15   25     3     4    2.8165E+05 -2.3718E+03   2.8402E+05  0.000E+00  0.000E+00  0.000E+00  3.51129E+01  2.240E-01  2.000E+01  2.000E+04 -1.186E-01
   1   15   26     3     5    2.8402E+05 -2.9699E+03   2.8699E+05  0.000E+00  0.000E+00  0.000E+00  3.42253E+01  2.253E-01  2.000E+01  2.000E+04 -1.485E-01
   1   16   27     3     6    2.8699E+05 -4.0462E+03   2.9104E+05  0.000E+00  0.000E+00  0.000E+00  3.33380E+01  2.269E-01  2.000E+01  2.000E+04 -2.023E-01
   1   17   28     3     7    2.9104E+05 -4.8527E+03   2.9589E+05  0.000E+00  0.000E+00  0.000E+00  3.24512E+01  2.290E-01  2.000E+01  2.000E+04 -2.426E-01
   1   18   29     3     8    2.9589E+05 -6.4178E+03   3.0231E+05  0.000E+00  0.000E+00  0.000E+00  3.15650E+01  2.316E-01  2.000E+01  2.000E+04 -3.209E-01
   1   18   30     3     9    3.0231E+05 -5.3510E+03   3.0766E+05  0.000E+00  0.000E+00  0.000E+00  3.06788E+01  2.344E-01  2.000E+01  2.000E+04 -2.676E-01



1
              HEAD IN LAYER   1 AT END OF TIME STEP   1 IN STRESS PERIOD    2
  ---------------------------------------------------------------------------

          1      2      3      4      5      6      7      8      9     10
         11     12     13     14     15     16     17     18     19     20
         21     22     23     24     25     26     27     28     29     30
 .........................................................................
   1  ****** ****** ****** ****** ****** ****** ****** ****** ****** ******
      ****** ****** ****** ****** ****** ****** ****** ****** ****** ******
      ****** ****** ****** ****** ****** ****** ****** ****** ****** ******
   2  ****** ****** ****** ****** ****** ****** ****** ****** ****** ******
      ****** ****** ****** ****** ****** ****** ****** ****** ****** ******
      ****** ****** ****** ****** ****** ****** ****** ****** ****** ******
   3  ****** ****** ****** ****** ****** ****** ****** ****** ****** ******
      ****** ****** ****** ****** ****** ****** ****** ****** ****** ******
      ****** ****** ****** ****** ****** ****** ****** ****** ****** ******
   4  ****** ****** ****** ****** ****** ****** ****** ****** ****** ******
      ****** ****** ****** ****** ****** ****** ****** ****** ****** ******
      ****** ****** ****** ****** ****** ****** ****** ****** ****** ******
   5  ****** ****** ****** ****** ****** ****** ****** ****** ****** ******
      ****** ****** ****** ****** ****** ****** ****** ****** ****** ******
      ****** ****** ****** ****** ****** ****** ****** ****** ****** ******
   6  ****** ****** ****** ****** ****** ****** ****** ****** ****** ******
      ****** ****** ****** ****** ****** ****** ****** ****** ****** ******
      ****** ****** ****** ****** ****** ****** ****** ****** ****** ******
   7  ****** ****** ****** ****** ****** ****** ****** ****** ****** ******
      ****** ****** ****** ****** ****** ****** ****** ****** ****** ******
      ****** ****** ****** ****** ****** ****** ****** ****** ****** ******
   8  ****** ****** ****** ****** ****** ****** ****** ****** ****** ******
      ****** ****** ****** ****** ****** ****** ****** ****** ****** ******
      ****** ****** ****** ****** ****** ****** ****** ****** ****** ******
   9  ****** ****** ****** ****** ****** ****** ****** ****** ****** ******
      ****** ****** ****** ****** ****** ****** ****** ****** ****** ******
      ****** ****** ****** ****** ****** ****** ****** ****** ****** ******
  10  ****** ****** ****** ****** ****** ****** ****** ****** ****** ******
      ****** ****** ****** ****** ****** ****** ****** ****** ****** ******
      ****** ****** ****** ****** ****** ****** ****** ****** ****** ******
  11  ****** ****** ****** ****** ****** ****** ****** ****** ****** ******
      ****** ****** ****** ****** ****** ****** ****** ****** ****** ******
      ****** ****** ****** ****** ****** ****** ****** ****** ****** ******
  12  ****** ****** ****** ****** ****** ****** ****** ****** ****** ******
      ****** ****** ****** ****** ****** ****** ****** ****** ****** ******
      ****** ****** ****** ****** ****** ****** ****** ****** ****** ******
  13  ****** ****** ****** ****** ****** ****** ****** ****** ****** ******
      ****** ****** ****** ****** ****** ****** ****** ****** ****** ******
      ****** ****** ****** ****** ****** ****** ****** ****** ****** ******
  14  ****** ****** ****** ****** ****** ****** ****** ****** ****** ******
      ****** ****** ****** ****** ****** ****** ****** ****** ****** ******
      ****** ****** ****** ****** ****** ****** ****** ****** ****** ******
  15  ****** ****** ****** ****** ****** ****** ****** ****** ****** ******
      ****** ****** ****** ****** ****** ****** ****** ****** ****** ******
      ****** ****** ****** ****** ****** ****** ****** ****** ****** ******
  16  ****** ****** ****** ****** ****** ****** ****** ****** ****** ******
      ****** ****** ****** ****** ****** ****** ****** ****** ****** ******
      ****** ****** ****** ****** ****** ****** ****** ****** ****** ******
  17  ****** ****** ****** ****** ****** ****** ****** ****** ****** ******
      ****** ****** ****** ****** ****** ****** ****** ****** ****** ******
      ****** ****** ****** ****** ****** ****** ****** ****** ****** ******
  18  ****** ****** ****** ****** ****** ****** ****** ****** ****** ******
      ****** ****** ****** ****** ****** ****** ****** ****** ****** ******
      ****** ****** ****** ****** ****** ****** ****** ****** ****** ******
  19  ****** ****** ****** ****** ****** ****** ****** ****** ****** ******
      ****** ****** ****** ****** ****** ****** ****** ****** ****** ******
      ****** ****** ****** ****** ****** ****** ****** ****** ****** ******
  20  ****** ****** ****** ****** ****** ****** ****** ****** ****** ******
      ****** ****** ****** ****** ****** ****** ****** ****** ****** ******
      ****** ****** ****** ****** ****** ****** ****** ****** ****** ******
  21  ****** ****** ****** ****** ****** ****** ****** ****** ****** ******
      ****** ****** ****** ****** ****** ****** ****** ****** ****** ******
      ****** ****** ****** ****** ****** ****** ****** ****** ****** ******
  22  ****** ****** ****** ****** ****** ****** ****** ****** ****** ******
      ****** ****** ****** ****** ****** ****** ****** ****** ****** ******
      ****** ****** ****** ****** ****** ****** ****** ****** ****** ******
  23  ****** ****** ****** ****** ****** ****** ****** ****** ****** ******
      ****** ****** ****** ****** ****** ****** ****** ****** ****** ******
      ****** ****** ****** ****** ****** ****** ****** ****** ****** ******
  24  ****** ****** ****** ****** ****** ****** ****** ****** ****** ******
      ****** ****** ****** ****** ****** ****** ****** ****** ****** ******
      ****** ****** ****** ****** ****** ****** ****** ****** ****** ******
  25  ****** ****** ****** ****** ****** ****** ****** ****** ****** ******
      ****** ****** ****** ****** ****** ****** ****** ****** ****** ******
      ****** ****** ****** ****** ****** ****** ****** ****** ****** ******

 HEAD WILL BE SAVED ON UNIT   51 AT END OF TIME STEP    1, STRESS PERIOD    2
1
  VOLUMETRIC BUDGET FOR ENTIRE MODEL AT END OF TIME STEP    1, STRESS PERIOD   2
  ------------------------------------------------------------------------------

     CUMULATIVE VOLUMES      L**3       RATES FOR THIS TIME STEP      L**3/T
     ------------------                 ------------------------

           IN:                                      IN:
           ---                                      ---
             STORAGE =    18794631.7941               STORAGE =       29196.1924
       CONSTANT HEAD =    19152394.2185         CONSTANT HEAD =      111408.8949
               WELLS =           0.0000                 WELLS =           0.0000
            RECHARGE =     6292800.0000              RECHARGE =       55200.0000
      STREAM LEAKAGE =     1038813.4825        STREAM LEAKAGE =        6340.6585

            TOTAL IN =    45278639.4951              TOTAL IN =      202145.7458

          OUT:                                     OUT:
          ----                                     ----
             STORAGE =           0.0000               STORAGE =           0.0000
       CONSTANT HEAD =           0.0000         CONSTANT HEAD =           0.0000
               WELLS =     6980560.4437                 WELLS =       38145.1390
            RECHARGE =           0.0000              RECHARGE =           0.0000
      STREAM LEAKAGE =    38298079.6565        STREAM LEAKAGE =      164000.6119

           TOTAL OUT =    45278640.1002             TOTAL OUT =      202145.7509

            IN - OUT =          -0.6051              IN - OUT =      -5.1249E-03

 PERCENT DISCREPANCY =          -0.00     PERCENT DISCREPANCY =          -0.00






         TIME SUMMARY AT END OF TIME STEP    1 IN STRESS PERIOD    2
                    SECONDS     MINUTES      HOURS       DAYS        YEARS
                    -----------------------------------------------------------
   TIME STEP LENGTH 7.86240E+06 1.31040E+05  2184.0      91.000     0.24914    
 STRESS PERIOD TIME 7.86240E+06 1.31040E+05  2184.0      91.000     0.24914    
         TOTAL TIME 1.58112E+07 2.63520E+05  4392.0      183.00     0.50103    
1
1
                            STRESS PERIOD NO.    3, LENGTH =   91.00000    
                            -----------------------------------------------

                              NUMBER OF TIME STEPS =     1

                               MULTIPLIER FOR DELT =     1.500

                            INITIAL TIME STEP SIZE =   91.00000    

 WELL NO.  LAYER   ROW   COL   STRESS RATE         
 --------------------------------------------------
      1      1     23     10     -0.1134E+05
      2      1     17      3     -0.1036E+05
      3      1     23     22     -0.1645E+05

      3 WELLS

                 RECHARGE =   0.00000    

 REUSING STREAM SEGMENT DATA FROM LAST STRESS PERIOD
 
 SOLVING FOR HEAD 


     7 CALLS TO PCG ROUTINE FOR TIME STEP   1 IN STRESS PERIOD    3
    27 TOTAL ITERATIONS

 OUTPUT CONTROL FOR STRESS PERIOD    3   TIME STEP    1
    SAVE BUDGET
    SAVE HEAD FOR ALL LAYERS
    PRINT HEAD FOR ALL LAYERS
 UBDSV2 SAVING "STREAMFLOW OUT  " ON UNIT  50 AT TIME STEP  1, STRESS PERIOD   3



 STREAM LISTING     PERIOD      3   STEP        1

 LAYER ROW COL. STREAM  RCH.  FLOW INTO     FLOW TO   FLOW OUT OF   OVRLND.     DIRECT     STREAM       STREAM     STREAM     STREAM   STREAMBED  STREAMBED
                SEG.NO.  NO.  STRM. RCH.    AQUIFER    STRM. RCH.    RUNOFF     PRECIP       ET          HEAD       DEPTH      WIDTH   CONDCTNC.   GRADIENT

   1   13    1     1     1    1.0000E+05 -2.3473E+03   1.0235E+05  0.000E+00  0.000E+00  0.000E+00  4.84070E+01  1.457E-01  2.000E+01  2.000E+04 -1.174E-01
   1   13    2     1     2    1.0235E+05 -4.4697E+03   1.0682E+05  0.000E+00  0.000E+00  0.000E+00  4.79327E+01  1.486E-01  2.000E+01  2.000E+04 -2.235E-01
   1   14    3     1     3    1.0682E+05 -2.5494E+03   1.0937E+05  0.000E+00  0.000E+00  0.000E+00  4.74584E+01  1.516E-01  2.000E+01  2.000E+04 -1.275E-01
   1   15    4     1     4    1.0937E+05 -1.6474E+03   1.1101E+05  0.000E+00  0.000E+00  0.000E+00  4.69829E+01  1.533E-01  2.000E+01  2.000E+04 -8.237E-02
   1   16    5     1     5    1.1101E+05 -1.7278E+03   1.1274E+05  0.000E+00  0.000E+00  0.000E+00  4.65070E+01  1.547E-01  2.000E+01  2.000E+04 -8.639E-02
   1   16    6     1     6    1.1274E+05 -2.5290E+03   1.1527E+05  0.000E+00  0.000E+00  0.000E+00  4.60315E+01  1.565E-01  2.000E+01  2.000E+04 -1.264E-01
   1   16    7     1     7    1.1527E+05 -2.8524E+03   1.1812E+05  0.000E+00  0.000E+00  0.000E+00  4.55564E+01  1.587E-01  2.000E+01  2.000E+04 -1.426E-01
   1   16    8     1     8    1.1812E+05 -2.9968E+03   1.2112E+05  0.000E+00  0.000E+00  0.000E+00  4.50815E+01  1.611E-01  2.000E+01  2.000E+04 -1.498E-01
   1   16    9     1     9    1.2112E+05 -3.0467E+03   1.2417E+05  0.000E+00  0.000E+00  0.000E+00  4.46067E+01  1.635E-01  2.000E+01  2.000E+04 -1.523E-01
   1   16   10     1    10    1.2417E+05 -3.0399E+03   1.2721E+05  0.000E+00  0.000E+00  0.000E+00  4.41318E+01  1.659E-01  2.000E+01  2.000E+04 -1.520E-01
   1   16   11     1    11    1.2721E+05 -3.0145E+03   1.3022E+05  0.000E+00  0.000E+00  0.000E+00  4.36569E+01  1.683E-01  2.000E+01  2.000E+04 -1.507E-01
   1   16   12     1    12    1.3022E+05 -3.9858E+03   1.3421E+05  0.000E+00  0.000E+00  0.000E+00  4.31824E+01  1.710E-01  2.000E+01  2.000E+04 -1.993E-01
   1   15   13     1    13    1.3421E+05 -3.8892E+03   1.3810E+05  0.000E+00  0.000E+00  0.000E+00  4.27082E+01  1.741E-01  2.000E+01  2.000E+04 -1.945E-01
   1   14   14     1    14    1.3810E+05 -4.0346E+03   1.4213E+05  0.000E+00  0.000E+00  0.000E+00  4.22339E+01  1.771E-01  2.000E+01  2.000E+04 -2.017E-01
   1   13   15     1    15    1.4213E+05 -4.3685E+03   1.4650E+05  0.000E+00  0.000E+00  0.000E+00  4.17598E+01  1.803E-01  2.000E+01  2.000E+04 -2.184E-01
   1   12   16     1    16    1.4650E+05 -5.6004E+03   1.5210E+05  0.000E+00  0.000E+00  0.000E+00  4.12862E+01  1.840E-01  2.000E+01  2.000E+04 -2.800E-01
   1   12   17     1    17    1.5210E+05 -3.6501E+03   1.5575E+05  0.000E+00  0.000E+00  0.000E+00  4.08124E+01  1.874E-01  2.000E+01  2.000E+04 -1.825E-01
   1   12   18     1    18    1.5575E+05 -3.4997E+03   1.5925E+05  0.000E+00  0.000E+00  0.000E+00  4.03377E+01  1.900E-01  2.000E+01  2.000E+04 -1.750E-01
   1   12   19     1    19    1.5925E+05 -4.5635E+03   1.6381E+05  0.000E+00  0.000E+00  0.000E+00  3.98633E+01  1.929E-01  2.000E+01  2.000E+04 -2.282E-01
   1   13   20     1    20    1.6381E+05 -2.9677E+03   1.6678E+05  0.000E+00  0.000E+00  0.000E+00  3.93887E+01  1.956E-01  2.000E+01  2.000E+04 -1.484E-01
   1   14   21     1    21    1.6678E+05 -2.1514E+03   1.6893E+05  0.000E+00  0.000E+00  0.000E+00  3.89133E+01  1.974E-01  2.000E+01  2.000E+04 -1.076E-01
   1   14   22     1    22    1.6893E+05  5.0401E+03   1.6389E+05  0.000E+00  0.000E+00  0.000E+00  3.84350E+01  1.964E-01  2.000E+01  2.000E+04  2.520E-01
   1    9   30     2     1    5.0000E+04 -2.6913E+03   5.2691E+04  0.000E+00  0.000E+00  0.000E+00  4.02427E+01  1.177E-01  2.000E+01  2.000E+04 -1.346E-01
   1    9   29     2     2    5.2691E+04 -3.0255E+03   5.5717E+04  0.000E+00  0.000E+00  0.000E+00  3.99966E+01  1.216E-01  2.000E+01  2.000E+04 -1.513E-01
   1    9   28     2     3    5.5717E+04 -3.4124E+03   5.9129E+04  0.000E+00  0.000E+00  0.000E+00  3.97509E+01  1.259E-01  2.000E+01  2.000E+04 -1.706E-01
   1    9   27     2     4    5.9129E+04 -6.1576E+03   6.5287E+04  0.000E+00  0.000E+00  0.000E+00  3.95071E+01  1.321E-01  2.000E+01  2.000E+04 -3.079E-01
   1   10   26     2     5    6.5287E+04 -3.7701E+03   6.9057E+04  0.000E+00  0.000E+00  0.000E+00  3.92633E+01  1.383E-01  2.000E+01  2.000E+04 -1.885E-01
   1   11   25     2     6    6.9057E+04 -2.7240E+03   7.1781E+04  0.000E+00  0.000E+00  0.000E+00  3.90173E+01  1.423E-01  2.000E+01  2.000E+04 -1.362E-01
   1   12   24     2     7    7.1781E+04 -1.8778E+03   7.3659E+04  0.000E+00  0.000E+00  0.000E+00  3.87701E+01  1.451E-01  2.000E+01  2.000E+04 -9.389E-02
   1   13   23     2     8    7.3659E+04 -1.0651E+03   7.4724E+04  0.000E+00  0.000E+00  0.000E+00  3.85218E+01  1.468E-01  2.000E+01  2.000E+04 -5.325E-02
   1   14   22     2     9    7.4724E+04  1.7684E+03   7.2956E+04  0.000E+00  0.000E+00  0.000E+00  3.82714E+01  1.464E-01  2.000E+01  2.000E+04  8.842E-02
   1   14   22     3     1    2.3685E+05 -8.4782E+03   2.4533E+05  0.000E+00  0.000E+00  0.000E+00  3.77591E+01  2.035E-01  2.000E+01  2.000E+04 -4.239E-01
   1   15   23     3     2    2.4533E+05 -2.6900E+03   2.4802E+05  0.000E+00  0.000E+00  0.000E+00  3.68730E+01  2.063E-01  2.000E+01  2.000E+04 -1.345E-01
   1   15   24     3     3    2.4802E+05 -1.8504E+03   2.4987E+05  0.000E+00  0.000E+00  0.000E+00  3.59852E+01  2.075E-01  2.000E+01  2.000E+04 -9.252E-02
   1   15   25     3     4    2.4987E+05 -1.7581E+03   2.5162E+05  0.000E+00  0.000E+00  0.000E+00  3.50973E+01  2.084E-01  2.000E+01  2.000E+04 -8.791E-02
   1   15   26     3     5    2.5162E+05 -2.1421E+03   2.5377E+05  0.000E+00  0.000E+00  0.000E+00  3.42093E+01  2.093E-01  2.000E+01  2.000E+04 -1.071E-01
   1   16   27     3     6    2.5377E+05 -2.9868E+03   2.5675E+05  0.000E+00  0.000E+00  0.000E+00  3.33217E+01  2.106E-01  2.000E+01  2.000E+04 -1.493E-01
   1   17   28     3     7    2.5675E+05 -3.7822E+03   2.6053E+05  0.000E+00  0.000E+00  0.000E+00  3.24345E+01  2.123E-01  2.000E+01  2.000E+04 -1.891E-01
   1   18   29     3     8    2.6053E+05 -5.4433E+03   2.6598E+05  0.000E+00  0.000E+00  0.000E+00  3.15479E+01  2.145E-01  2.000E+01  2.000E+04 -2.722E-01
   1   18   30     3     9    2.6598E+05 -4.6289E+03   2.7061E+05  0.000E+00  0.000E+00  0.000E+00  3.06614E+01  2.170E-01  2.000E+01  2.000E+04 -2.314E-01



1
              HEAD IN LAYER   1 AT END OF TIME STEP   1 IN STRESS PERIOD    3
  ---------------------------------------------------------------------------

          1      2      3      4      5      6      7      8      9     10
         11     12     13     14     15     16     17     18     19     20
         21     22     23     24     25     26     27     28     29     30
 .........................................................................
   1  ****** ****** ****** ****** ****** ****** ****** ****** ****** ******
      ****** ****** ****** ****** ****** ****** ****** ****** ****** ******
      ****** ****** ****** ****** ****** ****** ****** ****** ****** ******
   2  ****** ****** ****** ****** ****** ****** ****** ****** ****** ******
      ****** ****** ****** ****** ****** ****** ****** ****** ****** ******
      ****** ****** ****** ****** ****** ****** ****** ****** ****** ******
   3  ****** ****** ****** ****** ****** ****** ****** ****** ****** ******
      ****** ****** ****** ****** ****** ****** ****** ****** ****** ******
      ****** ****** ****** ****** ****** ****** ****** ****** ****** ******
   4  ****** ****** ****** ****** ****** ****** ****** ****** ****** ******
      ****** ****** ****** ****** ****** ****** ****** ****** ****** ******
      ****** ****** ****** ****** ****** ****** ****** ****** ****** ******
   5  ****** ****** ****** ****** ****** ****** ****** ****** ****** ******
      ****** ****** ****** ****** ****** ****** ****** ****** ****** ******
      ****** ****** ****** ****** ****** ****** ****** ****** ****** ******
   6  ****** ****** ****** ****** ****** ****** ****** ****** ****** ******
      ****** ****** ****** ****** ****** ****** ****** ****** ****** ******
      ****** ****** ****** ****** ****** ****** ****** ****** ****** ******
   7  ****** ****** ****** ****** ****** ****** ****** ****** ****** ******
      ****** ****** ****** ****** ****** ****** ****** ****** ****** ******
      ****** ****** ****** ****** ****** ****** ****** ****** ****** ******
   8  ****** ****** ****** ****** ****** ****** ****** ****** ****** ******
      ****** ****** ****** ****** ****** ****** ****** ****** ****** ******
      ****** ****** ****** ****** ****** ****** ****** ****** ****** ******
   9  ****** ****** ****** ****** ****** ****** ****** ****** ****** ******
      ****** ****** ****** ****** ****** ****** ****** ****** ****** ******
      ****** ****** ****** ****** ****** ****** ****** ****** ****** ******
  10  ****** ****** ****** ****** ****** ****** ****** ****** ****** ******
      ****** ****** ****** ****** ****** ****** ****** ****** ****** ******
      ****** ****** ****** ****** ****** ****** ****** ****** ****** ******
  11  ****** ****** ****** ****** ****** ****** ****** ****** ****** ******
      ****** ****** ****** ****** ****** ****** ****** ****** ****** ******
      ****** ****** ****** ****** ****** ****** ****** ****** ****** ******
  12  ****** ****** ****** ****** ****** ****** ****** ****** ****** ******
      ****** ****** ****** ****** ****** ****** ****** ****** ****** ******
      ****** ****** ****** ****** ****** ****** ****** ****** ****** ******
  13  ****** ****** ****** ****** ****** ****** ****** ****** ****** ******
      ****** ****** ****** ****** ****** ****** ****** ****** ****** ******
      ****** ****** ****** ****** ****** ****** ****** ****** ****** ******
  14  ****** ****** ****** ****** ****** ****** ****** ****** ****** ******
      ****** ****** ****** ****** ****** ****** ****** ****** ****** ******
      ****** ****** ****** ****** ****** ****** ****** ****** ****** ******
  15  ****** ****** ****** ****** ****** ****** ****** ****** ****** ******
      ****** ****** ****** ****** ****** ****** ****** ****** ****** ******
      ****** ****** ****** ****** ****** ****** ****** ****** ****** ******
  16  ****** ****** ****** ****** ****** ****** ****** ****** ****** ******
      ****** ****** ****** ****** ****** ****** ****** ****** ****** ******
      ****** ****** ****** ****** ****** ****** ****** ****** ****** ******
  17  ****** ****** ****** ****** ****** ****** ****** ****** ****** ******
      ****** ****** ****** ****** ****** ****** ****** ****** ****** ******
      ****** ****** ****** ****** ****** ****** ****** ****** ****** ******
  18  ****** ****** ****** ****** ****** ****** ****** ****** ****** ******
      ****** ****** ****** ****** ****** ****** ****** ****** ****** ******
      ****** ****** ****** ****** ****** ****** ****** ****** ****** ******
  19  ****** ****** ****** ****** ****** ****** ****** ****** ****** ******
      ****** ****** ****** ****** ****** ****** ****** ****** ****** ******
      ****** ****** ****** ****** ****** ****** ****** ****** ****** ******
  20  ****** ****** ****** ****** ****** ****** ****** ****** ****** ******
      ****** ****** ****** ****** ****** ****** ****** ****** ****** ******
      ****** ****** ****** ****** ****** ****** ****** ****** ****** ******
  21  ****** ****** ****** ****** ****** ****** ****** ****** ****** ******
      ****** ****** ****** ****** ****** ****** ****** ****** ****** ******
      ****** ****** ****** ****** ****** ****** ****** ****** ****** ******
  22  ****** ****** ****** ****** ****** ****** ****** ****** ****** ******
      ****** ****** ****** ****** ****** ****** ****** ****** ****** ******
      ****** ****** ****** ****** ****** ****** ****** ****** ****** ******
  23  ****** ****** ****** ****** ****** ****** ****** ****** ****** ******
      ****** ****** ****** ****** ****** ****** ****** ****** ****** ******
      ****** ****** ****** ****** ****** ****** ****** ****** ****** ******
  24  ****** ****** ****** ****** ****** ****** ****** ****** ****** ******
      ****** ****** ****** ****** ****** ****** ****** ****** ****** ******
      ****** ****** ****** ****** ****** ****** ****** ****** ****** ******
  25  ****** ****** ****** ****** ****** ****** ****** ****** ****** ******
      ****** ****** ****** ****** ****** ****** ****** ****** ****** ******
      ****** ****** ****** ****** ****** ****** ****** ****** ****** ******

 HEAD WILL BE SAVED ON UNIT   51 AT END OF TIME STEP    1, STRESS PERIOD    3
1
  VOLUMETRIC BUDGET FOR ENTIRE MODEL AT END OF TIME STEP    1, STRESS PERIOD   3
  ------------------------------------------------------------------------------

     CUMULATIVE VOLUMES      L**3       RATES FOR THIS TIME STEP      L**3/T
     ------------------                 ------------------------

           IN:                                      IN:
           ---                                      ---
             STORAGE =    21061493.7959               STORAGE =       24910.5714
       CONSTANT HEAD =    31331991.9767         CONSTANT HEAD =      133841.7336
               WELLS =           0.0000                 WELLS =           0.0000
            RECHARGE =     6292800.0000              RECHARGE =           0.0000
      STREAM LEAKAGE =     1658381.1743        STREAM LEAKAGE =        6808.4362

            TOTAL IN =    60344666.9469              TOTAL IN =      165560.7412

          OUT:                                     OUT:
          ----                                     ----
             STORAGE =           0.0000               STORAGE =           0.0000
       CONSTANT HEAD =           0.0000         CONSTANT HEAD =           0.0000
               WELLS =    10451768.0960                 WELLS =       38145.1390
            RECHARGE =           0.0000              RECHARGE =           0.0000
      STREAM LEAKAGE =    49892899.6949        STREAM LEAKAGE =      127415.6048

           TOTAL OUT =    60344667.7909             TOTAL OUT =      165560.7439

            IN - OUT =          -0.8440              IN - OUT =      -2.6255E-03

 PERCENT DISCREPANCY =          -0.00     PERCENT DISCREPANCY =          -0.00






         TIME SUMMARY AT END OF TIME STEP    1 IN STRESS PERIOD    3
                    SECONDS     MINUTES      HOURS       DAYS        YEARS
                    -----------------------------------------------------------
   TIME STEP LENGTH 7.86240E+06 1.31040E+05  2184.0      91.000     0.24914    
 STRESS PERIOD TIME 7.86240E+06 1.31040E+05  2184.0      91.000     0.24914    
         TOTAL TIME 2.36736E+07 3.94560E+05  6576.0      274.00     0.75017    
1
1
                            STRESS PERIOD NO.    4, LENGTH =   91.00000    
                            -----------------------------------------------

                              NUMBER OF TIME STEPS =     1

                               MULTIPLIER FOR DELT =     1.500

                            INITIAL TIME STEP SIZE =   91.00000    

 WELL NO.  LAYER   ROW   COL   STRESS RATE         
 --------------------------------------------------
      1      1     23     10     -0.1134E+05
      2      1     17      3     -0.1036E+05
      3      1     23     22     -0.1645E+05

      3 WELLS

                 RECHARGE =  1.000000E-03

 REUSING STREAM SEGMENT DATA FROM LAST STRESS PERIOD
 
 SOLVING FOR HEAD 


     6 CALLS TO PCG ROUTINE FOR TIME STEP   1 IN STRESS PERIOD    4
    21 TOTAL ITERATIONS

 OUTPUT CONTROL FOR STRESS PERIOD    4   TIME STEP    1
    SAVE BUDGET
    SAVE HEAD FOR ALL LAYERS
    PRINT HEAD FOR ALL LAYERS
 UBDSV2 SAVING "STREAMFLOW OUT  " ON UNIT  50 AT TIME STEP  1, STRESS PERIOD   4



 STREAM LISTING     PERIOD      4   STEP        1

 LAYER ROW COL. STREAM  RCH.  FLOW INTO     FLOW TO   FLOW OUT OF   OVRLND.     DIRECT     STREAM       STREAM     STREAM     STREAM   STREAMBED  STREAMBED
                SEG.NO.  NO.  STRM. RCH.    AQUIFER    STRM. RCH.    RUNOFF     PRECIP       ET          HEAD       DEPTH      WIDTH   CONDCTNC.   GRADIENT

   1   13    1     1     1    1.0000E+05 -2.3653E+03   1.0237E+05  0.000E+00  0.000E+00  0.000E+00  4.84070E+01  1.457E-01  2.000E+01  2.000E+04 -1.183E-01
   1   13    2     1     2    1.0237E+05 -4.4598E+03   1.0683E+05  0.000E+00  0.000E+00  0.000E+00  4.79327E+01  1.486E-01  2.000E+01  2.000E+04 -2.230E-01
   1   14    3     1     3    1.0683E+05 -2.5880E+03   1.0941E+05  0.000E+00  0.000E+00  0.000E+00  4.74584E+01  1.516E-01  2.000E+01  2.000E+04 -1.294E-01
   1   15    4     1     4    1.0941E+05 -1.6995E+03   1.1111E+05  0.000E+00  0.000E+00  0.000E+00  4.69829E+01  1.534E-01  2.000E+01  2.000E+04 -8.498E-02
   1   16    5     1     5    1.1111E+05 -1.7830E+03   1.1290E+05  0.000E+00  0.000E+00  0.000E+00  4.65071E+01  1.548E-01  2.000E+01  2.000E+04 -8.915E-02
   1   16    6     1     6    1.1290E+05 -2.5744E+03   1.1547E+05  0.000E+00  0.000E+00  0.000E+00  4.60316E+01  1.566E-01  2.000E+01  2.000E+04 -1.287E-01
   1   16    7     1     7    1.1547E+05 -2.8957E+03   1.1837E+05  0.000E+00  0.000E+00  0.000E+00  4.55566E+01  1.589E-01  2.000E+01  2.000E+04 -1.448E-01
   1   16    8     1     8    1.1837E+05 -3.0389E+03   1.2140E+05  0.000E+00  0.000E+00  0.000E+00  4.50817E+01  1.613E-01  2.000E+01  2.000E+04 -1.519E-01
   1   16    9     1     9    1.2140E+05 -3.0888E+03   1.2449E+05  0.000E+00  0.000E+00  0.000E+00  4.46069E+01  1.637E-01  2.000E+01  2.000E+04 -1.544E-01
   1   16   10     1    10    1.2449E+05 -3.0830E+03   1.2758E+05  0.000E+00  0.000E+00  0.000E+00  4.41321E+01  1.662E-01  2.000E+01  2.000E+04 -1.541E-01
   1   16   11     1    11    1.2758E+05 -3.0589E+03   1.3064E+05  0.000E+00  0.000E+00  0.000E+00  4.36572E+01  1.686E-01  2.000E+01  2.000E+04 -1.529E-01
   1   16   12     1    12    1.3064E+05 -4.0326E+03   1.3467E+05  0.000E+00  0.000E+00  0.000E+00  4.31827E+01  1.714E-01  2.000E+01  2.000E+04 -2.016E-01
   1   15   13     1    13    1.3467E+05 -3.9345E+03   1.3860E+05  0.000E+00  0.000E+00  0.000E+00  4.27085E+01  1.744E-01  2.000E+01  2.000E+04 -1.967E-01
   1   14   14     1    14    1.3860E+05 -4.0736E+03   1.4268E+05  0.000E+00  0.000E+00  0.000E+00  4.22343E+01  1.775E-01  2.000E+01  2.000E+04 -2.037E-01
   1   13   15     1    15    1.4268E+05 -4.4037E+03   1.4708E+05  0.000E+00  0.000E+00  0.000E+00  4.17602E+01  1.807E-01  2.000E+01  2.000E+04 -2.202E-01
   1   12   16     1    16    1.4708E+05 -5.6091E+03   1.5269E+05  0.000E+00  0.000E+00  0.000E+00  4.12867E+01  1.844E-01  2.000E+01  2.000E+04 -2.805E-01
   1   12   17     1    17    1.5269E+05 -3.6879E+03   1.5638E+05  0.000E+00  0.000E+00  0.000E+00  4.08128E+01  1.878E-01  2.000E+01  2.000E+04 -1.844E-01
   1   12   18     1    18    1.5638E+05 -3.5457E+03   1.5992E+05  0.000E+00  0.000E+00  0.000E+00  4.03382E+01  1.904E-01  2.000E+01  2.000E+04 -1.773E-01
   1   12   19     1    19    1.5992E+05 -4.6251E+03   1.6455E+05  0.000E+00  0.000E+00  0.000E+00  3.98638E+01  1.934E-01  2.000E+01  2.000E+04 -2.313E-01
   1   13   20     1    20    1.6455E+05 -3.0578E+03   1.6761E+05  0.000E+00  0.000E+00  0.000E+00  3.93893E+01  1.961E-01  2.000E+01  2.000E+04 -1.529E-01
   1   14   21     1    21    1.6761E+05 -2.2180E+03   1.6982E+05  0.000E+00  0.000E+00  0.000E+00  3.89139E+01  1.980E-01  2.000E+01  2.000E+04 -1.109E-01
   1   14   22     1    22    1.6982E+05  5.0069E+03   1.6482E+05  0.000E+00  0.000E+00  0.000E+00  3.84356E+01  1.970E-01  2.000E+01  2.000E+04  2.503E-01
   1    9   30     2     1    5.0000E+04 -2.8037E+03   5.2804E+04  0.000E+00  0.000E+00  0.000E+00  4.02428E+01  1.178E-01  2.000E+01  2.000E+04 -1.402E-01
   1    9   29     2     2    5.2804E+04 -3.1362E+03   5.5940E+04  0.000E+00  0.000E+00  0.000E+00  3.99968E+01  1.218E-01  2.000E+01  2.000E+04 -1.568E-01
   1    9   28     2     3    5.5940E+04 -3.5190E+03   5.9459E+04  0.000E+00  0.000E+00  0.000E+00  3.97513E+01  1.263E-01  2.000E+01  2.000E+04 -1.760E-01
   1    9   27     2     4    5.9459E+04 -6.2684E+03   6.5727E+04  0.000E+00  0.000E+00  0.000E+00  3.95076E+01  1.326E-01  2.000E+01  2.000E+04 -3.134E-01
   1   10   26     2     5    6.5727E+04 -3.8991E+03   6.9627E+04  0.000E+00  0.000E+00  0.000E+00  3.92639E+01  1.389E-01  2.000E+01  2.000E+04 -1.950E-01
   1   11   25     2     6    6.9627E+04 -2.8541E+03   7.2481E+04  0.000E+00  0.000E+00  0.000E+00  3.90181E+01  1.431E-01  2.000E+01  2.000E+04 -1.427E-01
   1   12   24     2     7    7.2481E+04 -2.0050E+03   7.4486E+04  0.000E+00  0.000E+00  0.000E+00  3.87710E+01  1.460E-01  2.000E+01  2.000E+04 -1.002E-01
   1   13   23     2     8    7.4486E+04 -1.1795E+03   7.5665E+04  0.000E+00  0.000E+00  0.000E+00  3.85229E+01  1.479E-01  2.000E+01  2.000E+04 -5.898E-02
   1   14   22     2     9    7.5665E+04  1.7449E+03   7.3920E+04  0.000E+00  0.000E+00  0.000E+00  3.82725E+01  1.475E-01  2.000E+01  2.000E+04  8.725E-02
   1   14   22     3     1    2.3874E+05 -8.5050E+03   2.4724E+05  0.000E+00  0.000E+00  0.000E+00  3.77600E+01  2.045E-01  2.000E+01  2.000E+04 -4.253E-01
   1   15   23     3     2    2.4724E+05 -2.7547E+03   2.5000E+05  0.000E+00  0.000E+00  0.000E+00  3.68740E+01  2.073E-01  2.000E+01  2.000E+04 -1.377E-01
   1   15   24     3     3    2.5000E+05 -1.9283E+03   2.5192E+05  0.000E+00  0.000E+00  0.000E+00  3.59863E+01  2.085E-01  2.000E+01  2.000E+04 -9.641E-02
   1   15   25     3     4    2.5192E+05 -1.8494E+03   2.5377E+05  0.000E+00  0.000E+00  0.000E+00  3.50983E+01  2.094E-01  2.000E+01  2.000E+04 -9.247E-02
   1   15   26     3     5    2.5377E+05 -2.2685E+03   2.5604E+05  0.000E+00  0.000E+00  0.000E+00  3.42104E+01  2.104E-01  2.000E+01  2.000E+04 -1.134E-01
   1   16   27     3     6    2.5604E+05 -3.1199E+03   2.5916E+05  0.000E+00  0.000E+00  0.000E+00  3.33229E+01  2.118E-01  2.000E+01  2.000E+04 -1.560E-01
   1   17   28     3     7    2.5916E+05 -3.9147E+03   2.6308E+05  0.000E+00  0.000E+00  0.000E+00  3.24357E+01  2.135E-01  2.000E+01  2.000E+04 -1.957E-01
   1   18   29     3     8    2.6308E+05 -5.5598E+03   2.6864E+05  0.000E+00  0.000E+00  0.000E+00  3.15492E+01  2.158E-01  2.000E+01  2.000E+04 -2.780E-01
   1   18   30     3     9    2.6864E+05 -4.7351E+03   2.7337E+05  0.000E+00  0.000E+00  0.000E+00  3.06628E+01  2.183E-01  2.000E+01  2.000E+04 -2.368E-01



1
              HEAD IN LAYER   1 AT END OF TIME STEP   1 IN STRESS PERIOD    4
  ---------------------------------------------------------------------------

          1      2      3      4      5      6      7      8      9     10
         11     12     13     14     15     16     17     18     19     20
         21     22     23     24     25     26     27     28     29     30
 .........................................................................
   1  ****** ****** ****** ****** ****** ****** ****** ****** ****** ******
      ****** ****** ****** ****** ****** ****** ****** ****** ****** ******
      ****** ****** ****** ****** ****** ****** ****** ****** ****** ******
   2  ****** ****** ****** ****** ****** ****** ****** ****** ****** ******
      ****** ****** ****** ****** ****** ****** ****** ****** ****** ******
      ****** ****** ****** ****** ****** ****** ****** ****** ****** ******
   3  ****** ****** ****** ****** ****** ****** ****** ****** ****** ******
      ****** ****** ****** ****** ****** ****** ****** ****** ****** ******
      ****** ****** ****** ****** ****** ****** ****** ****** ****** ******
   4  ****** ****** ****** ****** ****** ****** ****** ****** ****** ******
      ****** ****** ****** ****** ****** ****** ****** ****** ****** ******
      ****** ****** ****** ****** ****** ****** ****** ****** ****** ******
   5  ****** ****** ****** ****** ****** ****** ****** ****** ****** ******
      ****** ****** ****** ****** ****** ****** ****** ****** ****** ******
      ****** ****** ****** ****** ****** ****** ****** ****** ****** ******
   6  ****** ****** ****** ****** ****** ****** ****** ****** ****** ******
      ****** ****** ****** ****** ****** ****** ****** ****** ****** ******
      ****** ****** ****** ****** ****** ****** ****** ****** ****** ******
   7  ****** ****** ****** ****** ****** ****** ****** ****** ****** ******
      ****** ****** ****** ****** ****** ****** ****** ****** ****** ******
      ****** ****** ****** ****** ****** ****** ****** ****** ****** ******
   8  ****** ****** ****** ****** ****** ****** ****** ****** ****** ******
      ****** ****** ****** ****** ****** ****** ****** ****** ****** ******
      ****** ****** ****** ****** ****** ****** ****** ****** ****** ******
   9  ****** ****** ****** ****** ****** ****** ****** ****** ****** ******
      ****** ****** ****** ****** ****** ****** ****** ****** ****** ******
      ****** ****** ****** ****** ****** ****** ****** ****** ****** ******
  10  ****** ****** ****** ****** ****** ****** ****** ****** ****** ******
      ****** ****** ****** ****** ****** ****** ****** ****** ****** ******
      ****** ****** ****** ****** ****** ****** ****** ****** ****** ******
  11  ****** ****** ****** ****** ****** ****** ****** ****** ****** ******
      ****** ****** ****** ****** ****** ****** ****** ****** ****** ******
      ****** ****** ****** ****** ****** ****** ****** ****** ****** ******
  12  ****** ****** ****** ****** ****** ****** ****** ****** ****** ******
      ****** ****** ****** ****** ****** ****** ****** ****** ****** ******
      ****** ****** ****** ****** ****** ****** ****** ****** ****** ******
  13  ****** ****** ****** ****** ****** ****** ****** ****** ****** ******
      ****** ****** ****** ****** ****** ****** ****** ****** ****** ******
      ****** ****** ****** ****** ****** ****** ****** ****** ****** ******
  14  ****** ****** ****** ****** ****** ****** ****** ****** ****** ******
      ****** ****** ****** ****** ****** ****** ****** ****** ****** ******
      ****** ****** ****** ****** ****** ****** ****** ****** ****** ******
  15  ****** ****** ****** ****** ****** ****** ****** ****** ****** ******
      ****** ****** ****** ****** ****** ****** ****** ****** ****** ******
      ****** ****** ****** ****** ****** ****** ****** ****** ****** ******
  16  ****** ****** ****** ****** ****** ****** ****** ****** ****** ******
      ****** ****** ****** ****** ****** ****** ****** ****** ****** ******
      ****** ****** ****** ****** ****** ****** ****** ****** ****** ******
  17  ****** ****** ****** ****** ****** ****** ****** ****** ****** ******
      ****** ****** ****** ****** ****** ****** ****** ****** ****** ******
      ****** ****** ****** ****** ****** ****** ****** ****** ****** ******
  18  ****** ****** ****** ****** ****** ****** ****** ****** ****** ******
      ****** ****** ****** ****** ****** ****** ****** ****** ****** ******
      ****** ****** ****** ****** ****** ****** ****** ****** ****** ******
  19  ****** ****** ****** ****** ****** ****** ****** ****** ****** ******
      ****** ****** ****** ****** ****** ****** ****** ****** ****** ******
      ****** ****** ****** ****** ****** ****** ****** ****** ****** ******
  20  ****** ****** ****** ****** ****** ****** ****** ****** ****** ******
      ****** ****** ****** ****** ****** ****** ****** ****** ****** ******
      ****** ****** ****** ****** ****** ****** ****** ****** ****** ******
  21  ****** ****** ****** ****** ****** ****** ****** ****** ****** ******
      ****** ****** ****** ****** ****** ****** ****** ****** ****** ******
      ****** ****** ****** ****** ****** ****** ****** ****** ****** ******
  22  ****** ****** ****** ****** ****** ****** ****** ****** ****** ******
      ****** ****** ****** ****** ****** ****** ****** ****** ****** ******
      ****** ****** ****** ****** ****** ****** ****** ****** ****** ******
  23  ****** ****** ****** ****** ****** ****** ****** ****** ****** ******
      ****** ****** ****** ****** ****** ****** ****** ****** ****** ******
      ****** ****** ****** ****** ****** ****** ****** ****** ****** ******
  24  ****** ****** ****** ****** ****** ****** ****** ****** ****** ******
      ****** ****** ****** ****** ****** ****** ****** ****** ****** ******
      ****** ****** ****** ****** ****** ****** ****** ****** ****** ******
  25  ****** ****** ****** ****** ****** ****** ****** ****** ****** ******
      ****** ****** ****** ****** ****** ****** ****** ****** ****** ******
      ****** ****** ****** ****** ****** ****** ****** ****** ****** ******

 HEAD WILL BE SAVED ON UNIT   51 AT END OF TIME STEP    1, STRESS PERIOD    4
1
  VOLUMETRIC BUDGET FOR ENTIRE MODEL AT END OF TIME STEP    1, STRESS PERIOD   4
  ------------------------------------------------------------------------------

     CUMULATIVE VOLUMES      L**3       RATES FOR THIS TIME STEP      L**3/T
     ------------------                 ------------------------

           IN:                                      IN:
           ---                                      ---
             STORAGE =    21169446.5172               STORAGE =        1186.2936
       CONSTANT HEAD =    43438088.6774         CONSTANT HEAD =      133034.0297
               WELLS =           0.0000                 WELLS =           0.0000
            RECHARGE =     8804400.0000              RECHARGE =       27600.0000
      STREAM LEAKAGE =     2272793.8052        STREAM LEAKAGE =        6751.7872

            TOTAL IN =    75684728.9998              TOTAL IN =      168572.1105

          OUT:                                     OUT:
          ----                                     ----
             STORAGE =       27600.7732               STORAGE =         303.3052
       CONSTANT HEAD =           0.0000         CONSTANT HEAD =           0.0000
               WELLS =    13922975.7483                 WELLS =       38145.1390
            RECHARGE =           0.0000              RECHARGE =           0.0000
      STREAM LEAKAGE =    61734153.1476        STREAM LEAKAGE =      130123.6643

           TOTAL OUT =    75684729.6690             TOTAL OUT =      168572.1086

            IN - OUT =          -0.6692              IN - OUT =       1.9211E-03

 PERCENT DISCREPANCY =          -0.00     PERCENT DISCREPANCY =           0.00






         TIME SUMMARY AT END OF TIME STEP    1 IN STRESS PERIOD    4
                    SECONDS     MINUTES      HOURS       DAYS        YEARS
                    -----------------------------------------------------------
   TIME STEP LENGTH 7.86240E+06 1.31040E+05  2184.0      91.000     0.24914    
 STRESS PERIOD TIME 7.86240E+06 1.31040E+05  2184.0      91.000     0.24914    
         TOTAL TIME 3.15360E+07 5.25600E+05  8760.0      365.00     0.99932    
1
1
                            STRESS PERIOD NO.    5, LENGTH =   92.00000    
                            -----------------------------------------------

                              NUMBER OF TIME STEPS =     1

                               MULTIPLIER FOR DELT =     1.500

                            INITIAL TIME STEP SIZE =   92.00000    

 WELL NO.  LAYER   ROW   COL   STRESS RATE         
 --------------------------------------------------
      1      1     23     10     -0.1134E+05
      2      1     17      3     -0.1036E+05
      3      1     23     22     -0.1645E+05

      3 WELLS

                 RECHARGE =  5.000000E-04

 REUSING STREAM SEGMENT DATA FROM LAST STRESS PERIOD
 
 SOLVING FOR HEAD 


     6 CALLS TO PCG ROUTINE FOR TIME STEP   1 IN STRESS PERIOD    5
    23 TOTAL ITERATIONS

 OUTPUT CONTROL FOR STRESS PERIOD    5   TIME STEP    1
    SAVE BUDGET
    SAVE HEAD FOR ALL LAYERS
    PRINT HEAD FOR ALL LAYERS
 UBDSV2 SAVING "STREAMFLOW OUT  " ON UNIT  50 AT TIME STEP  1, STRESS PERIOD   5



 STREAM LISTING     PERIOD      5   STEP        1

 LAYER ROW COL. STREAM  RCH.  FLOW INTO     FLOW TO   FLOW OUT OF   OVRLND.     DIRECT     STREAM       STREAM     STREAM     STREAM   STREAMBED  STREAMBED
                SEG.NO.  NO.  STRM. RCH.    AQUIFER    STRM. RCH.    RUNOFF     PRECIP       ET          HEAD       DEPTH      WIDTH   CONDCTNC.   GRADIENT

   1   13    1     1     1    1.0000E+05 -2.1905E+03   1.0219E+05  0.000E+00  0.000E+00  0.000E+00  4.84070E+01  1.456E-01  2.000E+01  2.000E+04 -1.095E-01
   1   13    2     1     2    1.0219E+05 -4.2184E+03   1.0641E+05  0.000E+00  0.000E+00  0.000E+00  4.79324E+01  1.484E-01  2.000E+01  2.000E+04 -2.109E-01
   1   14    3     1     3    1.0641E+05 -2.3615E+03   1.0877E+05  0.000E+00  0.000E+00  0.000E+00  4.74580E+01  1.511E-01  2.000E+01  2.000E+04 -1.181E-01
   1   15    4     1     4    1.0877E+05 -1.4831E+03   1.1025E+05  0.000E+00  0.000E+00  0.000E+00  4.69823E+01  1.528E-01  2.000E+01  2.000E+04 -7.416E-02
   1   16    5     1     5    1.1025E+05 -1.5925E+03   1.1185E+05  0.000E+00  0.000E+00  0.000E+00  4.65063E+01  1.540E-01  2.000E+01  2.000E+04 -7.963E-02
   1   16    6     1     6    1.1185E+05 -2.4195E+03   1.1427E+05  0.000E+00  0.000E+00  0.000E+00  4.60307E+01  1.557E-01  2.000E+01  2.000E+04 -1.210E-01
   1   16    7     1     7    1.1427E+05 -2.7368E+03   1.1700E+05  0.000E+00  0.000E+00  0.000E+00  4.55556E+01  1.578E-01  2.000E+01  2.000E+04 -1.368E-01
   1   16    8     1     8    1.1700E+05 -2.8780E+03   1.1988E+05  0.000E+00  0.000E+00  0.000E+00  4.50806E+01  1.601E-01  2.000E+01  2.000E+04 -1.439E-01
   1   16    9     1     9    1.1988E+05 -2.9280E+03   1.2281E+05  0.000E+00  0.000E+00  0.000E+00  4.46056E+01  1.625E-01  2.000E+01  2.000E+04 -1.464E-01
   1   16   10     1    10    1.2281E+05 -2.9243E+03   1.2573E+05  0.000E+00  0.000E+00  0.000E+00  4.41307E+01  1.648E-01  2.000E+01  2.000E+04 -1.462E-01
   1   16   11     1    11    1.2573E+05 -2.9035E+03   1.2864E+05  0.000E+00  0.000E+00  0.000E+00  4.36557E+01  1.671E-01  2.000E+01  2.000E+04 -1.452E-01
   1   16   12     1    12    1.2864E+05 -3.8358E+03   1.3247E+05  0.000E+00  0.000E+00  0.000E+00  4.31811E+01  1.697E-01  2.000E+01  2.000E+04 -1.918E-01
   1   15   13     1    13    1.3247E+05 -3.7129E+03   1.3618E+05  0.000E+00  0.000E+00  0.000E+00  4.27068E+01  1.727E-01  2.000E+01  2.000E+04 -1.856E-01
   1   14   14     1    14    1.3618E+05 -3.8444E+03   1.4003E+05  0.000E+00  0.000E+00  0.000E+00  4.22324E+01  1.756E-01  2.000E+01  2.000E+04 -1.922E-01
   1   13   15     1    15    1.4003E+05 -4.1757E+03   1.4420E+05  0.000E+00  0.000E+00  0.000E+00  4.17582E+01  1.786E-01  2.000E+01  2.000E+04 -2.088E-01
   1   12   16     1    16    1.4420E+05 -5.3839E+03   1.4959E+05  0.000E+00  0.000E+00  0.000E+00  4.12845E+01  1.822E-01  2.000E+01  2.000E+04 -2.692E-01
   1   12   17     1    17    1.4959E+05 -3.5301E+03   1.5312E+05  0.000E+00  0.000E+00  0.000E+00  4.08105E+01  1.855E-01  2.000E+01  2.000E+04 -1.765E-01
   1   12   18     1    18    1.5312E+05 -3.3940E+03   1.5651E+05  0.000E+00  0.000E+00  0.000E+00  4.03358E+01  1.880E-01  2.000E+01  2.000E+04 -1.697E-01
   1   12   19     1    19    1.5651E+05 -4.4435E+03   1.6096E+05  0.000E+00  0.000E+00  0.000E+00  3.98613E+01  1.909E-01  2.000E+01  2.000E+04 -2.222E-01
   1   13   20     1    20    1.6096E+05 -2.8881E+03   1.6384E+05  0.000E+00  0.000E+00  0.000E+00  3.93867E+01  1.935E-01  2.000E+01  2.000E+04 -1.444E-01
   1   14   21     1    21    1.6384E+05 -2.0607E+03   1.6591E+05  0.000E+00  0.000E+00  0.000E+00  3.89112E+01  1.953E-01  2.000E+01  2.000E+04 -1.030E-01
   1   14   22     1    22    1.6591E+05  5.0321E+03   1.6087E+05  0.000E+00  0.000E+00  0.000E+00  3.84328E+01  1.942E-01  2.000E+01  2.000E+04  2.516E-01
   1    9   30     2     1    5.0000E+04 -2.6883E+03   5.2688E+04  0.000E+00  0.000E+00  0.000E+00  4.02427E+01  1.177E-01  2.000E+01  2.000E+04 -1.344E-01
   1    9   29     2     2    5.2688E+04 -3.0212E+03   5.5709E+04  0.000E+00  0.000E+00  0.000E+00  3.99966E+01  1.216E-01  2.000E+01  2.000E+04 -1.511E-01
   1    9   28     2     3    5.5709E+04 -3.4032E+03   5.9113E+04  0.000E+00  0.000E+00  0.000E+00  3.97509E+01  1.259E-01  2.000E+01  2.000E+04 -1.702E-01
   1    9   27     2     4    5.9113E+04 -6.1074E+03   6.5220E+04  0.000E+00  0.000E+00  0.000E+00  3.95070E+01  1.320E-01  2.000E+01  2.000E+04 -3.054E-01
   1   10   26     2     5    6.5220E+04 -3.7333E+03   6.8953E+04  0.000E+00  0.000E+00  0.000E+00  3.92632E+01  1.382E-01  2.000E+01  2.000E+04 -1.867E-01
   1   11   25     2     6    6.8953E+04 -2.6946E+03   7.1648E+04  0.000E+00  0.000E+00  0.000E+00  3.90172E+01  1.422E-01  2.000E+01  2.000E+04 -1.347E-01
   1   12   24     2     7    7.1648E+04 -1.8632E+03   7.3511E+04  0.000E+00  0.000E+00  0.000E+00  3.87699E+01  1.449E-01  2.000E+01  2.000E+04 -9.316E-02
   1   13   23     2     8    7.3511E+04 -1.0686E+03   7.4580E+04  0.000E+00  0.000E+00  0.000E+00  3.85216E+01  1.466E-01  2.000E+01  2.000E+04 -5.343E-02
   1   14   22     2     9    7.4580E+04  1.7996E+03   7.2780E+04  0.000E+00  0.000E+00  0.000E+00  3.82712E+01  1.462E-01  2.000E+01  2.000E+04  8.998E-02
   1   14   22     3     1    2.3365E+05 -8.4756E+03   2.4213E+05  0.000E+00  0.000E+00  0.000E+00  3.77575E+01  2.019E-01  2.000E+01  2.000E+04 -4.238E-01
   1   15   23     3     2    2.4213E+05 -2.6091E+03   2.4474E+05  0.000E+00  0.000E+00  0.000E+00  3.68714E+01  2.047E-01  2.000E+01  2.000E+04 -1.305E-01
   1   15   24     3     3    2.4474E+05 -1.8275E+03   2.4657E+05  0.000E+00  0.000E+00  0.000E+00  3.59836E+01  2.058E-01  2.000E+01  2.000E+04 -9.137E-02
   1   15   25     3     4    2.4657E+05 -1.7515E+03   2.4832E+05  0.000E+00  0.000E+00  0.000E+00  3.50956E+01  2.067E-01  2.000E+01  2.000E+04 -8.757E-02
   1   15   26     3     5    2.4832E+05 -2.1479E+03   2.5046E+05  0.000E+00  0.000E+00  0.000E+00  3.42077E+01  2.077E-01  2.000E+01  2.000E+04 -1.074E-01
   1   16   27     3     6    2.5046E+05 -2.9651E+03   2.5343E+05  0.000E+00  0.000E+00  0.000E+00  3.33201E+01  2.090E-01  2.000E+01  2.000E+04 -1.483E-01
   1   17   28     3     7    2.5343E+05 -3.7566E+03   2.5719E+05  0.000E+00  0.000E+00  0.000E+00  3.24329E+01  2.106E-01  2.000E+01  2.000E+04 -1.878E-01
   1   18   29     3     8    2.5719E+05 -5.4105E+03   2.6260E+05  0.000E+00  0.000E+00  0.000E+00  3.15462E+01  2.129E-01  2.000E+01  2.000E+04 -2.705E-01
   1   18   30     3     9    2.6260E+05 -4.6252E+03   2.6722E+05  0.000E+00  0.000E+00  0.000E+00  3.06598E+01  2.154E-01  2.000E+01  2.000E+04 -2.313E-01



1
              HEAD IN LAYER   1 AT END OF TIME STEP   1 IN STRESS PERIOD    5
  ---------------------------------------------------------------------------

          1      2      3      4      5      6      7      8      9     10
         11     12     13     14     15     16     17     18     19     20
         21     22     23     24     25     26     27     28     29     30
 .........................................................................
   1  ****** ****** ****** ****** ****** ****** ****** ****** ****** ******
      ****** ****** ****** ****** ****** ****** ****** ****** ****** ******
      ****** ****** ****** ****** ****** ****** ****** ****** ****** ******
   2  ****** ****** ****** ****** ****** ****** ****** ****** ****** ******
      ****** ****** ****** ****** ****** ****** ****** ****** ****** ******
      ****** ****** ****** ****** ****** ****** ****** ****** ****** ******
   3  ****** ****** ****** ****** ****** ****** ****** ****** ****** ******
      ****** ****** ****** ****** ****** ****** ****** ****** ****** ******
      ****** ****** ****** ****** ****** ****** ****** ****** ****** ******
   4  ****** ****** ****** ****** ****** ****** ****** ****** ****** ******
      ****** ****** ****** ****** ****** ****** ****** ****** ****** ******
      ****** ****** ****** ****** ****** ****** ****** ****** ****** ******
   5  ****** ****** ****** ****** ****** ****** ****** ****** ****** ******
      ****** ****** ****** ****** ****** ****** ****** ****** ****** ******
      ****** ****** ****** ****** ****** ****** ****** ****** ****** ******
   6  ****** ****** ****** ****** ****** ****** ****** ****** ****** ******
      ****** ****** ****** ****** ****** ****** ****** ****** ****** ******
      ****** ****** ****** ****** ****** ****** ****** ****** ****** ******
   7  ****** ****** ****** ****** ****** ****** ****** ****** ****** ******
      ****** ****** ****** ****** ****** ****** ****** ****** ****** ******
      ****** ****** ****** ****** ****** ****** ****** ****** ****** ******
   8  ****** ****** ****** ****** ****** ****** ****** ****** ****** ******
      ****** ****** ****** ****** ****** ****** ****** ****** ****** ******
      ****** ****** ****** ****** ****** ****** ****** ****** ****** ******
   9  ****** ****** ****** ****** ****** ****** ****** ****** ****** ******
      ****** ****** ****** ****** ****** ****** ****** ****** ****** ******
      ****** ****** ****** ****** ****** ****** ****** ****** ****** ******
  10  ****** ****** ****** ****** ****** ****** ****** ****** ****** ******
      ****** ****** ****** ****** ****** ****** ****** ****** ****** ******
      ****** ****** ****** ****** ****** ****** ****** ****** ****** ******
  11  ****** ****** ****** ****** ****** ****** ****** ****** ****** ******
      ****** ****** ****** ****** ****** ****** ****** ****** ****** ******
      ****** ****** ****** ****** ****** ****** ****** ****** ****** ******
  12  ****** ****** ****** ****** ****** ****** ****** ****** ****** ******
      ****** ****** ****** ****** ****** ****** ****** ****** ****** ******
      ****** ****** ****** ****** ****** ****** ****** ****** ****** ******
  13  ****** ****** ****** ****** ****** ****** ****** ****** ****** ******
      ****** ****** ****** ****** ****** ****** ****** ****** ****** ******
      ****** ****** ****** ****** ****** ****** ****** ****** ****** ******
  14  ****** ****** ****** ****** ****** ****** ****** ****** ****** ******
      ****** ****** ****** ****** ****** ****** ****** ****** ****** ******
      ****** ****** ****** ****** ****** ****** ****** ****** ****** ******
  15  ****** ****** ****** ****** ****** ****** ****** ****** ****** ******
      ****** ****** ****** ****** ****** ****** ****** ****** ****** ******
      ****** ****** ****** ****** ****** ****** ****** ****** ****** ******
  16  ****** ****** ****** ****** ****** ****** ****** ****** ****** ******
      ****** ****** ****** ****** ****** ****** ****** ****** ****** ******
      ****** ****** ****** ****** ****** ****** ****** ****** ****** ******
  17  ****** ****** ****** ****** ****** ****** ****** ****** ****** ******
      ****** ****** ****** ****** ****** ****** ****** ****** ****** ******
      ****** ****** ****** ****** ****** ****** ****** ****** ****** ******
  18  ****** ****** ****** ****** ****** ****** ****** ****** ****** ******
      ****** ****** ****** ****** ****** ****** ****** ****** ****** ******
      ****** ****** ****** ****** ****** ****** ****** ****** ****** ******
  19  ****** ****** ****** ****** ****** ****** ****** ****** ****** ******
      ****** ****** ****** ****** ****** ****** ****** ****** ****** ******
      ****** ****** ****** ****** ****** ****** ****** ****** ****** ******
  20  ****** ****** ****** ****** ****** ****** ****** ****** ****** ******
      ****** ****** ****** ****** ****** ****** ****** ****** ****** ******
      ****** ****** ****** ****** ****** ****** ****** ****** ****** ******
  21  ****** ****** ****** ****** ****** ****** ****** ****** ****** ******
      ****** ****** ****** ****** ****** ****** ****** ****** ****** ******
      ****** ****** ****** ****** ****** ****** ****** ****** ****** ******
  22  ****** ****** ****** ****** ****** ****** ****** ****** ****** ******
      ****** ****** ****** ****** ****** ****** ****** ****** ****** ******
      ****** ****** ****** ****** ****** ****** ****** ****** ****** ******
  23  ****** ****** ****** ****** ****** ****** ****** ****** ****** ******
      ****** ****** ****** ****** ****** ****** ****** ****** ****** ******
      ****** ****** ****** ****** ****** ****** ****** ****** ****** ******
  24  ****** ****** ****** ****** ****** ****** ****** ****** ****** ******
      ****** ****** ****** ****** ****** ****** ****** ****** ****** ******
      ****** ****** ****** ****** ****** ****** ****** ****** ****** ******
  25  ****** ****** ****** ****** ****** ****** ****** ****** ****** ******
      ****** ****** ****** ****** ****** ****** ****** ****** ****** ******
      ****** ****** ****** ****** ****** ****** ****** ****** ****** ******

 HEAD WILL BE SAVED ON UNIT   51 AT END OF TIME STEP    1, STRESS PERIOD    5
1
  VOLUMETRIC BUDGET FOR ENTIRE MODEL AT END OF TIME STEP    1, STRESS PERIOD   5
  ------------------------------------------------------------------------------

     CUMULATIVE VOLUMES      L**3       RATES FOR THIS TIME STEP      L**3/T
     ------------------                 ------------------------

           IN:                                      IN:
           ---                                      ---
             STORAGE =    21568000.7549               STORAGE =        4332.1113
       CONSTANT HEAD =    56063722.2307         CONSTANT HEAD =      137235.1473
               WELLS =           0.0000                 WELLS =           0.0000
            RECHARGE =    10074000.0000              RECHARGE =       13800.0000
      STREAM LEAKAGE =     2901309.5346        STREAM LEAKAGE =        6831.6927

            TOTAL IN =    90607032.5201              TOTAL IN =      162198.9513

          OUT:                                     OUT:
          ----                                     ----
             STORAGE =       27600.7732               STORAGE =           0.0000
       CONSTANT HEAD =           0.0000         CONSTANT HEAD =           0.0000
               WELLS =    17432328.5396                 WELLS =       38145.1390
            RECHARGE =           0.0000              RECHARGE =           0.0000
      STREAM LEAKAGE =    73147103.9468        STREAM LEAKAGE =      124053.8130

           TOTAL OUT =    90607033.2596             TOTAL OUT =      162198.9521

            IN - OUT =          -0.7395              IN - OUT =      -7.6395E-04

 PERCENT DISCREPANCY =          -0.00     PERCENT DISCREPANCY =          -0.00






         TIME SUMMARY AT END OF TIME STEP    1 IN STRESS PERIOD    5
                    SECONDS     MINUTES      HOURS       DAYS        YEARS
                    -----------------------------------------------------------
   TIME STEP LENGTH 7.94880E+06 1.32480E+05  2208.0      92.000     0.25188    
 STRESS PERIOD TIME 7.94880E+06 1.32480E+05  2208.0      92.000     0.25188    
         TOTAL TIME 3.94848E+07 6.58080E+05  10968.      457.00      1.2512    
1
1
                            STRESS PERIOD NO.    6, LENGTH =   91.00000    
                            -----------------------------------------------

                              NUMBER OF TIME STEPS =     1

                               MULTIPLIER FOR DELT =     1.500

                            INITIAL TIME STEP SIZE =   91.00000    

 WELL NO.  LAYER   ROW   COL   STRESS RATE         
 --------------------------------------------------
      1      1     23     10     -0.1134E+05
      2      1     17      3     -0.1036E+05
      3      1     23     22     -0.1645E+05

      3 WELLS

                 RECHARGE =  2.000000E-03

 REUSING STREAM SEGMENT DATA FROM LAST STRESS PERIOD
 
 SOLVING FOR HEAD 


     7 CALLS TO PCG ROUTINE FOR TIME STEP   1 IN STRESS PERIOD    6
    26 TOTAL ITERATIONS

 OUTPUT CONTROL FOR STRESS PERIOD    6   TIME STEP    1
    SAVE BUDGET
    SAVE HEAD FOR ALL LAYERS
    PRINT HEAD FOR ALL LAYERS
 UBDSV2 SAVING "STREAMFLOW OUT  " ON UNIT  50 AT TIME STEP  1, STRESS PERIOD   6



 STREAM LISTING     PERIOD      6   STEP        1

 LAYER ROW COL. STREAM  RCH.  FLOW INTO     FLOW TO   FLOW OUT OF   OVRLND.     DIRECT     STREAM       STREAM     STREAM     STREAM   STREAMBED  STREAMBED
                SEG.NO.  NO.  STRM. RCH.    AQUIFER    STRM. RCH.    RUNOFF     PRECIP       ET          HEAD       DEPTH      WIDTH   CONDCTNC.   GRADIENT

   1   13    1     1     1    1.0000E+05 -2.5898E+03   1.0259E+05  0.000E+00  0.000E+00  0.000E+00  4.84071E+01  1.458E-01  2.000E+01  2.000E+04 -1.295E-01
   1   13    2     1     2    1.0259E+05 -4.7438E+03   1.0733E+05  0.000E+00  0.000E+00  0.000E+00  4.79330E+01  1.489E-01  2.000E+01  2.000E+04 -2.372E-01
   1   14    3     1     3    1.0733E+05 -2.9003E+03   1.1023E+05  0.000E+00  0.000E+00  0.000E+00  4.74590E+01  1.521E-01  2.000E+01  2.000E+04 -1.450E-01
   1   15    4     1     4    1.1023E+05 -2.0191E+03   1.1225E+05  0.000E+00  0.000E+00  0.000E+00  4.69837E+01  1.542E-01  2.000E+01  2.000E+04 -1.010E-01
   1   16    5     1     5    1.1225E+05 -2.0899E+03   1.1434E+05  0.000E+00  0.000E+00  0.000E+00  4.65082E+01  1.559E-01  2.000E+01  2.000E+04 -1.045E-01
   1   16    6     1     6    1.1434E+05 -2.8109E+03   1.1715E+05  0.000E+00  0.000E+00  0.000E+00  4.60329E+01  1.579E-01  2.000E+01  2.000E+04 -1.405E-01
   1   16    7     1     7    1.1715E+05 -3.1339E+03   1.2029E+05  0.000E+00  0.000E+00  0.000E+00  4.55581E+01  1.603E-01  2.000E+01  2.000E+04 -1.567E-01
   1   16    8     1     8    1.2029E+05 -3.2785E+03   1.2357E+05  0.000E+00  0.000E+00  0.000E+00  4.50834E+01  1.629E-01  2.000E+01  2.000E+04 -1.639E-01
   1   16    9     1     9    1.2357E+05 -3.3285E+03   1.2689E+05  0.000E+00  0.000E+00  0.000E+00  4.46087E+01  1.656E-01  2.000E+01  2.000E+04 -1.664E-01
   1   16   10     1    10    1.2689E+05 -3.3213E+03   1.3022E+05  0.000E+00  0.000E+00  0.000E+00  4.41341E+01  1.682E-01  2.000E+01  2.000E+04 -1.661E-01
   1   16   11     1    11    1.3022E+05 -3.2956E+03   1.3351E+05  0.000E+00  0.000E+00  0.000E+00  4.36594E+01  1.708E-01  2.000E+01  2.000E+04 -1.648E-01
   1   16   12     1    12    1.3351E+05 -4.3412E+03   1.3785E+05  0.000E+00  0.000E+00  0.000E+00  4.31851E+01  1.737E-01  2.000E+01  2.000E+04 -2.171E-01
   1   15   13     1    13    1.3785E+05 -4.2606E+03   1.4211E+05  0.000E+00  0.000E+00  0.000E+00  4.27111E+01  1.770E-01  2.000E+01  2.000E+04 -2.130E-01
   1   14   14     1    14    1.4211E+05 -4.4015E+03   1.4651E+05  0.000E+00  0.000E+00  0.000E+00  4.22371E+01  1.803E-01  2.000E+01  2.000E+04 -2.201E-01
   1   13   15     1    15    1.4651E+05 -4.7231E+03   1.5124E+05  0.000E+00  0.000E+00  0.000E+00  4.17632E+01  1.837E-01  2.000E+01  2.000E+04 -2.362E-01
   1   12   16     1    16    1.5124E+05 -5.9064E+03   1.5714E+05  0.000E+00  0.000E+00  0.000E+00  4.12898E+01  1.876E-01  2.000E+01  2.000E+04 -2.953E-01
   1   12   17     1    17    1.5714E+05 -3.9211E+03   1.6107E+05  0.000E+00  0.000E+00  0.000E+00  4.08161E+01  1.911E-01  2.000E+01  2.000E+04 -1.961E-01
   1   12   18     1    18    1.6107E+05 -3.7790E+03   1.6484E+05  0.000E+00  0.000E+00  0.000E+00  4.03416E+01  1.939E-01  2.000E+01  2.000E+04 -1.889E-01
   1   12   19     1    19    1.6484E+05 -4.9134E+03   1.6976E+05  0.000E+00  0.000E+00  0.000E+00  3.98674E+01  1.970E-01  2.000E+01  2.000E+04 -2.457E-01
   1   13   20     1    20    1.6976E+05 -3.3477E+03   1.7311E+05  0.000E+00  0.000E+00  0.000E+00  3.93931E+01  1.999E-01  2.000E+01  2.000E+04 -1.674E-01
   1   14   21     1    21    1.7311E+05 -2.4836E+03   1.7559E+05  0.000E+00  0.000E+00  0.000E+00  3.89178E+01  2.019E-01  2.000E+01  2.000E+04 -1.242E-01
   1   14   22     1    22    1.7559E+05  4.9522E+03   1.7064E+05  0.000E+00  0.000E+00  0.000E+00  3.84397E+01  2.011E-01  2.000E+01  2.000E+04  2.476E-01
   1    9   30     2     1    5.0000E+04 -3.0454E+03   5.3045E+04  0.000E+00  0.000E+00  0.000E+00  4.02430E+01  1.180E-01  2.000E+01  2.000E+04 -1.523E-01
   1    9   29     2     2    5.3045E+04 -3.3754E+03   5.6421E+04  0.000E+00  0.000E+00  0.000E+00  3.99973E+01  1.223E-01  2.000E+01  2.000E+04 -1.688E-01
   1    9   28     2     3    5.6421E+04 -3.7552E+03   6.0176E+04  0.000E+00  0.000E+00  0.000E+00  3.97520E+01  1.270E-01  2.000E+01  2.000E+04 -1.878E-01
   1    9   27     2     4    6.0176E+04 -6.5769E+03   6.6753E+04  0.000E+00  0.000E+00  0.000E+00  3.95087E+01  1.337E-01  2.000E+01  2.000E+04 -3.288E-01
   1   10   26     2     5    6.6753E+04 -4.2193E+03   7.0972E+04  0.000E+00  0.000E+00  0.000E+00  3.92654E+01  1.404E-01  2.000E+01  2.000E+04 -2.110E-01
   1   11   25     2     6    7.0972E+04 -3.1596E+03   7.4132E+04  0.000E+00  0.000E+00  0.000E+00  3.90199E+01  1.449E-01  2.000E+01  2.000E+04 -1.580E-01
   1   12   24     2     7    7.4132E+04 -2.2743E+03   7.6406E+04  0.000E+00  0.000E+00  0.000E+00  3.87731E+01  1.481E-01  2.000E+01  2.000E+04 -1.137E-01
   1   13   23     2     8    7.6406E+04 -1.3893E+03   7.7795E+04  0.000E+00  0.000E+00  0.000E+00  3.85252E+01  1.502E-01  2.000E+01  2.000E+04 -6.946E-02
   1   14   22     2     9    7.7795E+04  1.6601E+03   7.6135E+04  0.000E+00  0.000E+00  0.000E+00  3.82751E+01  1.501E-01  2.000E+01  2.000E+04  8.300E-02
   1   14   22     3     1    2.4677E+05 -8.5601E+03   2.5533E+05  0.000E+00  0.000E+00  0.000E+00  3.77641E+01  2.085E-01  2.000E+01  2.000E+04 -4.280E-01
   1   15   23     3     2    2.5533E+05 -3.0045E+03   2.5834E+05  0.000E+00  0.000E+00  0.000E+00  3.68781E+01  2.114E-01  2.000E+01  2.000E+04 -1.502E-01
   1   15   24     3     3    2.5834E+05 -2.1140E+03   2.6045E+05  0.000E+00  0.000E+00  0.000E+00  3.59904E+01  2.127E-01  2.000E+01  2.000E+04 -1.057E-01
   1   15   25     3     4    2.6045E+05 -2.0390E+03   2.6249E+05  0.000E+00  0.000E+00  0.000E+00  3.51026E+01  2.137E-01  2.000E+01  2.000E+04 -1.019E-01
   1   15   26     3     5    2.6249E+05 -2.5188E+03   2.6501E+05  0.000E+00  0.000E+00  0.000E+00  3.42148E+01  2.148E-01  2.000E+01  2.000E+04 -1.259E-01
   1   16   27     3     6    2.6501E+05 -3.4303E+03   2.6844E+05  0.000E+00  0.000E+00  0.000E+00  3.33274E+01  2.162E-01  2.000E+01  2.000E+04 -1.715E-01
   1   17   28     3     7    2.6844E+05 -4.2315E+03   2.7267E+05  0.000E+00  0.000E+00  0.000E+00  3.24403E+01  2.181E-01  2.000E+01  2.000E+04 -2.116E-01
   1   18   29     3     8    2.7267E+05 -5.8561E+03   2.7853E+05  0.000E+00  0.000E+00  0.000E+00  3.15539E+01  2.205E-01  2.000E+01  2.000E+04 -2.928E-01
   1   18   30     3     9    2.7853E+05 -4.9615E+03   2.8349E+05  0.000E+00  0.000E+00  0.000E+00  3.06676E+01  2.231E-01  2.000E+01  2.000E+04 -2.481E-01



1
              HEAD IN LAYER   1 AT END OF TIME STEP   1 IN STRESS PERIOD    6
  ---------------------------------------------------------------------------

          1      2      3      4      5      6      7      8      9     10
         11     12     13     14     15     16     17     18     19     20
         21     22     23     24     25     26     27     28     29     30
 .........................................................................
   1  ****** ****** ****** ****** ****** ****** ****** ****** ****** ******
      ****** ****** ****** ****** ****** ****** ****** ****** ****** ******
      ****** ****** ****** ****** ****** ****** ****** ****** ****** ******
   2  ****** ****** ****** ****** ****** ****** ****** ****** ****** ******
      ****** ****** ****** ****** ****** ****** ****** ****** ****** ******
      ****** ****** ****** ****** ****** ****** ****** ****** ****** ******
   3  ****** ****** ****** ****** ****** ****** ****** ****** ****** ******
      ****** ****** ****** ****** ****** ****** ****** ****** ****** ******
      ****** ****** ****** ****** ****** ****** ****** ****** ****** ******
   4  ****** ****** ****** ****** ****** ****** ****** ****** ****** ******
      ****** ****** ****** ****** ****** ****** ****** ****** ****** ******
      ****** ****** ****** ****** ****** ****** ****** ****** ****** ******
   5  ****** ****** ****** ****** ****** ****** ****** ****** ****** ******
      ****** ****** ****** ****** ****** ****** ****** ****** ****** ******
      ****** ****** ****** ****** ****** ****** ****** ****** ****** ******
   6  ****** ****** ****** ****** ****** ****** ****** ****** ****** ******
      ****** ****** ****** ****** ****** ****** ****** ****** ****** ******
      ****** ****** ****** ****** ****** ****** ****** ****** ****** ******
   7  ****** ****** ****** ****** ****** ****** ****** ****** ****** ******
      ****** ****** ****** ****** ****** ****** ****** ****** ****** ******
      ****** ****** ****** ****** ****** ****** ****** ****** ****** ******
   8  ****** ****** ****** ****** ****** ****** ****** ****** ****** ******
      ****** ****** ****** ****** ****** ****** ****** ****** ****** ******
      ****** ****** ****** ****** ****** ****** ****** ****** ****** ******
   9  ****** ****** ****** ****** ****** ****** ****** ****** ****** ******
      ****** ****** ****** ****** ****** ****** ****** ****** ****** ******
      ****** ****** ****** ****** ****** ****** ****** ****** ****** ******
  10  ****** ****** ****** ****** ****** ****** ****** ****** ****** ******
      ****** ****** ****** ****** ****** ****** ****** ****** ****** ******
      ****** ****** ****** ****** ****** ****** ****** ****** ****** ******
  11  ****** ****** ****** ****** ****** ****** ****** ****** ****** ******
      ****** ****** ****** ****** ****** ****** ****** ****** ****** ******
      ****** ****** ****** ****** ****** ****** ****** ****** ****** ******
  12  ****** ****** ****** ****** ****** ****** ****** ****** ****** ******
      ****** ****** ****** ****** ****** ****** ****** ****** ****** ******
      ****** ****** ****** ****** ****** ****** ****** ****** ****** ******
  13  ****** ****** ****** ****** ****** ****** ****** ****** ****** ******
      ****** ****** ****** ****** ****** ****** ****** ****** ****** ******
      ****** ****** ****** ****** ****** ****** ****** ****** ****** ******
  14  ****** ****** ****** ****** ****** ****** ****** ****** ****** ******
      ****** ****** ****** ****** ****** ****** ****** ****** ****** ******
      ****** ****** ****** ****** ****** ****** ****** ****** ****** ******
  15  ****** ****** ****** ****** ****** ****** ****** ****** ****** ******
      ****** ****** ****** ****** ****** ****** ****** ****** ****** ******
      ****** ****** ****** ****** ****** ****** ****** ****** ****** ******
  16  ****** ****** ****** ****** ****** ****** ****** ****** ****** ******
      ****** ****** ****** ****** ****** ****** ****** ****** ****** ******
      ****** ****** ****** ****** ****** ****** ****** ****** ****** ******
  17  ****** ****** ****** ****** ****** ****** ****** ****** ****** ******
      ****** ****** ****** ****** ****** ****** ****** ****** ****** ******
      ****** ****** ****** ****** ****** ****** ****** ****** ****** ******
  18  ****** ****** ****** ****** ****** ****** ****** ****** ****** ******
      ****** ****** ****** ****** ****** ****** ****** ****** ****** ******
      ****** ****** ****** ****** ****** ****** ****** ****** ****** ******
  19  ****** ****** ****** ****** ****** ****** ****** ****** ****** ******
      ****** ****** ****** ****** ****** ****** ****** ****** ****** ******
      ****** ****** ****** ****** ****** ****** ****** ****** ****** ******
  20  ****** ****** ****** ****** ****** ****** ****** ****** ****** ******
      ****** ****** ****** ****** ****** ****** ****** ****** ****** ******
      ****** ****** ****** ****** ****** ****** ****** ****** ****** ******
  21  ****** ****** ****** ****** ****** ****** ****** ****** ****** ******
      ****** ****** ****** ****** ****** ****** ****** ****** ****** ******
      ****** ****** ****** ****** ****** ****** ****** ****** ****** ******
  22  ****** ****** ****** ****** ****** ****** ****** ****** ****** ******
      ****** ****** ****** ****** ****** ****** ****** ****** ****** ******
      ****** ****** ****** ****** ****** ****** ****** ****** ****** ******
  23  ****** ****** ****** ****** ****** ****** ****** ****** ****** ******
      ****** ****** ****** ****** ****** ****** ****** ****** ****** ******
      ****** ****** ****** ****** ****** ****** ****** ****** ****** ******
  24  ****** ****** ****** ****** ****** ****** ****** ****** ****** ******
      ****** ****** ****** ****** ****** ****** ****** ****** ****** ******
      ****** ****** ****** ****** ****** ****** ****** ****** ****** ******
  25  ****** ****** ****** ****** ****** ****** ****** ****** ****** ******
      ****** ****** ****** ****** ****** ****** ****** ****** ****** ******
      ****** ****** ****** ****** ****** ****** ****** ****** ****** ******

 HEAD WILL BE SAVED ON UNIT   51 AT END OF TIME STEP    1, STRESS PERIOD    6
1
  VOLUMETRIC BUDGET FOR ENTIRE MODEL AT END OF TIME STEP    1, STRESS PERIOD   6
  ------------------------------------------------------------------------------

     CUMULATIVE VOLUMES      L**3       RATES FOR THIS TIME STEP      L**3/T
     ------------------                 ------------------------

           IN:                                      IN:
           ---                                      ---
             STORAGE =    21568000.7549               STORAGE =           0.0000
       CONSTANT HEAD =    67581105.3461         CONSTANT HEAD =      126564.6496
               WELLS =           0.0000                 WELLS =           0.0000
            RECHARGE =    15097200.0000              RECHARGE =       55200.0000
      STREAM LEAKAGE =     3503025.3301        STREAM LEAKAGE =        6612.2615

            TOTAL IN =   107749331.4311              TOTAL IN =      188376.9111

          OUT:                                     OUT:
          ----                                     ----
             STORAGE =      949581.2908               STORAGE =       10131.6540
       CONSTANT HEAD =           0.0000         CONSTANT HEAD =           0.0000
               WELLS =    20903536.1919                 WELLS =       38145.1390
            RECHARGE =           0.0000              RECHARGE =           0.0000
      STREAM LEAKAGE =    85896214.5360        STREAM LEAKAGE =      140100.1164

           TOTAL OUT =   107749332.0187             TOTAL OUT =      188376.9094

            IN - OUT =          -0.5876              IN - OUT =       1.6695E-03

 PERCENT DISCREPANCY =          -0.00     PERCENT DISCREPANCY =           0.00






         TIME SUMMARY AT END OF TIME STEP    1 IN STRESS PERIOD    6
                    SECONDS     MINUTES      HOURS       DAYS        YEARS
                    -----------------------------------------------------------
   TIME STEP LENGTH 7.86240E+06 1.31040E+05  2184.0      91.000     0.24914    
 STRESS PERIOD TIME 7.86240E+06 1.31040E+05  2184.0      91.000     0.24914    
         TOTAL TIME 4.73472E+07 7.89120E+05  13152.      548.00      1.5003    
1
1
                            STRESS PERIOD NO.    7, LENGTH =   91.00000    
                            -----------------------------------------------

                              NUMBER OF TIME STEPS =     1

                               MULTIPLIER FOR DELT =     1.500

                            INITIAL TIME STEP SIZE =   91.00000    

 WELL NO.  LAYER   ROW   COL   STRESS RATE         
 --------------------------------------------------
      1      1     23     10     -0.1039E+05
      2      1     17      3      -9136.    
      3      1     23     22     -0.1057E+05

      3 WELLS

                 RECHARGE =   0.00000    

 REUSING STREAM SEGMENT DATA FROM LAST STRESS PERIOD
 
 SOLVING FOR HEAD 


     7 CALLS TO PCG ROUTINE FOR TIME STEP   1 IN STRESS PERIOD    7
    26 TOTAL ITERATIONS

 OUTPUT CONTROL FOR STRESS PERIOD    7   TIME STEP    1
    SAVE BUDGET
    SAVE HEAD FOR ALL LAYERS
    PRINT HEAD FOR ALL LAYERS
 UBDSV2 SAVING "STREAMFLOW OUT  " ON UNIT  50 AT TIME STEP  1, STRESS PERIOD   7



 STREAM LISTING     PERIOD      7   STEP        1

 LAYER ROW COL. STREAM  RCH.  FLOW INTO     FLOW TO   FLOW OUT OF   OVRLND.     DIRECT     STREAM       STREAM     STREAM     STREAM   STREAMBED  STREAMBED
                SEG.NO.  NO.  STRM. RCH.    AQUIFER    STRM. RCH.    RUNOFF     PRECIP       ET          HEAD       DEPTH      WIDTH   CONDCTNC.   GRADIENT

   1   13    1     1     1    1.0000E+05 -2.1482E+03   1.0215E+05  0.000E+00  0.000E+00  0.000E+00  4.84069E+01  1.456E-01  2.000E+01  2.000E+04 -1.074E-01
   1   13    2     1     2    1.0215E+05 -4.1390E+03   1.0629E+05  0.000E+00  0.000E+00  0.000E+00  4.79324E+01  1.483E-01  2.000E+01  2.000E+04 -2.070E-01
   1   14    3     1     3    1.0629E+05 -2.3647E+03   1.0865E+05  0.000E+00  0.000E+00  0.000E+00  4.74579E+01  1.510E-01  2.000E+01  2.000E+04 -1.182E-01
   1   15    4     1     4    1.0865E+05 -1.5685E+03   1.1022E+05  0.000E+00  0.000E+00  0.000E+00  4.69822E+01  1.527E-01  2.000E+01  2.000E+04 -7.843E-02
   1   16    5     1     5    1.1022E+05 -1.7068E+03   1.1193E+05  0.000E+00  0.000E+00  0.000E+00  4.65063E+01  1.541E-01  2.000E+01  2.000E+04 -8.534E-02
   1   16    6     1     6    1.1193E+05 -2.3897E+03   1.1432E+05  0.000E+00  0.000E+00  0.000E+00  4.60308E+01  1.558E-01  2.000E+01  2.000E+04 -1.195E-01
   1   16    7     1     7    1.1432E+05 -2.6811E+03   1.1700E+05  0.000E+00  0.000E+00  0.000E+00  4.55556E+01  1.578E-01  2.000E+01  2.000E+04 -1.341E-01
   1   16    8     1     8    1.1700E+05 -2.8123E+03   1.1981E+05  0.000E+00  0.000E+00  0.000E+00  4.50805E+01  1.601E-01  2.000E+01  2.000E+04 -1.406E-01
   1   16    9     1     9    1.1981E+05 -2.8587E+03   1.2267E+05  0.000E+00  0.000E+00  0.000E+00  4.46056E+01  1.624E-01  2.000E+01  2.000E+04 -1.429E-01
   1   16   10     1    10    1.2267E+05 -2.8546E+03   1.2552E+05  0.000E+00  0.000E+00  0.000E+00  4.41306E+01  1.647E-01  2.000E+01  2.000E+04 -1.427E-01
   1   16   11     1    11    1.2552E+05 -2.8359E+03   1.2836E+05  0.000E+00  0.000E+00  0.000E+00  4.36555E+01  1.669E-01  2.000E+01  2.000E+04 -1.418E-01
   1   16   12     1    12    1.2836E+05 -3.7618E+03   1.3212E+05  0.000E+00  0.000E+00  0.000E+00  4.31809E+01  1.695E-01  2.000E+01  2.000E+04 -1.881E-01
   1   15   13     1    13    1.3212E+05 -3.6132E+03   1.3573E+05  0.000E+00  0.000E+00  0.000E+00  4.27065E+01  1.724E-01  2.000E+01  2.000E+04 -1.807E-01
   1   14   14     1    14    1.3573E+05 -3.7375E+03   1.3947E+05  0.000E+00  0.000E+00  0.000E+00  4.22320E+01  1.752E-01  2.000E+01  2.000E+04 -1.869E-01
   1   13   15     1    15    1.3947E+05 -4.0657E+03   1.4354E+05  0.000E+00  0.000E+00  0.000E+00  4.17577E+01  1.782E-01  2.000E+01  2.000E+04 -2.033E-01
   1   12   16     1    16    1.4354E+05 -5.2739E+03   1.4881E+05  0.000E+00  0.000E+00  0.000E+00  4.12839E+01  1.817E-01  2.000E+01  2.000E+04 -2.637E-01
   1   12   17     1    17    1.4881E+05 -3.4508E+03   1.5226E+05  0.000E+00  0.000E+00  0.000E+00  4.08099E+01  1.849E-01  2.000E+01  2.000E+04 -1.725E-01
   1   12   18     1    18    1.5226E+05 -3.3171E+03   1.5558E+05  0.000E+00  0.000E+00  0.000E+00  4.03351E+01  1.874E-01  2.000E+01  2.000E+04 -1.659E-01
   1   12   19     1    19    1.5558E+05 -4.3465E+03   1.5993E+05  0.000E+00  0.000E+00  0.000E+00  3.98606E+01  1.902E-01  2.000E+01  2.000E+04 -2.173E-01
   1   13   20     1    20    1.5993E+05 -2.8059E+03   1.6273E+05  0.000E+00  0.000E+00  0.000E+00  3.93859E+01  1.927E-01  2.000E+01  2.000E+04 -1.403E-01
   1   14   21     1    21    1.6273E+05 -2.0179E+03   1.6475E+05  0.000E+00  0.000E+00  0.000E+00  3.89104E+01  1.945E-01  2.000E+01  2.000E+04 -1.009E-01
   1   14   22     1    22    1.6475E+05  5.0488E+03   1.5970E+05  0.000E+00  0.000E+00  0.000E+00  3.84320E+01  1.934E-01  2.000E+01  2.000E+04  2.524E-01
   1    9   30     2     1    5.0000E+04 -2.6028E+03   5.2603E+04  0.000E+00  0.000E+00  0.000E+00  4.02427E+01  1.177E-01  2.000E+01  2.000E+04 -1.301E-01
   1    9   29     2     2    5.2603E+04 -2.9365E+03   5.5539E+04  0.000E+00  0.000E+00  0.000E+00  3.99964E+01  1.214E-01  2.000E+01  2.000E+04 -1.468E-01
   1    9   28     2     3    5.5539E+04 -3.3196E+03   5.8859E+04  0.000E+00  0.000E+00  0.000E+00  3.97506E+01  1.256E-01  2.000E+01  2.000E+04 -1.660E-01
   1    9   27     2     4    5.8859E+04 -6.0019E+03   6.4861E+04  0.000E+00  0.000E+00  0.000E+00  3.95066E+01  1.316E-01  2.000E+01  2.000E+04 -3.001E-01
   1   10   26     2     5    6.4861E+04 -3.6187E+03   6.8479E+04  0.000E+00  0.000E+00  0.000E+00  3.92627E+01  1.377E-01  2.000E+01  2.000E+04 -1.809E-01
   1   11   25     2     6    6.8479E+04 -2.5825E+03   7.1062E+04  0.000E+00  0.000E+00  0.000E+00  3.90165E+01  1.415E-01  2.000E+01  2.000E+04 -1.291E-01
   1   12   24     2     7    7.1062E+04 -1.7610E+03   7.2823E+04  0.000E+00  0.000E+00  0.000E+00  3.87691E+01  1.441E-01  2.000E+01  2.000E+04 -8.805E-02
   1   13   23     2     8    7.2823E+04 -9.8607E+02   7.3809E+04  0.000E+00  0.000E+00  0.000E+00  3.85208E+01  1.458E-01  2.000E+01  2.000E+04 -4.930E-02
   1   14   22     2     9    7.3809E+04  1.8143E+03   7.1995E+04  0.000E+00  0.000E+00  0.000E+00  3.82703E+01  1.453E-01  2.000E+01  2.000E+04  9.072E-02
   1   14   22     3     1    2.3170E+05 -8.4624E+03   2.4016E+05  0.000E+00  0.000E+00  0.000E+00  3.77564E+01  2.009E-01  2.000E+01  2.000E+04 -4.231E-01
   1   15   23     3     2    2.4016E+05 -2.6057E+03   2.4276E+05  0.000E+00  0.000E+00  0.000E+00  3.68704E+01  2.037E-01  2.000E+01  2.000E+04 -1.303E-01
   1   15   24     3     3    2.4276E+05 -1.8080E+03   2.4457E+05  0.000E+00  0.000E+00  0.000E+00  3.59826E+01  2.048E-01  2.000E+01  2.000E+04 -9.040E-02
   1   15   25     3     4    2.4457E+05 -1.7176E+03   2.4629E+05  0.000E+00  0.000E+00  0.000E+00  3.50946E+01  2.057E-01  2.000E+01  2.000E+04 -8.588E-02
   1   15   26     3     5    2.4629E+05 -2.0782E+03   2.4837E+05  0.000E+00  0.000E+00  0.000E+00  3.42067E+01  2.067E-01  2.000E+01  2.000E+04 -1.039E-01
   1   16   27     3     6    2.4837E+05 -2.9049E+03   2.5127E+05  0.000E+00  0.000E+00  0.000E+00  3.33190E+01  2.079E-01  2.000E+01  2.000E+04 -1.452E-01
   1   17   28     3     7    2.5127E+05 -3.7021E+03   2.5497E+05  0.000E+00  0.000E+00  0.000E+00  3.24318E+01  2.096E-01  2.000E+01  2.000E+04 -1.851E-01
   1   18   29     3     8    2.5497E+05 -5.3716E+03   2.6035E+05  0.000E+00  0.000E+00  0.000E+00  3.15451E+01  2.118E-01  2.000E+01  2.000E+04 -2.686E-01
   1   18   30     3     9    2.6035E+05 -4.5716E+03   2.6492E+05  0.000E+00  0.000E+00  0.000E+00  3.06587E+01  2.142E-01  2.000E+01  2.000E+04 -2.286E-01



1
              HEAD IN LAYER   1 AT END OF TIME STEP   1 IN STRESS PERIOD    7
  ---------------------------------------------------------------------------

          1      2      3      4      5      6      7      8      9     10
         11     12     13     14     15     16     17     18     19     20
         21     22     23     24     25     26     27     28     29     30
 .........................................................................
   1  ****** ****** ****** ****** ****** ****** ****** ****** ****** ******
      ****** ****** ****** ****** ****** ****** ****** ****** ****** ******
      ****** ****** ****** ****** ****** ****** ****** ****** ****** ******
   2  ****** ****** ****** ****** ****** ****** ****** ****** ****** ******
      ****** ****** ****** ****** ****** ****** ****** ****** ****** ******
      ****** ****** ****** ****** ****** ****** ****** ****** ****** ******
   3  ****** ****** ****** ****** ****** ****** ****** ****** ****** ******
      ****** ****** ****** ****** ****** ****** ****** ****** ****** ******
      ****** ****** ****** ****** ****** ****** ****** ****** ****** ******
   4  ****** ****** ****** ****** ****** ****** ****** ****** ****** ******
      ****** ****** ****** ****** ****** ****** ****** ****** ****** ******
      ****** ****** ****** ****** ****** ****** ****** ****** ****** ******
   5  ****** ****** ****** ****** ****** ****** ****** ****** ****** ******
      ****** ****** ****** ****** ****** ****** ****** ****** ****** ******
      ****** ****** ****** ****** ****** ****** ****** ****** ****** ******
   6  ****** ****** ****** ****** ****** ****** ****** ****** ****** ******
      ****** ****** ****** ****** ****** ****** ****** ****** ****** ******
      ****** ****** ****** ****** ****** ****** ****** ****** ****** ******
   7  ****** ****** ****** ****** ****** ****** ****** ****** ****** ******
      ****** ****** ****** ****** ****** ****** ****** ****** ****** ******
      ****** ****** ****** ****** ****** ****** ****** ****** ****** ******
   8  ****** ****** ****** ****** ****** ****** ****** ****** ****** ******
      ****** ****** ****** ****** ****** ****** ****** ****** ****** ******
      ****** ****** ****** ****** ****** ****** ****** ****** ****** ******
   9  ****** ****** ****** ****** ****** ****** ****** ****** ****** ******
      ****** ****** ****** ****** ****** ****** ****** ****** ****** ******
      ****** ****** ****** ****** ****** ****** ****** ****** ****** ******
  10  ****** ****** ****** ****** ****** ****** ****** ****** ****** ******
      ****** ****** ****** ****** ****** ****** ****** ****** ****** ******
      ****** ****** ****** ****** ****** ****** ****** ****** ****** ******
  11  ****** ****** ****** ****** ****** ****** ****** ****** ****** ******
      ****** ****** ****** ****** ****** ****** ****** ****** ****** ******
      ****** ****** ****** ****** ****** ****** ****** ****** ****** ******
  12  ****** ****** ****** ****** ****** ****** ****** ****** ****** ******
      ****** ****** ****** ****** ****** ****** ****** ****** ****** ******
      ****** ****** ****** ****** ****** ****** ****** ****** ****** ******
  13  ****** ****** ****** ****** ****** ****** ****** ****** ****** ******
      ****** ****** ****** ****** ****** ****** ****** ****** ****** ******
      ****** ****** ****** ****** ****** ****** ****** ****** ****** ******
  14  ****** ****** ****** ****** ****** ****** ****** ****** ****** ******
      ****** ****** ****** ****** ****** ****** ****** ****** ****** ******
      ****** ****** ****** ****** ****** ****** ****** ****** ****** ******
  15  ****** ****** ****** ****** ****** ****** ****** ****** ****** ******
      ****** ****** ****** ****** ****** ****** ****** ****** ****** ******
      ****** ****** ****** ****** ****** ****** ****** ****** ****** ******
  16  ****** ****** ****** ****** ****** ****** ****** ****** ****** ******
      ****** ****** ****** ****** ****** ****** ****** ****** ****** ******
      ****** ****** ****** ****** ****** ****** ****** ****** ****** ******
  17  ****** ****** ****** ****** ****** ****** ****** ****** ****** ******
      ****** ****** ****** ****** ****** ****** ****** ****** ****** ******
      ****** ****** ****** ****** ****** ****** ****** ****** ****** ******
  18  ****** ****** ****** ****** ****** ****** ****** ****** ****** ******
      ****** ****** ****** ****** ****** ****** ****** ****** ****** ******
      ****** ****** ****** ****** ****** ****** ****** ****** ****** ******
  19  ****** ****** ****** ****** ****** ****** ****** ****** ****** ******
      ****** ****** ****** ****** ****** ****** ****** ****** ****** ******
      ****** ****** ****** ****** ****** ****** ****** ****** ****** ******
  20  ****** ****** ****** ****** ****** ****** ****** ****** ****** ******
      ****** ****** ****** ****** ****** ****** ****** ****** ****** ******
      ****** ****** ****** ****** ****** ****** ****** ****** ****** ******
  21  ****** ****** ****** ****** ****** ****** ****** ****** ****** ******
      ****** ****** ****** ****** ****** ****** ****** ****** ****** ******
      ****** ****** ****** ****** ****** ****** ****** ****** ****** ******
  22  ****** ****** ****** ****** ****** ****** ****** ****** ****** ******
      ****** ****** ****** ****** ****** ****** ****** ****** ****** ******
      ****** ****** ****** ****** ****** ****** ****** ****** ****** ******
  23  ****** ****** ****** ****** ****** ****** ****** ****** ****** ******
      ****** ****** ****** ****** ****** ****** ****** ****** ****** ******
      ****** ****** ****** ****** ****** ****** ****** ****** ****** ******
  24  ****** ****** ****** ****** ****** ****** ****** ****** ****** ******
      ****** ****** ****** ****** ****** ****** ****** ****** ****** ******
      ****** ****** ****** ****** ****** ****** ****** ****** ****** ******
  25  ****** ****** ****** ****** ****** ****** ****** ****** ****** ******
      ****** ****** ****** ****** ****** ****** ****** ****** ****** ******
      ****** ****** ****** ****** ****** ****** ****** ****** ****** ******

 HEAD WILL BE SAVED ON UNIT   51 AT END OF TIME STEP    1, STRESS PERIOD    7
1
  VOLUMETRIC BUDGET FOR ENTIRE MODEL AT END OF TIME STEP    1, STRESS PERIOD   7
  ------------------------------------------------------------------------------

     CUMULATIVE VOLUMES      L**3       RATES FOR THIS TIME STEP      L**3/T
     ------------------                 ------------------------

           IN:                                      IN:
           ---                                      ---
             STORAGE =    22518649.5275               STORAGE =       10446.6898
       CONSTANT HEAD =    79860474.2937         CONSTANT HEAD =      134938.1203
               WELLS =           0.0000                 WELLS =           0.0000
            RECHARGE =    15097200.0000              RECHARGE =           0.0000
      STREAM LEAKAGE =     4127573.1851        STREAM LEAKAGE =        6863.1632

            TOTAL IN =   121603897.0063              TOTAL IN =      152247.9734

          OUT:                                     OUT:
          ----                                     ----
             STORAGE =      983506.3172               STORAGE =         372.8025
       CONSTANT HEAD =           0.0000         CONSTANT HEAD =           0.0000
               WELLS =    23642096.9879                 WELLS =       30094.0747
            RECHARGE =           0.0000              RECHARGE =           0.0000
      STREAM LEAKAGE =    96978294.4634        STREAM LEAKAGE =      121781.0981

           TOTAL OUT =   121603897.7686             TOTAL OUT =      152247.9753

            IN - OUT =          -0.7623              IN - OUT =      -1.9200E-03

 PERCENT DISCREPANCY =          -0.00     PERCENT DISCREPANCY =          -0.00






         TIME SUMMARY AT END OF TIME STEP    1 IN STRESS PERIOD    7
                    SECONDS     MINUTES      HOURS       DAYS        YEARS
                    -----------------------------------------------------------
   TIME STEP LENGTH 7.86240E+06 1.31040E+05  2184.0      91.000     0.24914    
 STRESS PERIOD TIME 7.86240E+06 1.31040E+05  2184.0      91.000     0.24914    
         TOTAL TIME 5.52096E+07 9.20160E+05  15336.      639.00      1.7495    
1
1
                            STRESS PERIOD NO.    8, LENGTH =   91.00000    
                            -----------------------------------------------

                              NUMBER OF TIME STEPS =     1

                               MULTIPLIER FOR DELT =     1.500

                            INITIAL TIME STEP SIZE =   91.00000    

 WELL NO.  LAYER   ROW   COL   STRESS RATE         
 --------------------------------------------------
      1      1     23     10     -0.1039E+05
      2      1     17      3      -9136.    
      3      1     23     22     -0.1057E+05

      3 WELLS

                 RECHARGE =  1.000000E-03

 REUSING STREAM SEGMENT DATA FROM LAST STRESS PERIOD
 
 SOLVING FOR HEAD 


     6 CALLS TO PCG ROUTINE FOR TIME STEP   1 IN STRESS PERIOD    8
    23 TOTAL ITERATIONS

 OUTPUT CONTROL FOR STRESS PERIOD    8   TIME STEP    1
    SAVE BUDGET
    SAVE HEAD FOR ALL LAYERS
    PRINT HEAD FOR ALL LAYERS
 UBDSV2 SAVING "STREAMFLOW OUT  " ON UNIT  50 AT TIME STEP  1, STRESS PERIOD   8



 STREAM LISTING     PERIOD      8   STEP        1

 LAYER ROW COL. STREAM  RCH.  FLOW INTO     FLOW TO   FLOW OUT OF   OVRLND.     DIRECT     STREAM       STREAM     STREAM     STREAM   STREAMBED  STREAMBED
                SEG.NO.  NO.  STRM. RCH.    AQUIFER    STRM. RCH.    RUNOFF     PRECIP       ET          HEAD       DEPTH      WIDTH   CONDCTNC.   GRADIENT

   1   13    1     1     1    1.0000E+05 -2.3316E+03   1.0233E+05  0.000E+00  0.000E+00  0.000E+00  4.84070E+01  1.457E-01  2.000E+01  2.000E+04 -1.166E-01
   1   13    2     1     2    1.0233E+05 -4.3615E+03   1.0669E+05  0.000E+00  0.000E+00  0.000E+00  4.79326E+01  1.485E-01  2.000E+01  2.000E+04 -2.181E-01
   1   14    3     1     3    1.0669E+05 -2.6253E+03   1.0932E+05  0.000E+00  0.000E+00  0.000E+00  4.74583E+01  1.515E-01  2.000E+01  2.000E+04 -1.313E-01
   1   15    4     1     4    1.0932E+05 -1.8412E+03   1.1116E+05  0.000E+00  0.000E+00  0.000E+00  4.69829E+01  1.534E-01  2.000E+01  2.000E+04 -9.206E-02
   1   16    5     1     5    1.1116E+05 -1.9691E+03   1.1313E+05  0.000E+00  0.000E+00  0.000E+00  4.65072E+01  1.549E-01  2.000E+01  2.000E+04 -9.846E-02
   1   16    6     1     6    1.1313E+05 -2.5823E+03   1.1571E+05  0.000E+00  0.000E+00  0.000E+00  4.60318E+01  1.568E-01  2.000E+01  2.000E+04 -1.291E-01
   1   16    7     1     7    1.1571E+05 -2.8715E+03   1.1858E+05  0.000E+00  0.000E+00  0.000E+00  4.55568E+01  1.591E-01  2.000E+01  2.000E+04 -1.436E-01
   1   16    8     1     8    1.1858E+05 -3.0020E+03   1.2158E+05  0.000E+00  0.000E+00  0.000E+00  4.50819E+01  1.614E-01  2.000E+01  2.000E+04 -1.501E-01
   1   16    9     1     9    1.2158E+05 -3.0477E+03   1.2463E+05  0.000E+00  0.000E+00  0.000E+00  4.46071E+01  1.639E-01  2.000E+01  2.000E+04 -1.524E-01
   1   16   10     1    10    1.2463E+05 -3.0426E+03   1.2767E+05  0.000E+00  0.000E+00  0.000E+00  4.41322E+01  1.663E-01  2.000E+01  2.000E+04 -1.521E-01
   1   16   11     1    11    1.2767E+05 -3.0232E+03   1.3070E+05  0.000E+00  0.000E+00  0.000E+00  4.36573E+01  1.687E-01  2.000E+01  2.000E+04 -1.512E-01
   1   16   12     1    12    1.3070E+05 -4.0057E+03   1.3470E+05  0.000E+00  0.000E+00  0.000E+00  4.31828E+01  1.714E-01  2.000E+01  2.000E+04 -2.003E-01
   1   15   13     1    13    1.3470E+05 -3.8709E+03   1.3857E+05  0.000E+00  0.000E+00  0.000E+00  4.27085E+01  1.744E-01  2.000E+01  2.000E+04 -1.935E-01
   1   14   14     1    14    1.3857E+05 -3.9948E+03   1.4257E+05  0.000E+00  0.000E+00  0.000E+00  4.22343E+01  1.774E-01  2.000E+01  2.000E+04 -1.997E-01
   1   13   15     1    15    1.4257E+05 -4.3139E+03   1.4688E+05  0.000E+00  0.000E+00  0.000E+00  4.17601E+01  1.806E-01  2.000E+01  2.000E+04 -2.157E-01
   1   12   16     1    16    1.4688E+05 -5.4939E+03   1.5238E+05  0.000E+00  0.000E+00  0.000E+00  4.12865E+01  1.842E-01  2.000E+01  2.000E+04 -2.747E-01
   1   12   17     1    17    1.5238E+05 -3.6291E+03   1.5601E+05  0.000E+00  0.000E+00  0.000E+00  4.08126E+01  1.876E-01  2.000E+01  2.000E+04 -1.815E-01
   1   12   18     1    18    1.5601E+05 -3.4958E+03   1.5950E+05  0.000E+00  0.000E+00  0.000E+00  4.03379E+01  1.902E-01  2.000E+01  2.000E+04 -1.748E-01
   1   12   19     1    19    1.5950E+05 -4.5616E+03   1.6406E+05  0.000E+00  0.000E+00  0.000E+00  3.98635E+01  1.931E-01  2.000E+01  2.000E+04 -2.281E-01
   1   13   20     1    20    1.6406E+05 -3.0398E+03   1.6710E+05  0.000E+00  0.000E+00  0.000E+00  3.93889E+01  1.958E-01  2.000E+01  2.000E+04 -1.520E-01
   1   14   21     1    21    1.6710E+05 -2.2445E+03   1.6935E+05  0.000E+00  0.000E+00  0.000E+00  3.89135E+01  1.976E-01  2.000E+01  2.000E+04 -1.122E-01
   1   14   22     1    22    1.6935E+05  5.0015E+03   1.6435E+05  0.000E+00  0.000E+00  0.000E+00  3.84353E+01  1.967E-01  2.000E+01  2.000E+04  2.501E-01
   1    9   30     2     1    5.0000E+04 -2.7820E+03   5.2782E+04  0.000E+00  0.000E+00  0.000E+00  4.02428E+01  1.178E-01  2.000E+01  2.000E+04 -1.391E-01
   1    9   29     2     2    5.2782E+04 -3.1138E+03   5.5896E+04  0.000E+00  0.000E+00  0.000E+00  3.99968E+01  1.218E-01  2.000E+01  2.000E+04 -1.557E-01
   1    9   28     2     3    5.5896E+04 -3.4942E+03   5.9390E+04  0.000E+00  0.000E+00  0.000E+00  3.97512E+01  1.262E-01  2.000E+01  2.000E+04 -1.747E-01
   1    9   27     2     4    5.9390E+04 -6.2214E+03   6.5611E+04  0.000E+00  0.000E+00  0.000E+00  3.95075E+01  1.325E-01  2.000E+01  2.000E+04 -3.111E-01
   1   10   26     2     5    6.5611E+04 -3.8552E+03   6.9467E+04  0.000E+00  0.000E+00  0.000E+00  3.92638E+01  1.388E-01  2.000E+01  2.000E+04 -1.928E-01
   1   11   25     2     6    6.9467E+04 -2.8126E+03   7.2279E+04  0.000E+00  0.000E+00  0.000E+00  3.90178E+01  1.428E-01  2.000E+01  2.000E+04 -1.406E-01
   1   12   24     2     7    7.2279E+04 -1.9702E+03   7.4249E+04  0.000E+00  0.000E+00  0.000E+00  3.87707E+01  1.457E-01  2.000E+01  2.000E+04 -9.851E-02
   1   13   23     2     8    7.4249E+04 -1.1566E+03   7.5406E+04  0.000E+00  0.000E+00  0.000E+00  3.85226E+01  1.476E-01  2.000E+01  2.000E+04 -5.783E-02
   1   14   22     2     9    7.5406E+04  1.7401E+03   7.3666E+04  0.000E+00  0.000E+00  0.000E+00  3.82722E+01  1.472E-01  2.000E+01  2.000E+04  8.701E-02
   1   14   22     3     1    2.3801E+05 -8.5110E+03   2.4652E+05  0.000E+00  0.000E+00  0.000E+00  3.77597E+01  2.041E-01  2.000E+01  2.000E+04 -4.255E-01
   1   15   23     3     2    2.4652E+05 -2.8330E+03   2.4936E+05  0.000E+00  0.000E+00  0.000E+00  3.68736E+01  2.070E-01  2.000E+01  2.000E+04 -1.417E-01
   1   15   24     3     3    2.4936E+05 -1.9770E+03   2.5133E+05  0.000E+00  0.000E+00  0.000E+00  3.59860E+01  2.082E-01  2.000E+01  2.000E+04 -9.885E-02
   1   15   25     3     4    2.5133E+05 -1.8857E+03   2.5322E+05  0.000E+00  0.000E+00  0.000E+00  3.50980E+01  2.091E-01  2.000E+01  2.000E+04 -9.428E-02
   1   15   26     3     5    2.5322E+05 -2.2856E+03   2.5550E+05  0.000E+00  0.000E+00  0.000E+00  3.42102E+01  2.102E-01  2.000E+01  2.000E+04 -1.143E-01
   1   16   27     3     6    2.5550E+05 -3.1655E+03   2.5867E+05  0.000E+00  0.000E+00  0.000E+00  3.33226E+01  2.115E-01  2.000E+01  2.000E+04 -1.583E-01
   1   17   28     3     7    2.5867E+05 -3.9686E+03   2.6264E+05  0.000E+00  0.000E+00  0.000E+00  3.24355E+01  2.133E-01  2.000E+01  2.000E+04 -1.984E-01
   1   18   29     3     8    2.6264E+05 -5.6215E+03   2.6826E+05  0.000E+00  0.000E+00  0.000E+00  3.15490E+01  2.156E-01  2.000E+01  2.000E+04 -2.811E-01
   1   18   30     3     9    2.6826E+05 -4.7580E+03   2.7302E+05  0.000E+00  0.000E+00  0.000E+00  3.06626E+01  2.181E-01  2.000E+01  2.000E+04 -2.379E-01



1
              HEAD IN LAYER   1 AT END OF TIME STEP   1 IN STRESS PERIOD    8
  ---------------------------------------------------------------------------

          1      2      3      4      5      6      7      8      9     10
         11     12     13     14     15     16     17     18     19     20
         21     22     23     24     25     26     27     28     29     30
 .........................................................................
   1  ****** ****** ****** ****** ****** ****** ****** ****** ****** ******
      ****** ****** ****** ****** ****** ****** ****** ****** ****** ******
      ****** ****** ****** ****** ****** ****** ****** ****** ****** ******
   2  ****** ****** ****** ****** ****** ****** ****** ****** ****** ******
      ****** ****** ****** ****** ****** ****** ****** ****** ****** ******
      ****** ****** ****** ****** ****** ****** ****** ****** ****** ******
   3  ****** ****** ****** ****** ****** ****** ****** ****** ****** ******
      ****** ****** ****** ****** ****** ****** ****** ****** ****** ******
      ****** ****** ****** ****** ****** ****** ****** ****** ****** ******
   4  ****** ****** ****** ****** ****** ****** ****** ****** ****** ******
      ****** ****** ****** ****** ****** ****** ****** ****** ****** ******
      ****** ****** ****** ****** ****** ****** ****** ****** ****** ******
   5  ****** ****** ****** ****** ****** ****** ****** ****** ****** ******
      ****** ****** ****** ****** ****** ****** ****** ****** ****** ******
      ****** ****** ****** ****** ****** ****** ****** ****** ****** ******
   6  ****** ****** ****** ****** ****** ****** ****** ****** ****** ******
      ****** ****** ****** ****** ****** ****** ****** ****** ****** ******
      ****** ****** ****** ****** ****** ****** ****** ****** ****** ******
   7  ****** ****** ****** ****** ****** ****** ****** ****** ****** ******
      ****** ****** ****** ****** ****** ****** ****** ****** ****** ******
      ****** ****** ****** ****** ****** ****** ****** ****** ****** ******
   8  ****** ****** ****** ****** ****** ****** ****** ****** ****** ******
      ****** ****** ****** ****** ****** ****** ****** ****** ****** ******
      ****** ****** ****** ****** ****** ****** ****** ****** ****** ******
   9  ****** ****** ****** ****** ****** ****** ****** ****** ****** ******
      ****** ****** ****** ****** ****** ****** ****** ****** ****** ******
      ****** ****** ****** ****** ****** ****** ****** ****** ****** ******
  10  ****** ****** ****** ****** ****** ****** ****** ****** ****** ******
      ****** ****** ****** ****** ****** ****** ****** ****** ****** ******
      ****** ****** ****** ****** ****** ****** ****** ****** ****** ******
  11  ****** ****** ****** ****** ****** ****** ****** ****** ****** ******
      ****** ****** ****** ****** ****** ****** ****** ****** ****** ******
      ****** ****** ****** ****** ****** ****** ****** ****** ****** ******
  12  ****** ****** ****** ****** ****** ****** ****** ****** ****** ******
      ****** ****** ****** ****** ****** ****** ****** ****** ****** ******
      ****** ****** ****** ****** ****** ****** ****** ****** ****** ******
  13  ****** ****** ****** ****** ****** ****** ****** ****** ****** ******
      ****** ****** ****** ****** ****** ****** ****** ****** ****** ******
      ****** ****** ****** ****** ****** ****** ****** ****** ****** ******
  14  ****** ****** ****** ****** ****** ****** ****** ****** ****** ******
      ****** ****** ****** ****** ****** ****** ****** ****** ****** ******
      ****** ****** ****** ****** ****** ****** ****** ****** ****** ******
  15  ****** ****** ****** ****** ****** ****** ****** ****** ****** ******
      ****** ****** ****** ****** ****** ****** ****** ****** ****** ******
      ****** ****** ****** ****** ****** ****** ****** ****** ****** ******
  16  ****** ****** ****** ****** ****** ****** ****** ****** ****** ******
      ****** ****** ****** ****** ****** ****** ****** ****** ****** ******
      ****** ****** ****** ****** ****** ****** ****** ****** ****** ******
  17  ****** ****** ****** ****** ****** ****** ****** ****** ****** ******
      ****** ****** ****** ****** ****** ****** ****** ****** ****** ******
      ****** ****** ****** ****** ****** ****** ****** ****** ****** ******
  18  ****** ****** ****** ****** ****** ****** ****** ****** ****** ******
      ****** ****** ****** ****** ****** ****** ****** ****** ****** ******
      ****** ****** ****** ****** ****** ****** ****** ****** ****** ******
  19  ****** ****** ****** ****** ****** ****** ****** ****** ****** ******
      ****** ****** ****** ****** ****** ****** ****** ****** ****** ******
      ****** ****** ****** ****** ****** ****** ****** ****** ****** ******
  20  ****** ****** ****** ****** ****** ****** ****** ****** ****** ******
      ****** ****** ****** ****** ****** ****** ****** ****** ****** ******
      ****** ****** ****** ****** ****** ****** ****** ****** ****** ******
  21  ****** ****** ****** ****** ****** ****** ****** ****** ****** ******
      ****** ****** ****** ****** ****** ****** ****** ****** ****** ******
      ****** ****** ****** ****** ****** ****** ****** ****** ****** ******
  22  ****** ****** ****** ****** ****** ****** ****** ****** ****** ******
      ****** ****** ****** ****** ****** ****** ****** ****** ****** ******
      ****** ****** ****** ****** ****** ****** ****** ****** ****** ******
  23  ****** ****** ****** ****** ****** ****** ****** ****** ****** ******
      ****** ****** ****** ****** ****** ****** ****** ****** ****** ******
      ****** ****** ****** ****** ****** ****** ****** ****** ****** ******
  24  ****** ****** ****** ****** ****** ****** ****** ****** ****** ******
      ****** ****** ****** ****** ****** ****** ****** ****** ****** ******
      ****** ****** ****** ****** ****** ****** ****** ****** ****** ******
  25  ****** ****** ****** ****** ****** ****** ****** ****** ****** ******
      ****** ****** ****** ****** ****** ****** ****** ****** ****** ******
      ****** ****** ****** ****** ****** ****** ****** ****** ****** ******

 HEAD WILL BE SAVED ON UNIT   51 AT END OF TIME STEP    1, STRESS PERIOD    8
1
  VOLUMETRIC BUDGET FOR ENTIRE MODEL AT END OF TIME STEP    1, STRESS PERIOD   8
  ------------------------------------------------------------------------------

     CUMULATIVE VOLUMES      L**3       RATES FOR THIS TIME STEP      L**3/T
     ------------------                 ------------------------

           IN:                                      IN:
           ---                                      ---
             STORAGE =    22518649.5275               STORAGE =           0.0000
       CONSTANT HEAD =    91666671.8916         CONSTANT HEAD =      129738.4351
               WELLS =           0.0000                 WELLS =           0.0000
            RECHARGE =    17608800.0000              RECHARGE =       27600.0000
      STREAM LEAKAGE =     4741063.5324        STREAM LEAKAGE =        6741.6522

            TOTAL IN =   136535184.9515              TOTAL IN =      164080.0873

          OUT:                                     OUT:
          ----                                     ----
             STORAGE =     1368108.6905               STORAGE =        4226.3997
       CONSTANT HEAD =           0.0000         CONSTANT HEAD =           0.0000
               WELLS =    26380657.7840                 WELLS =       30094.0747
            RECHARGE =           0.0000              RECHARGE =           0.0000
      STREAM LEAKAGE =   108786419.1571        STREAM LEAKAGE =      129759.6120

           TOTAL OUT =   136535185.6315             TOTAL OUT =      164080.0864

            IN - OUT =          -0.6800              IN - OUT =       9.0410E-04

 PERCENT DISCREPANCY =          -0.00     PERCENT DISCREPANCY =           0.00






         TIME SUMMARY AT END OF TIME STEP    1 IN STRESS PERIOD    8
                    SECONDS     MINUTES      HOURS       DAYS        YEARS
                    -----------------------------------------------------------
   TIME STEP LENGTH 7.86240E+06 1.31040E+05  2184.0      91.000     0.24914    
 STRESS PERIOD TIME 7.86240E+06 1.31040E+05  2184.0      91.000     0.24914    
         TOTAL TIME 6.30720E+07 1.05120E+06  17520.      730.00      1.9986    
1
1
                            STRESS PERIOD NO.    9, LENGTH =   92.00000    
                            -----------------------------------------------

                              NUMBER OF TIME STEPS =     1

                               MULTIPLIER FOR DELT =     1.500

                            INITIAL TIME STEP SIZE =   92.00000    

 WELL NO.  LAYER   ROW   COL   STRESS RATE         
 --------------------------------------------------
      1      1     23     10     -0.1039E+05
      2      1     17      3      -9136.    
      3      1     23     22     -0.1057E+05

      3 WELLS

                 RECHARGE =  5.000000E-04

 REUSING STREAM SEGMENT DATA FROM LAST STRESS PERIOD
 
 SOLVING FOR HEAD 


     6 CALLS TO PCG ROUTINE FOR TIME STEP   1 IN STRESS PERIOD    9
    22 TOTAL ITERATIONS

 OUTPUT CONTROL FOR STRESS PERIOD    9   TIME STEP    1
    SAVE BUDGET
    SAVE HEAD FOR ALL LAYERS
    PRINT HEAD FOR ALL LAYERS
 UBDSV2 SAVING "STREAMFLOW OUT  " ON UNIT  50 AT TIME STEP  1, STRESS PERIOD   9



 STREAM LISTING     PERIOD      9   STEP        1

 LAYER ROW COL. STREAM  RCH.  FLOW INTO     FLOW TO   FLOW OUT OF   OVRLND.     DIRECT     STREAM       STREAM     STREAM     STREAM   STREAMBED  STREAMBED
                SEG.NO.  NO.  STRM. RCH.    AQUIFER    STRM. RCH.    RUNOFF     PRECIP       ET          HEAD       DEPTH      WIDTH   CONDCTNC.   GRADIENT

   1   13    1     1     1    1.0000E+05 -2.2194E+03   1.0222E+05  0.000E+00  0.000E+00  0.000E+00  4.84070E+01  1.456E-01  2.000E+01  2.000E+04 -1.110E-01
   1   13    2     1     2    1.0222E+05 -4.2120E+03   1.0643E+05  0.000E+00  0.000E+00  0.000E+00  4.79325E+01  1.484E-01  2.000E+01  2.000E+04 -2.106E-01
   1   14    3     1     3    1.0643E+05 -2.4770E+03   1.0891E+05  0.000E+00  0.000E+00  0.000E+00  4.74580E+01  1.512E-01  2.000E+01  2.000E+04 -1.238E-01
   1   15    4     1     4    1.0891E+05 -1.6972E+03   1.1061E+05  0.000E+00  0.000E+00  0.000E+00  4.69825E+01  1.530E-01  2.000E+01  2.000E+04 -8.486E-02
   1   16    5     1     5    1.1061E+05 -1.8420E+03   1.1245E+05  0.000E+00  0.000E+00  0.000E+00  4.65067E+01  1.544E-01  2.000E+01  2.000E+04 -9.210E-02
   1   16    6     1     6    1.1245E+05 -2.4772E+03   1.1492E+05  0.000E+00  0.000E+00  0.000E+00  4.60312E+01  1.562E-01  2.000E+01  2.000E+04 -1.239E-01
   1   16    7     1     7    1.1492E+05 -2.7638E+03   1.1769E+05  0.000E+00  0.000E+00  0.000E+00  4.55561E+01  1.584E-01  2.000E+01  2.000E+04 -1.382E-01
   1   16    8     1     8    1.1769E+05 -2.8930E+03   1.2058E+05  0.000E+00  0.000E+00  0.000E+00  4.50811E+01  1.607E-01  2.000E+01  2.000E+04 -1.447E-01
   1   16    9     1     9    1.2058E+05 -2.9388E+03   1.2352E+05  0.000E+00  0.000E+00  0.000E+00  4.46062E+01  1.630E-01  2.000E+01  2.000E+04 -1.469E-01
   1   16   10     1    10    1.2352E+05 -2.9350E+03   1.2646E+05  0.000E+00  0.000E+00  0.000E+00  4.41313E+01  1.654E-01  2.000E+01  2.000E+04 -1.467E-01
   1   16   11     1    11    1.2646E+05 -2.9180E+03   1.2937E+05  0.000E+00  0.000E+00  0.000E+00  4.36563E+01  1.677E-01  2.000E+01  2.000E+04 -1.459E-01
   1   16   12     1    12    1.2937E+05 -3.8764E+03   1.3325E+05  0.000E+00  0.000E+00  0.000E+00  4.31817E+01  1.703E-01  2.000E+01  2.000E+04 -1.938E-01
   1   15   13     1    13    1.3325E+05 -3.7249E+03   1.3697E+05  0.000E+00  0.000E+00  0.000E+00  4.27074E+01  1.733E-01  2.000E+01  2.000E+04 -1.862E-01
   1   14   14     1    14    1.3697E+05 -3.8445E+03   1.4082E+05  0.000E+00  0.000E+00  0.000E+00  4.22330E+01  1.762E-01  2.000E+01  2.000E+04 -1.922E-01
   1   13   15     1    15    1.4082E+05 -4.1641E+03   1.4498E+05  0.000E+00  0.000E+00  0.000E+00  4.17587E+01  1.792E-01  2.000E+01  2.000E+04 -2.082E-01
   1   12   16     1    16    1.4498E+05 -5.3486E+03   1.5033E+05  0.000E+00  0.000E+00  0.000E+00  4.12850E+01  1.828E-01  2.000E+01  2.000E+04 -2.674E-01
   1   12   17     1    17    1.5033E+05 -3.5219E+03   1.5385E+05  0.000E+00  0.000E+00  0.000E+00  4.08110E+01  1.860E-01  2.000E+01  2.000E+04 -1.761E-01
   1   12   18     1    18    1.5385E+05 -3.3907E+03   1.5724E+05  0.000E+00  0.000E+00  0.000E+00  4.03363E+01  1.886E-01  2.000E+01  2.000E+04 -1.695E-01
   1   12   19     1    19    1.5724E+05 -4.4328E+03   1.6168E+05  0.000E+00  0.000E+00  0.000E+00  3.98618E+01  1.914E-01  2.000E+01  2.000E+04 -2.216E-01
   1   13   20     1    20    1.6168E+05 -2.9171E+03   1.6459E+05  0.000E+00  0.000E+00  0.000E+00  3.93872E+01  1.940E-01  2.000E+01  2.000E+04 -1.459E-01
   1   14   21     1    21    1.6459E+05 -2.1388E+03   1.6673E+05  0.000E+00  0.000E+00  0.000E+00  3.89117E+01  1.958E-01  2.000E+01  2.000E+04 -1.069E-01
   1   14   22     1    22    1.6673E+05  5.0233E+03   1.6171E+05  0.000E+00  0.000E+00  0.000E+00  3.84334E+01  1.948E-01  2.000E+01  2.000E+04  2.512E-01
   1    9   30     2     1    5.0000E+04 -2.6824E+03   5.2682E+04  0.000E+00  0.000E+00  0.000E+00  4.02427E+01  1.177E-01  2.000E+01  2.000E+04 -1.341E-01
   1    9   29     2     2    5.2682E+04 -3.0149E+03   5.5697E+04  0.000E+00  0.000E+00  0.000E+00  3.99966E+01  1.216E-01  2.000E+01  2.000E+04 -1.507E-01
   1    9   28     2     3    5.5697E+04 -3.3959E+03   5.9093E+04  0.000E+00  0.000E+00  0.000E+00  3.97509E+01  1.259E-01  2.000E+01  2.000E+04 -1.698E-01
   1    9   27     2     4    5.9093E+04 -6.0921E+03   6.5185E+04  0.000E+00  0.000E+00  0.000E+00  3.95070E+01  1.320E-01  2.000E+01  2.000E+04 -3.046E-01
   1   10   26     2     5    6.5185E+04 -3.7194E+03   6.8905E+04  0.000E+00  0.000E+00  0.000E+00  3.92632E+01  1.382E-01  2.000E+01  2.000E+04 -1.860E-01
   1   11   25     2     6    6.8905E+04 -2.6814E+03   7.1586E+04  0.000E+00  0.000E+00  0.000E+00  3.90171E+01  1.421E-01  2.000E+01  2.000E+04 -1.341E-01
   1   12   24     2     7    7.1586E+04 -1.8523E+03   7.3439E+04  0.000E+00  0.000E+00  0.000E+00  3.87698E+01  1.448E-01  2.000E+01  2.000E+04 -9.261E-02
   1   13   23     2     8    7.3439E+04 -1.0627E+03   7.4501E+04  0.000E+00  0.000E+00  0.000E+00  3.85216E+01  1.466E-01  2.000E+01  2.000E+04 -5.313E-02
   1   14   22     2     9    7.4501E+04  1.7773E+03   7.2724E+04  0.000E+00  0.000E+00  0.000E+00  3.82711E+01  1.461E-01  2.000E+01  2.000E+04  8.887E-02
   1   14   22     3     1    2.3443E+05 -8.4883E+03   2.4292E+05  0.000E+00  0.000E+00  0.000E+00  3.77579E+01  2.023E-01  2.000E+01  2.000E+04 -4.244E-01
   1   15   23     3     2    2.4292E+05 -2.7386E+03   2.4566E+05  0.000E+00  0.000E+00  0.000E+00  3.68718E+01  2.051E-01  2.000E+01  2.000E+04 -1.369E-01
   1   15   24     3     3    2.4566E+05 -1.9038E+03   2.4756E+05  0.000E+00  0.000E+00  0.000E+00  3.59841E+01  2.063E-01  2.000E+01  2.000E+04 -9.519E-02
   1   15   25     3     4    2.4756E+05 -1.8097E+03   2.4937E+05  0.000E+00  0.000E+00  0.000E+00  3.50961E+01  2.072E-01  2.000E+01  2.000E+04 -9.049E-02
   1   15   26     3     5    2.4937E+05 -2.1844E+03   2.5156E+05  0.000E+00  0.000E+00  0.000E+00  3.42082E+01  2.082E-01  2.000E+01  2.000E+04 -1.092E-01
   1   16   27     3     6    2.5156E+05 -3.0444E+03   2.5460E+05  0.000E+00  0.000E+00  0.000E+00  3.33206E+01  2.095E-01  2.000E+01  2.000E+04 -1.522E-01
   1   17   28     3     7    2.5460E+05 -3.8466E+03   2.5845E+05  0.000E+00  0.000E+00  0.000E+00  3.24335E+01  2.112E-01  2.000E+01  2.000E+04 -1.923E-01
   1   18   29     3     8    2.5845E+05 -5.5104E+03   2.6396E+05  0.000E+00  0.000E+00  0.000E+00  3.15469E+01  2.135E-01  2.000E+01  2.000E+04 -2.755E-01
   1   18   30     3     9    2.6396E+05 -4.6696E+03   2.6863E+05  0.000E+00  0.000E+00  0.000E+00  3.06605E+01  2.160E-01  2.000E+01  2.000E+04 -2.335E-01



1
              HEAD IN LAYER   1 AT END OF TIME STEP   1 IN STRESS PERIOD    9
  ---------------------------------------------------------------------------

          1      2      3      4      5      6      7      8      9     10
         11     12     13     14     15     16     17     18     19     20
         21     22     23     24     25     26     27     28     29     30
 .........................................................................
   1  ****** ****** ****** ****** ****** ****** ****** ****** ****** ******
      ****** ****** ****** ****** ****** ****** ****** ****** ****** ******
      ****** ****** ****** ****** ****** ****** ****** ****** ****** ******
   2  ****** ****** ****** ****** ****** ****** ****** ****** ****** ******
      ****** ****** ****** ****** ****** ****** ****** ****** ****** ******
      ****** ****** ****** ****** ****** ****** ****** ****** ****** ******
   3  ****** ****** ****** ****** ****** ****** ****** ****** ****** ******
      ****** ****** ****** ****** ****** ****** ****** ****** ****** ******
      ****** ****** ****** ****** ****** ****** ****** ****** ****** ******
   4  ****** ****** ****** ****** ****** ****** ****** ****** ****** ******
      ****** ****** ****** ****** ****** ****** ****** ****** ****** ******
      ****** ****** ****** ****** ****** ****** ****** ****** ****** ******
   5  ****** ****** ****** ****** ****** ****** ****** ****** ****** ******
      ****** ****** ****** ****** ****** ****** ****** ****** ****** ******
      ****** ****** ****** ****** ****** ****** ****** ****** ****** ******
   6  ****** ****** ****** ****** ****** ****** ****** ****** ****** ******
      ****** ****** ****** ****** ****** ****** ****** ****** ****** ******
      ****** ****** ****** ****** ****** ****** ****** ****** ****** ******
   7  ****** ****** ****** ****** ****** ****** ****** ****** ****** ******
      ****** ****** ****** ****** ****** ****** ****** ****** ****** ******
      ****** ****** ****** ****** ****** ****** ****** ****** ****** ******
   8  ****** ****** ****** ****** ****** ****** ****** ****** ****** ******
      ****** ****** ****** ****** ****** ****** ****** ****** ****** ******
      ****** ****** ****** ****** ****** ****** ****** ****** ****** ******
   9  ****** ****** ****** ****** ****** ****** ****** ****** ****** ******
      ****** ****** ****** ****** ****** ****** ****** ****** ****** ******
      ****** ****** ****** ****** ****** ****** ****** ****** ****** ******
  10  ****** ****** ****** ****** ****** ****** ****** ****** ****** ******
      ****** ****** ****** ****** ****** ****** ****** ****** ****** ******
      ****** ****** ****** ****** ****** ****** ****** ****** ****** ******
  11  ****** ****** ****** ****** ****** ****** ****** ****** ****** ******
      ****** ****** ****** ****** ****** ****** ****** ****** ****** ******
      ****** ****** ****** ****** ****** ****** ****** ****** ****** ******
  12  ****** ****** ****** ****** ****** ****** ****** ****** ****** ******
      ****** ****** ****** ****** ****** ****** ****** ****** ****** ******
      ****** ****** ****** ****** ****** ****** ****** ****** ****** ******
  13  ****** ****** ****** ****** ****** ****** ****** ****** ****** ******
      ****** ****** ****** ****** ****** ****** ****** ****** ****** ******
      ****** ****** ****** ****** ****** ****** ****** ****** ****** ******
  14  ****** ****** ****** ****** ****** ****** ****** ****** ****** ******
      ****** ****** ****** ****** ****** ****** ****** ****** ****** ******
      ****** ****** ****** ****** ****** ****** ****** ****** ****** ******
  15  ****** ****** ****** ****** ****** ****** ****** ****** ****** ******
      ****** ****** ****** ****** ****** ****** ****** ****** ****** ******
      ****** ****** ****** ****** ****** ****** ****** ****** ****** ******
  16  ****** ****** ****** ****** ****** ****** ****** ****** ****** ******
      ****** ****** ****** ****** ****** ****** ****** ****** ****** ******
      ****** ****** ****** ****** ****** ****** ****** ****** ****** ******
  17  ****** ****** ****** ****** ****** ****** ****** ****** ****** ******
      ****** ****** ****** ****** ****** ****** ****** ****** ****** ******
      ****** ****** ****** ****** ****** ****** ****** ****** ****** ******
  18  ****** ****** ****** ****** ****** ****** ****** ****** ****** ******
      ****** ****** ****** ****** ****** ****** ****** ****** ****** ******
      ****** ****** ****** ****** ****** ****** ****** ****** ****** ******
  19  ****** ****** ****** ****** ****** ****** ****** ****** ****** ******
      ****** ****** ****** ****** ****** ****** ****** ****** ****** ******
      ****** ****** ****** ****** ****** ****** ****** ****** ****** ******
  20  ****** ****** ****** ****** ****** ****** ****** ****** ****** ******
      ****** ****** ****** ****** ****** ****** ****** ****** ****** ******
      ****** ****** ****** ****** ****** ****** ****** ****** ****** ******
  21  ****** ****** ****** ****** ****** ****** ****** ****** ****** ******
      ****** ****** ****** ****** ****** ****** ****** ****** ****** ******
      ****** ****** ****** ****** ****** ****** ****** ****** ****** ******
  22  ****** ****** ****** ****** ****** ****** ****** ****** ****** ******
      ****** ****** ****** ****** ****** ****** ****** ****** ****** ******
      ****** ****** ****** ****** ****** ****** ****** ****** ****** ******
  23  ****** ****** ****** ****** ****** ****** ****** ****** ****** ******
      ****** ****** ****** ****** ****** ****** ****** ****** ****** ******
      ****** ****** ****** ****** ****** ****** ****** ****** ****** ******
  24  ****** ****** ****** ****** ****** ****** ****** ****** ****** ******
      ****** ****** ****** ****** ****** ****** ****** ****** ****** ******
      ****** ****** ****** ****** ****** ****** ****** ****** ****** ******
  25  ****** ****** ****** ****** ****** ****** ****** ****** ****** ******
      ****** ****** ****** ****** ****** ****** ****** ****** ****** ******
      ****** ****** ****** ****** ****** ****** ****** ****** ****** ******

 HEAD WILL BE SAVED ON UNIT   51 AT END OF TIME STEP    1, STRESS PERIOD    9
1
  VOLUMETRIC BUDGET FOR ENTIRE MODEL AT END OF TIME STEP    1, STRESS PERIOD   9
  ------------------------------------------------------------------------------

     CUMULATIVE VOLUMES      L**3       RATES FOR THIS TIME STEP      L**3/T
     ------------------                 ------------------------

           IN:                                      IN:
           ---                                      ---
             STORAGE =    22748684.9562               STORAGE =        2500.3851
       CONSTANT HEAD =   103849616.6550         CONSTANT HEAD =      132423.3126
               WELLS =           0.0000                 WELLS =           0.0000
            RECHARGE =    18878400.0000              RECHARGE =       13800.0000
      STREAM LEAKAGE =     5366724.1569        STREAM LEAKAGE =        6800.6590

            TOTAL IN =   150843425.7681              TOTAL IN =      155524.3567

          OUT:                                     OUT:
          ----                                     ----
             STORAGE =     1368108.6905               STORAGE =           0.0000
       CONSTANT HEAD =           0.0000         CONSTANT HEAD =           0.0000
               WELLS =    29149312.6547                 WELLS =       30094.0747
            RECHARGE =           0.0000              RECHARGE =           0.0000
      STREAM LEAKAGE =   120326005.3722        STREAM LEAKAGE =      125430.2849

           TOTAL OUT =   150843426.7173             TOTAL OUT =      155524.3596

            IN - OUT =          -0.9492              IN - OUT =      -2.9258E-03

 PERCENT DISCREPANCY =          -0.00     PERCENT DISCREPANCY =          -0.00






         TIME SUMMARY AT END OF TIME STEP    1 IN STRESS PERIOD    9
                    SECONDS     MINUTES      HOURS       DAYS        YEARS
                    -----------------------------------------------------------
   TIME STEP LENGTH 7.94880E+06 1.32480E+05  2208.0      92.000     0.25188    
 STRESS PERIOD TIME 7.94880E+06 1.32480E+05  2208.0      92.000     0.25188    
         TOTAL TIME 7.10208E+07 1.18368E+06  19728.      822.00      2.2505    
1
1
                            STRESS PERIOD NO.   10, LENGTH =   91.00000    
                            -----------------------------------------------

                              NUMBER OF TIME STEPS =     1

                               MULTIPLIER FOR DELT =     1.500

                            INITIAL TIME STEP SIZE =   91.00000    

 WELL NO.  LAYER   ROW   COL   STRESS RATE         
 --------------------------------------------------
      1      1     23     10     -0.1039E+05
      2      1     17      3      -9136.    
      3      1     23     22     -0.1057E+05

      3 WELLS

                 RECHARGE =  2.000000E-03

 REUSING STREAM SEGMENT DATA FROM LAST STRESS PERIOD
 
 SOLVING FOR HEAD 


     7 CALLS TO PCG ROUTINE FOR TIME STEP   1 IN STRESS PERIOD   10
    26 TOTAL ITERATIONS

 OUTPUT CONTROL FOR STRESS PERIOD   10   TIME STEP    1
    SAVE BUDGET
    SAVE HEAD FOR ALL LAYERS
    PRINT HEAD FOR ALL LAYERS
 UBDSV2 SAVING "STREAMFLOW OUT  " ON UNIT  50 AT TIME STEP  1, STRESS PERIOD  10



 STREAM LISTING     PERIOD     10   STEP        1

 LAYER ROW COL. STREAM  RCH.  FLOW INTO     FLOW TO   FLOW OUT OF   OVRLND.     DIRECT     STREAM       STREAM     STREAM     STREAM   STREAMBED  STREAMBED
                SEG.NO.  NO.  STRM. RCH.    AQUIFER    STRM. RCH.    RUNOFF     PRECIP       ET          HEAD       DEPTH      WIDTH   CONDCTNC.   GRADIENT

   1   13    1     1     1    1.0000E+05 -2.6434E+03   1.0264E+05  0.000E+00  0.000E+00  0.000E+00  4.84072E+01  1.458E-01  2.000E+01  2.000E+04 -1.322E-01
   1   13    2     1     2    1.0264E+05 -4.7749E+03   1.0742E+05  0.000E+00  0.000E+00  0.000E+00  4.79331E+01  1.490E-01  2.000E+01  2.000E+04 -2.387E-01
   1   14    3     1     3    1.0742E+05 -3.0453E+03   1.1046E+05  0.000E+00  0.000E+00  0.000E+00  4.74591E+01  1.523E-01  2.000E+01  2.000E+04 -1.523E-01
   1   15    4     1     4    1.1046E+05 -2.2590E+03   1.1272E+05  0.000E+00  0.000E+00  0.000E+00  4.69840E+01  1.545E-01  2.000E+01  2.000E+04 -1.130E-01
   1   16    5     1     5    1.1272E+05 -2.3599E+03   1.1508E+05  0.000E+00  0.000E+00  0.000E+00  4.65087E+01  1.564E-01  2.000E+01  2.000E+04 -1.180E-01
   1   16    6     1     6    1.1508E+05 -2.8863E+03   1.1797E+05  0.000E+00  0.000E+00  0.000E+00  4.60336E+01  1.586E-01  2.000E+01  2.000E+04 -1.443E-01
   1   16    7     1     7    1.1797E+05 -3.1794E+03   1.2115E+05  0.000E+00  0.000E+00  0.000E+00  4.55587E+01  1.610E-01  2.000E+01  2.000E+04 -1.590E-01
   1   16    8     1     8    1.2115E+05 -3.3125E+03   1.2446E+05  0.000E+00  0.000E+00  0.000E+00  4.50841E+01  1.636E-01  2.000E+01  2.000E+04 -1.656E-01
   1   16    9     1     9    1.2446E+05 -3.3582E+03   1.2782E+05  0.000E+00  0.000E+00  0.000E+00  4.46095E+01  1.663E-01  2.000E+01  2.000E+04 -1.679E-01
   1   16   10     1    10    1.2782E+05 -3.3505E+03   1.3117E+05  0.000E+00  0.000E+00  0.000E+00  4.41348E+01  1.689E-01  2.000E+01  2.000E+04 -1.675E-01
   1   16   11     1    11    1.3117E+05 -3.3280E+03   1.3450E+05  0.000E+00  0.000E+00  0.000E+00  4.36602E+01  1.715E-01  2.000E+01  2.000E+04 -1.664E-01
   1   16   12     1    12    1.3450E+05 -4.4049E+03   1.3890E+05  0.000E+00  0.000E+00  0.000E+00  4.31859E+01  1.745E-01  2.000E+01  2.000E+04 -2.202E-01
   1   15   13     1    13    1.3890E+05 -4.2999E+03   1.4320E+05  0.000E+00  0.000E+00  0.000E+00  4.27119E+01  1.778E-01  2.000E+01  2.000E+04 -2.150E-01
   1   14   14     1    14    1.4320E+05 -4.4306E+03   1.4763E+05  0.000E+00  0.000E+00  0.000E+00  4.22379E+01  1.811E-01  2.000E+01  2.000E+04 -2.215E-01
   1   13   15     1    15    1.4763E+05 -4.7408E+03   1.5237E+05  0.000E+00  0.000E+00  0.000E+00  4.17640E+01  1.845E-01  2.000E+01  2.000E+04 -2.370E-01
   1   12   16     1    16    1.5237E+05 -5.9018E+03   1.5828E+05  0.000E+00  0.000E+00  0.000E+00  4.12907E+01  1.884E-01  2.000E+01  2.000E+04 -2.951E-01
   1   12   17     1    17    1.5828E+05 -3.9315E+03   1.6221E+05  0.000E+00  0.000E+00  0.000E+00  4.08170E+01  1.920E-01  2.000E+01  2.000E+04 -1.966E-01
   1   12   18     1    18    1.6221E+05 -3.7925E+03   1.6600E+05  0.000E+00  0.000E+00  0.000E+00  4.03424E+01  1.947E-01  2.000E+01  2.000E+04 -1.896E-01
   1   12   19     1    19    1.6600E+05 -4.9214E+03   1.7092E+05  0.000E+00  0.000E+00  0.000E+00  3.98683E+01  1.978E-01  2.000E+01  2.000E+04 -2.461E-01
   1   13   20     1    20    1.7092E+05 -3.3923E+03   1.7431E+05  0.000E+00  0.000E+00  0.000E+00  3.93939E+01  2.007E-01  2.000E+01  2.000E+04 -1.696E-01
   1   14   21     1    21    1.7431E+05 -2.5783E+03   1.7689E+05  0.000E+00  0.000E+00  0.000E+00  3.89187E+01  2.028E-01  2.000E+01  2.000E+04 -1.289E-01
   1   14   22     1    22    1.7689E+05  4.9425E+03   1.7195E+05  0.000E+00  0.000E+00  0.000E+00  3.84406E+01  2.020E-01  2.000E+01  2.000E+04  2.471E-01
   1    9   30     2     1    5.0000E+04 -3.0438E+03   5.3044E+04  0.000E+00  0.000E+00  0.000E+00  4.02430E+01  1.180E-01  2.000E+01  2.000E+04 -1.522E-01
   1    9   29     2     2    5.3044E+04 -3.3736E+03   5.6417E+04  0.000E+00  0.000E+00  0.000E+00  3.99973E+01  1.223E-01  2.000E+01  2.000E+04 -1.687E-01
   1    9   28     2     3    5.6417E+04 -3.7530E+03   6.0170E+04  0.000E+00  0.000E+00  0.000E+00  3.97520E+01  1.270E-01  2.000E+01  2.000E+04 -1.877E-01
   1    9   27     2     4    6.0170E+04 -6.5718E+03   6.6742E+04  0.000E+00  0.000E+00  0.000E+00  3.95087E+01  1.337E-01  2.000E+01  2.000E+04 -3.286E-01
   1   10   26     2     5    6.6742E+04 -4.2148E+03   7.0957E+04  0.000E+00  0.000E+00  0.000E+00  3.92654E+01  1.404E-01  2.000E+01  2.000E+04 -2.107E-01
   1   11   25     2     6    7.0957E+04 -3.1554E+03   7.4112E+04  0.000E+00  0.000E+00  0.000E+00  3.90198E+01  1.448E-01  2.000E+01  2.000E+04 -1.578E-01
   1   12   24     2     7    7.4112E+04 -2.2712E+03   7.6383E+04  0.000E+00  0.000E+00  0.000E+00  3.87731E+01  1.481E-01  2.000E+01  2.000E+04 -1.136E-01
   1   13   23     2     8    7.6383E+04 -1.3891E+03   7.7773E+04  0.000E+00  0.000E+00  0.000E+00  3.85252E+01  1.502E-01  2.000E+01  2.000E+04 -6.945E-02
   1   14   22     2     9    7.7773E+04  1.6320E+03   7.6141E+04  0.000E+00  0.000E+00  0.000E+00  3.82751E+01  1.501E-01  2.000E+01  2.000E+04  8.160E-02
   1   14   22     3     1    2.4809E+05 -8.5748E+03   2.5666E+05  0.000E+00  0.000E+00  0.000E+00  3.77647E+01  2.092E-01  2.000E+01  2.000E+04 -4.287E-01
   1   15   23     3     2    2.5666E+05 -3.1496E+03   2.5981E+05  0.000E+00  0.000E+00  0.000E+00  3.68788E+01  2.121E-01  2.000E+01  2.000E+04 -1.575E-01
   1   15   24     3     3    2.5981E+05 -2.1985E+03   2.6201E+05  0.000E+00  0.000E+00  0.000E+00  3.59912E+01  2.134E-01  2.000E+01  2.000E+04 -1.099E-01
   1   15   25     3     4    2.6201E+05 -2.1036E+03   2.6412E+05  0.000E+00  0.000E+00  0.000E+00  3.51033E+01  2.145E-01  2.000E+01  2.000E+04 -1.052E-01
   1   15   26     3     5    2.6412E+05 -2.5604E+03   2.6668E+05  0.000E+00  0.000E+00  0.000E+00  3.42156E+01  2.156E-01  2.000E+01  2.000E+04 -1.280E-01
   1   16   27     3     6    2.6668E+05 -3.5188E+03   2.7020E+05  0.000E+00  0.000E+00  0.000E+00  3.33282E+01  2.171E-01  2.000E+01  2.000E+04 -1.759E-01
   1   17   28     3     7    2.7020E+05 -4.3315E+03   2.7453E+05  0.000E+00  0.000E+00  0.000E+00  3.24412E+01  2.190E-01  2.000E+01  2.000E+04 -2.166E-01
   1   18   29     3     8    2.7453E+05 -5.9670E+03   2.8049E+05  0.000E+00  0.000E+00  0.000E+00  3.15548E+01  2.214E-01  2.000E+01  2.000E+04 -2.983E-01
   1   18   30     3     9    2.8049E+05 -5.0118E+03   2.8551E+05  0.000E+00  0.000E+00  0.000E+00  3.06685E+01  2.241E-01  2.000E+01  2.000E+04 -2.506E-01



1
              HEAD IN LAYER   1 AT END OF TIME STEP   1 IN STRESS PERIOD   10
  ---------------------------------------------------------------------------

          1      2      3      4      5      6      7      8      9     10
         11     12     13     14     15     16     17     18     19     20
         21     22     23     24     25     26     27     28     29     30
 .........................................................................
   1  ****** ****** ****** ****** ****** ****** ****** ****** ****** ******
      ****** ****** ****** ****** ****** ****** ****** ****** ****** ******
      ****** ****** ****** ****** ****** ****** ****** ****** ****** ******
   2  ****** ****** ****** ****** ****** ****** ****** ****** ****** ******
      ****** ****** ****** ****** ****** ****** ****** ****** ****** ******
      ****** ****** ****** ****** ****** ****** ****** ****** ****** ******
   3  ****** ****** ****** ****** ****** ****** ****** ****** ****** ******
      ****** ****** ****** ****** ****** ****** ****** ****** ****** ******
      ****** ****** ****** ****** ****** ****** ****** ****** ****** ******
   4  ****** ****** ****** ****** ****** ****** ****** ****** ****** ******
      ****** ****** ****** ****** ****** ****** ****** ****** ****** ******
      ****** ****** ****** ****** ****** ****** ****** ****** ****** ******
   5  ****** ****** ****** ****** ****** ****** ****** ****** ****** ******
      ****** ****** ****** ****** ****** ****** ****** ****** ****** ******
      ****** ****** ****** ****** ****** ****** ****** ****** ****** ******
   6  ****** ****** ****** ****** ****** ****** ****** ****** ****** ******
      ****** ****** ****** ****** ****** ****** ****** ****** ****** ******
      ****** ****** ****** ****** ****** ****** ****** ****** ****** ******
   7  ****** ****** ****** ****** ****** ****** ****** ****** ****** ******
      ****** ****** ****** ****** ****** ****** ****** ****** ****** ******
      ****** ****** ****** ****** ****** ****** ****** ****** ****** ******
   8  ****** ****** ****** ****** ****** ****** ****** ****** ****** ******
      ****** ****** ****** ****** ****** ****** ****** ****** ****** ******
      ****** ****** ****** ****** ****** ****** ****** ****** ****** ******
   9  ****** ****** ****** ****** ****** ****** ****** ****** ****** ******
      ****** ****** ****** ****** ****** ****** ****** ****** ****** ******
      ****** ****** ****** ****** ****** ****** ****** ****** ****** ******
  10  ****** ****** ****** ****** ****** ****** ****** ****** ****** ******
      ****** ****** ****** ****** ****** ****** ****** ****** ****** ******
      ****** ****** ****** ****** ****** ****** ****** ****** ****** ******
  11  ****** ****** ****** ****** ****** ****** ****** ****** ****** ******
      ****** ****** ****** ****** ****** ****** ****** ****** ****** ******
      ****** ****** ****** ****** ****** ****** ****** ****** ****** ******
  12  ****** ****** ****** ****** ****** ****** ****** ****** ****** ******
      ****** ****** ****** ****** ****** ****** ****** ****** ****** ******
      ****** ****** ****** ****** ****** ****** ****** ****** ****** ******
  13  ****** ****** ****** ****** ****** ****** ****** ****** ****** ******
      ****** ****** ****** ****** ****** ****** ****** ****** ****** ******
      ****** ****** ****** ****** ****** ****** ****** ****** ****** ******
  14  ****** ****** ****** ****** ****** ****** ****** ****** ****** ******
      ****** ****** ****** ****** ****** ****** ****** ****** ****** ******
      ****** ****** ****** ****** ****** ****** ****** ****** ****** ******
  15  ****** ****** ****** ****** ****** ****** ****** ****** ****** ******
      ****** ****** ****** ****** ****** ****** ****** ****** ****** ******
      ****** ****** ****** ****** ****** ****** ****** ****** ****** ******
  16  ****** ****** ****** ****** ****** ****** ****** ****** ****** ******
      ****** ****** ****** ****** ****** ****** ****** ****** ****** ******
      ****** ****** ****** ****** ****** ****** ****** ****** ****** ******
  17  ****** ****** ****** ****** ****** ****** ****** ****** ****** ******
      ****** ****** ****** ****** ****** ****** ****** ****** ****** ******
      ****** ****** ****** ****** ****** ****** ****** ****** ****** ******
  18  ****** ****** ****** ****** ****** ****** ****** ****** ****** ******
      ****** ****** ****** ****** ****** ****** ****** ****** ****** ******
      ****** ****** ****** ****** ****** ****** ****** ****** ****** ******
  19  ****** ****** ****** ****** ****** ****** ****** ****** ****** ******
      ****** ****** ****** ****** ****** ****** ****** ****** ****** ******
      ****** ****** ****** ****** ****** ****** ****** ****** ****** ******
  20  ****** ****** ****** ****** ****** ****** ****** ****** ****** ******
      ****** ****** ****** ****** ****** ****** ****** ****** ****** ******
      ****** ****** ****** ****** ****** ****** ****** ****** ****** ******
  21  ****** ****** ****** ****** ****** ****** ****** ****** ****** ******
      ****** ****** ****** ****** ****** ****** ****** ****** ****** ******
      ****** ****** ****** ****** ****** ****** ****** ****** ****** ******
  22  ****** ****** ****** ****** ****** ****** ****** ****** ****** ******
      ****** ****** ****** ****** ****** ****** ****** ****** ****** ******
      ****** ****** ****** ****** ****** ****** ****** ****** ****** ******
  23  ****** ****** ****** ****** ****** ****** ****** ****** ****** ******
      ****** ****** ****** ****** ****** ****** ****** ****** ****** ******
      ****** ****** ****** ****** ****** ****** ****** ****** ****** ******
  24  ****** ****** ****** ****** ****** ****** ****** ****** ****** ******
      ****** ****** ****** ****** ****** ****** ****** ****** ****** ******
      ****** ****** ****** ****** ****** ****** ****** ****** ****** ******
  25  ****** ****** ****** ****** ****** ****** ****** ****** ****** ******
      ****** ****** ****** ****** ****** ****** ****** ****** ****** ******
      ****** ****** ****** ****** ****** ****** ****** ****** ****** ******

 HEAD WILL BE SAVED ON UNIT   51 AT END OF TIME STEP    1, STRESS PERIOD   10
1
  VOLUMETRIC BUDGET FOR ENTIRE MODEL AT END OF TIME STEP    1, STRESS PERIOD  10
  ------------------------------------------------------------------------------

     CUMULATIVE VOLUMES      L**3       RATES FOR THIS TIME STEP      L**3/T
     ------------------                 ------------------------

           IN:                                      IN:
           ---                                      ---
             STORAGE =    22748684.9562               STORAGE =           0.0000
       CONSTANT HEAD =   114880072.8325         CONSTANT HEAD =      121213.8041
               WELLS =           0.0000                 WELLS =           0.0000
            RECHARGE =    23901600.0000              RECHARGE =       55200.0000
      STREAM LEAKAGE =     5965005.0051        STREAM LEAKAGE =        6574.5148

            TOTAL IN =   167495362.7938              TOTAL IN =      182988.3190

          OUT:                                     OUT:
          ----                                     ----
             STORAGE =     2352213.7991               STORAGE =       10814.3419
       CONSTANT HEAD =           0.0000         CONSTANT HEAD =           0.0000
               WELLS =    31887873.4507                 WELLS =       30094.0747
            RECHARGE =           0.0000              RECHARGE =           0.0000
      STREAM LEAKAGE =   133255276.3353        STREAM LEAKAGE =      142079.9007

           TOTAL OUT =   167495363.5852             TOTAL OUT =      182988.3172

            IN - OUT =          -0.7913              IN - OUT =       1.7349E-03

 PERCENT DISCREPANCY =          -0.00     PERCENT DISCREPANCY =           0.00






         TIME SUMMARY AT END OF TIME STEP    1 IN STRESS PERIOD   10
                    SECONDS     MINUTES      HOURS       DAYS        YEARS
                    -----------------------------------------------------------
   TIME STEP LENGTH 7.86240E+06 1.31040E+05  2184.0      91.000     0.24914    
 STRESS PERIOD TIME 7.86240E+06 1.31040E+05  2184.0      91.000     0.24914    
         TOTAL TIME 7.88832E+07 1.31472E+06  21912.      913.00      2.4997    
1
1
                            STRESS PERIOD NO.   11, LENGTH =   91.00000    
                            -----------------------------------------------

                              NUMBER OF TIME STEPS =     1

                               MULTIPLIER FOR DELT =     1.500

                            INITIAL TIME STEP SIZE =   91.00000    

 WELL NO.  LAYER   ROW   COL   STRESS RATE         
 --------------------------------------------------
      1      1     23     10     -0.1039E+05
      2      1     17      3      -9136.    
      3      1     23     22     -0.1057E+05

      3 WELLS

                 RECHARGE =   0.00000    

 REUSING STREAM SEGMENT DATA FROM LAST STRESS PERIOD
 
 SOLVING FOR HEAD 


     7 CALLS TO PCG ROUTINE FOR TIME STEP   1 IN STRESS PERIOD   11
    26 TOTAL ITERATIONS

 OUTPUT CONTROL FOR STRESS PERIOD   11   TIME STEP    1
    SAVE BUDGET
    SAVE HEAD FOR ALL LAYERS
    PRINT HEAD FOR ALL LAYERS
 UBDSV2 SAVING "STREAMFLOW OUT  " ON UNIT  50 AT TIME STEP  1, STRESS PERIOD  11



 STREAM LISTING     PERIOD     11   STEP        1

 LAYER ROW COL. STREAM  RCH.  FLOW INTO     FLOW TO   FLOW OUT OF   OVRLND.     DIRECT     STREAM       STREAM     STREAM     STREAM   STREAMBED  STREAMBED
                SEG.NO.  NO.  STRM. RCH.    AQUIFER    STRM. RCH.    RUNOFF     PRECIP       ET          HEAD       DEPTH      WIDTH   CONDCTNC.   GRADIENT

   1   13    1     1     1    1.0000E+05 -2.1595E+03   1.0216E+05  0.000E+00  0.000E+00  0.000E+00  4.84070E+01  1.456E-01  2.000E+01  2.000E+04 -1.080E-01
   1   13    2     1     2    1.0216E+05 -4.1421E+03   1.0630E+05  0.000E+00  0.000E+00  0.000E+00  4.79324E+01  1.483E-01  2.000E+01  2.000E+04 -2.071E-01
   1   14    3     1     3    1.0630E+05 -2.3909E+03   1.0869E+05  0.000E+00  0.000E+00  0.000E+00  4.74579E+01  1.511E-01  2.000E+01  2.000E+04 -1.195E-01
   1   15    4     1     4    1.0869E+05 -1.6080E+03   1.1030E+05  0.000E+00  0.000E+00  0.000E+00  4.69823E+01  1.527E-01  2.000E+01  2.000E+04 -8.040E-02
   1   16    5     1     5    1.1030E+05 -1.7592E+03   1.1206E+05  0.000E+00  0.000E+00  0.000E+00  4.65064E+01  1.541E-01  2.000E+01  2.000E+04 -8.796E-02
   1   16    6     1     6    1.1206E+05 -2.4109E+03   1.1447E+05  0.000E+00  0.000E+00  0.000E+00  4.60309E+01  1.559E-01  2.000E+01  2.000E+04 -1.205E-01
   1   16    7     1     7    1.1447E+05 -2.6972E+03   1.1717E+05  0.000E+00  0.000E+00  0.000E+00  4.55557E+01  1.580E-01  2.000E+01  2.000E+04 -1.349E-01
   1   16    8     1     8    1.1717E+05 -2.8262E+03   1.1999E+05  0.000E+00  0.000E+00  0.000E+00  4.50807E+01  1.602E-01  2.000E+01  2.000E+04 -1.413E-01
   1   16    9     1     9    1.1999E+05 -2.8721E+03   1.2287E+05  0.000E+00  0.000E+00  0.000E+00  4.46057E+01  1.625E-01  2.000E+01  2.000E+04 -1.436E-01
   1   16   10     1    10    1.2287E+05 -2.8686E+03   1.2573E+05  0.000E+00  0.000E+00  0.000E+00  4.41307E+01  1.648E-01  2.000E+01  2.000E+04 -1.434E-01
   1   16   11     1    11    1.2573E+05 -2.8524E+03   1.2859E+05  0.000E+00  0.000E+00  0.000E+00  4.36557E+01  1.671E-01  2.000E+01  2.000E+04 -1.426E-01
   1   16   12     1    12    1.2859E+05 -3.7965E+03   1.3238E+05  0.000E+00  0.000E+00  0.000E+00  4.31811E+01  1.697E-01  2.000E+01  2.000E+04 -1.898E-01
   1   15   13     1    13    1.3238E+05 -3.6372E+03   1.3602E+05  0.000E+00  0.000E+00  0.000E+00  4.27067E+01  1.726E-01  2.000E+01  2.000E+04 -1.819E-01
   1   14   14     1    14    1.3602E+05 -3.7566E+03   1.3978E+05  0.000E+00  0.000E+00  0.000E+00  4.22322E+01  1.754E-01  2.000E+01  2.000E+04 -1.878E-01
   1   13   15     1    15    1.3978E+05 -4.0787E+03   1.4386E+05  0.000E+00  0.000E+00  0.000E+00  4.17579E+01  1.784E-01  2.000E+01  2.000E+04 -2.039E-01
   1   12   16     1    16    1.4386E+05 -5.2746E+03   1.4913E+05  0.000E+00  0.000E+00  0.000E+00  4.12842E+01  1.819E-01  2.000E+01  2.000E+04 -2.637E-01
   1   12   17     1    17    1.4913E+05 -3.4585E+03   1.5259E+05  0.000E+00  0.000E+00  0.000E+00  4.08101E+01  1.851E-01  2.000E+01  2.000E+04 -1.729E-01
   1   12   18     1    18    1.5259E+05 -3.3261E+03   1.5592E+05  0.000E+00  0.000E+00  0.000E+00  4.03353E+01  1.876E-01  2.000E+01  2.000E+04 -1.663E-01
   1   12   19     1    19    1.5592E+05 -4.3526E+03   1.6027E+05  0.000E+00  0.000E+00  0.000E+00  3.98609E+01  1.904E-01  2.000E+01  2.000E+04 -2.176E-01
   1   13   20     1    20    1.6027E+05 -2.8301E+03   1.6310E+05  0.000E+00  0.000E+00  0.000E+00  3.93862E+01  1.930E-01  2.000E+01  2.000E+04 -1.415E-01
   1   14   21     1    21    1.6310E+05 -2.0643E+03   1.6516E+05  0.000E+00  0.000E+00  0.000E+00  3.89106E+01  1.947E-01  2.000E+01  2.000E+04 -1.032E-01
   1   14   22     1    22    1.6516E+05  5.0433E+03   1.6012E+05  0.000E+00  0.000E+00  0.000E+00  3.84323E+01  1.937E-01  2.000E+01  2.000E+04  2.522E-01
   1    9   30     2     1    5.0000E+04 -2.6024E+03   5.2602E+04  0.000E+00  0.000E+00  0.000E+00  4.02427E+01  1.177E-01  2.000E+01  2.000E+04 -1.301E-01
   1    9   29     2     2    5.2602E+04 -2.9359E+03   5.5538E+04  0.000E+00  0.000E+00  0.000E+00  3.99964E+01  1.214E-01  2.000E+01  2.000E+04 -1.468E-01
   1    9   28     2     3    5.5538E+04 -3.3188E+03   5.8857E+04  0.000E+00  0.000E+00  0.000E+00  3.97506E+01  1.256E-01  2.000E+01  2.000E+04 -1.659E-01
   1    9   27     2     4    5.8857E+04 -6.0001E+03   6.4857E+04  0.000E+00  0.000E+00  0.000E+00  3.95066E+01  1.316E-01  2.000E+01  2.000E+04 -3.000E-01
   1   10   26     2     5    6.4857E+04 -3.6171E+03   6.8474E+04  0.000E+00  0.000E+00  0.000E+00  3.92627E+01  1.377E-01  2.000E+01  2.000E+04 -1.809E-01
   1   11   25     2     6    6.8474E+04 -2.5810E+03   7.1055E+04  0.000E+00  0.000E+00  0.000E+00  3.90165E+01  1.415E-01  2.000E+01  2.000E+04 -1.291E-01
   1   12   24     2     7    7.1055E+04 -1.7599E+03   7.2815E+04  0.000E+00  0.000E+00  0.000E+00  3.87691E+01  1.441E-01  2.000E+01  2.000E+04 -8.800E-02
   1   13   23     2     8    7.2815E+04 -9.8623E+02   7.3801E+04  0.000E+00  0.000E+00  0.000E+00  3.85208E+01  1.458E-01  2.000E+01  2.000E+04 -4.931E-02
   1   14   22     2     9    7.3801E+04  1.8028E+03   7.1999E+04  0.000E+00  0.000E+00  0.000E+00  3.82703E+01  1.453E-01  2.000E+01  2.000E+04  9.014E-02
   1   14   22     3     1    2.3212E+05 -8.4695E+03   2.4059E+05  0.000E+00  0.000E+00  0.000E+00  3.77567E+01  2.011E-01  2.000E+01  2.000E+04 -4.235E-01
   1   15   23     3     2    2.4059E+05 -2.6693E+03   2.4326E+05  0.000E+00  0.000E+00  0.000E+00  3.68706E+01  2.039E-01  2.000E+01  2.000E+04 -1.335E-01
   1   15   24     3     3    2.4326E+05 -1.8442E+03   2.4510E+05  0.000E+00  0.000E+00  0.000E+00  3.59829E+01  2.051E-01  2.000E+01  2.000E+04 -9.221E-02
   1   15   25     3     4    2.4510E+05 -1.7454E+03   2.4685E+05  0.000E+00  0.000E+00  0.000E+00  3.50949E+01  2.060E-01  2.000E+01  2.000E+04 -8.727E-02
   1   15   26     3     5    2.4685E+05 -2.0964E+03   2.4894E+05  0.000E+00  0.000E+00  0.000E+00  3.42069E+01  2.069E-01  2.000E+01  2.000E+04 -1.048E-01
   1   16   27     3     6    2.4894E+05 -2.9433E+03   2.5189E+05  0.000E+00  0.000E+00  0.000E+00  3.33193E+01  2.082E-01  2.000E+01  2.000E+04 -1.472E-01
   1   17   28     3     7    2.5189E+05 -3.7456E+03   2.5563E+05  0.000E+00  0.000E+00  0.000E+00  3.24321E+01  2.099E-01  2.000E+01  2.000E+04 -1.873E-01
   1   18   29     3     8    2.5563E+05 -5.4209E+03   2.6105E+05  0.000E+00  0.000E+00  0.000E+00  3.15455E+01  2.121E-01  2.000E+01  2.000E+04 -2.710E-01
   1   18   30     3     9    2.6105E+05 -4.5952E+03   2.6565E+05  0.000E+00  0.000E+00  0.000E+00  3.06590E+01  2.146E-01  2.000E+01  2.000E+04 -2.298E-01



1
              HEAD IN LAYER   1 AT END OF TIME STEP   1 IN STRESS PERIOD   11
  ---------------------------------------------------------------------------

          1      2      3      4      5      6      7      8      9     10
         11     12     13     14     15     16     17     18     19     20
         21     22     23     24     25     26     27     28     29     30
 .........................................................................
   1  ****** ****** ****** ****** ****** ****** ****** ****** ****** ******
      ****** ****** ****** ****** ****** ****** ****** ****** ****** ******
      ****** ****** ****** ****** ****** ****** ****** ****** ****** ******
   2  ****** ****** ****** ****** ****** ****** ****** ****** ****** ******
      ****** ****** ****** ****** ****** ****** ****** ****** ****** ******
      ****** ****** ****** ****** ****** ****** ****** ****** ****** ******
   3  ****** ****** ****** ****** ****** ****** ****** ****** ****** ******
      ****** ****** ****** ****** ****** ****** ****** ****** ****** ******
      ****** ****** ****** ****** ****** ****** ****** ****** ****** ******
   4  ****** ****** ****** ****** ****** ****** ****** ****** ****** ******
      ****** ****** ****** ****** ****** ****** ****** ****** ****** ******
      ****** ****** ****** ****** ****** ****** ****** ****** ****** ******
   5  ****** ****** ****** ****** ****** ****** ****** ****** ****** ******
      ****** ****** ****** ****** ****** ****** ****** ****** ****** ******
      ****** ****** ****** ****** ****** ****** ****** ****** ****** ******
   6  ****** ****** ****** ****** ****** ****** ****** ****** ****** ******
      ****** ****** ****** ****** ****** ****** ****** ****** ****** ******
      ****** ****** ****** ****** ****** ****** ****** ****** ****** ******
   7  ****** ****** ****** ****** ****** ****** ****** ****** ****** ******
      ****** ****** ****** ****** ****** ****** ****** ****** ****** ******
      ****** ****** ****** ****** ****** ****** ****** ****** ****** ******
   8  ****** ****** ****** ****** ****** ****** ****** ****** ****** ******
      ****** ****** ****** ****** ****** ****** ****** ****** ****** ******
      ****** ****** ****** ****** ****** ****** ****** ****** ****** ******
   9  ****** ****** ****** ****** ****** ****** ****** ****** ****** ******
      ****** ****** ****** ****** ****** ****** ****** ****** ****** ******
      ****** ****** ****** ****** ****** ****** ****** ****** ****** ******
  10  ****** ****** ****** ****** ****** ****** ****** ****** ****** ******
      ****** ****** ****** ****** ****** ****** ****** ****** ****** ******
      ****** ****** ****** ****** ****** ****** ****** ****** ****** ******
  11  ****** ****** ****** ****** ****** ****** ****** ****** ****** ******
      ****** ****** ****** ****** ****** ****** ****** ****** ****** ******
      ****** ****** ****** ****** ****** ****** ****** ****** ****** ******
  12  ****** ****** ****** ****** ****** ****** ****** ****** ****** ******
      ****** ****** ****** ****** ****** ****** ****** ****** ****** ******
      ****** ****** ****** ****** ****** ****** ****** ****** ****** ******
  13  ****** ****** ****** ****** ****** ****** ****** ****** ****** ******
      ****** ****** ****** ****** ****** ****** ****** ****** ****** ******
      ****** ****** ****** ****** ****** ****** ****** ****** ****** ******
  14  ****** ****** ****** ****** ****** ****** ****** ****** ****** ******
      ****** ****** ****** ****** ****** ****** ****** ****** ****** ******
      ****** ****** ****** ****** ****** ****** ****** ****** ****** ******
  15  ****** ****** ****** ****** ****** ****** ****** ****** ****** ******
      ****** ****** ****** ****** ****** ****** ****** ****** ****** ******
      ****** ****** ****** ****** ****** ****** ****** ****** ****** ******
  16  ****** ****** ****** ****** ****** ****** ****** ****** ****** ******
      ****** ****** ****** ****** ****** ****** ****** ****** ****** ******
      ****** ****** ****** ****** ****** ****** ****** ****** ****** ******
  17  ****** ****** ****** ****** ****** ****** ****** ****** ****** ******
      ****** ****** ****** ****** ****** ****** ****** ****** ****** ******
      ****** ****** ****** ****** ****** ****** ****** ****** ****** ******
  18  ****** ****** ****** ****** ****** ****** ****** ****** ****** ******
      ****** ****** ****** ****** ****** ****** ****** ****** ****** ******
      ****** ****** ****** ****** ****** ****** ****** ****** ****** ******
  19  ****** ****** ****** ****** ****** ****** ****** ****** ****** ******
      ****** ****** ****** ****** ****** ****** ****** ****** ****** ******
      ****** ****** ****** ****** ****** ****** ****** ****** ****** ******
  20  ****** ****** ****** ****** ****** ****** ****** ****** ****** ******
      ****** ****** ****** ****** ****** ****** ****** ****** ****** ******
      ****** ****** ****** ****** ****** ****** ****** ****** ****** ******
  21  ****** ****** ****** ****** ****** ****** ****** ****** ****** ******
      ****** ****** ****** ****** ****** ****** ****** ****** ****** ******
      ****** ****** ****** ****** ****** ****** ****** ****** ****** ******
  22  ****** ****** ****** ****** ****** ****** ****** ****** ****** ******
      ****** ****** ****** ****** ****** ****** ****** ****** ****** ******
      ****** ****** ****** ****** ****** ****** ****** ****** ****** ******
  23  ****** ****** ****** ****** ****** ****** ****** ****** ****** ******
      ****** ****** ****** ****** ****** ****** ****** ****** ****** ******
      ****** ****** ****** ****** ****** ****** ****** ****** ****** ******
  24  ****** ****** ****** ****** ****** ****** ****** ****** ****** ******
      ****** ****** ****** ****** ****** ****** ****** ****** ****** ******
      ****** ****** ****** ****** ****** ****** ****** ****** ****** ******
  25  ****** ****** ****** ****** ****** ****** ****** ****** ****** ******
      ****** ****** ****** ****** ****** ****** ****** ****** ****** ******
      ****** ****** ****** ****** ****** ****** ****** ****** ****** ******

 HEAD WILL BE SAVED ON UNIT   51 AT END OF TIME STEP    1, STRESS PERIOD   11
1
  VOLUMETRIC BUDGET FOR ENTIRE MODEL AT END OF TIME STEP    1, STRESS PERIOD  11
  ------------------------------------------------------------------------------

     CUMULATIVE VOLUMES      L**3       RATES FOR THIS TIME STEP      L**3/T
     ------------------                 ------------------------

           IN:                                      IN:
           ---                                      ---
             STORAGE =    23825400.4888               STORAGE =       11832.0388
       CONSTANT HEAD =   127065857.0412         CONSTANT HEAD =      133909.7166
               WELLS =           0.0000                 WELLS =           0.0000
            RECHARGE =    23901600.0000              RECHARGE =           0.0000
      STREAM LEAKAGE =     6588002.2128        STREAM LEAKAGE =        6846.1232

            TOTAL IN =   181380859.7428              TOTAL IN =      152587.8786

          OUT:                                     OUT:
          ----                                     ----
             STORAGE =     2352213.7991               STORAGE =           0.0000
       CONSTANT HEAD =           0.0000         CONSTANT HEAD =           0.0000
               WELLS =    34626434.2467                 WELLS =       30094.0747
            RECHARGE =           0.0000              RECHARGE =           0.0000
      STREAM LEAKAGE =   144402212.6817        STREAM LEAKAGE =      122493.8060

           TOTAL OUT =   181380860.7275             TOTAL OUT =      152587.8807

            IN - OUT =          -0.9848              IN - OUT =      -2.1255E-03

 PERCENT DISCREPANCY =          -0.00     PERCENT DISCREPANCY =          -0.00






         TIME SUMMARY AT END OF TIME STEP    1 IN STRESS PERIOD   11
                    SECONDS     MINUTES      HOURS       DAYS        YEARS
                    -----------------------------------------------------------
   TIME STEP LENGTH 7.86240E+06 1.31040E+05  2184.0      91.000     0.24914    
 STRESS PERIOD TIME 7.86240E+06 1.31040E+05  2184.0      91.000     0.24914    
         TOTAL TIME 8.67456E+07 1.44576E+06  24096.      1004.0      2.7488    
1
1
                            STRESS PERIOD NO.   12, LENGTH =   91.00000    
                            -----------------------------------------------

                              NUMBER OF TIME STEPS =     1

                               MULTIPLIER FOR DELT =     1.500

                            INITIAL TIME STEP SIZE =   91.00000    

 WELL NO.  LAYER   ROW   COL   STRESS RATE         
 --------------------------------------------------
      1      1     23     10     -0.1039E+05
      2      1     17      3      -9136.    
      3      1     23     22     -0.1057E+05

      3 WELLS

                 RECHARGE =  1.000000E-03

 REUSING STREAM SEGMENT DATA FROM LAST STRESS PERIOD
 
 SOLVING FOR HEAD 


     6 CALLS TO PCG ROUTINE FOR TIME STEP   1 IN STRESS PERIOD   12
    23 TOTAL ITERATIONS

 OUTPUT CONTROL FOR STRESS PERIOD   12   TIME STEP    1
    SAVE BUDGET
    SAVE HEAD FOR ALL LAYERS
    PRINT HEAD FOR ALL LAYERS
 UBDSV2 SAVING "STREAMFLOW OUT  " ON UNIT  50 AT TIME STEP  1, STRESS PERIOD  12



 STREAM LISTING     PERIOD     12   STEP        1

 LAYER ROW COL. STREAM  RCH.  FLOW INTO     FLOW TO   FLOW OUT OF   OVRLND.     DIRECT     STREAM       STREAM     STREAM     STREAM   STREAMBED  STREAMBED
                SEG.NO.  NO.  STRM. RCH.    AQUIFER    STRM. RCH.    RUNOFF     PRECIP       ET          HEAD       DEPTH      WIDTH   CONDCTNC.   GRADIENT

   1   13    1     1     1    1.0000E+05 -2.3331E+03   1.0233E+05  0.000E+00  0.000E+00  0.000E+00  4.84070E+01  1.457E-01  2.000E+01  2.000E+04 -1.167E-01
   1   13    2     1     2    1.0233E+05 -4.3602E+03   1.0669E+05  0.000E+00  0.000E+00  0.000E+00  4.79326E+01  1.485E-01  2.000E+01  2.000E+04 -2.180E-01
   1   14    3     1     3    1.0669E+05 -2.6300E+03   1.0932E+05  0.000E+00  0.000E+00  0.000E+00  4.74583E+01  1.515E-01  2.000E+01  2.000E+04 -1.315E-01
   1   15    4     1     4    1.0932E+05 -1.8493E+03   1.1117E+05  0.000E+00  0.000E+00  0.000E+00  4.69829E+01  1.534E-01  2.000E+01  2.000E+04 -9.246E-02
   1   16    5     1     5    1.1117E+05 -1.9820E+03   1.1315E+05  0.000E+00  0.000E+00  0.000E+00  4.65072E+01  1.550E-01  2.000E+01  2.000E+04 -9.910E-02
   1   16    6     1     6    1.1315E+05 -2.5883E+03   1.1574E+05  0.000E+00  0.000E+00  0.000E+00  4.60319E+01  1.569E-01  2.000E+01  2.000E+04 -1.294E-01
   1   16    7     1     7    1.1574E+05 -2.8764E+03   1.1862E+05  0.000E+00  0.000E+00  0.000E+00  4.55568E+01  1.591E-01  2.000E+01  2.000E+04 -1.438E-01
   1   16    8     1     8    1.1862E+05 -3.0065E+03   1.2163E+05  0.000E+00  0.000E+00  0.000E+00  4.50819E+01  1.615E-01  2.000E+01  2.000E+04 -1.503E-01
   1   16    9     1     9    1.2163E+05 -3.0523E+03   1.2468E+05  0.000E+00  0.000E+00  0.000E+00  4.46071E+01  1.639E-01  2.000E+01  2.000E+04 -1.526E-01
   1   16   10     1    10    1.2468E+05 -3.0477E+03   1.2773E+05  0.000E+00  0.000E+00  0.000E+00  4.41322E+01  1.663E-01  2.000E+01  2.000E+04 -1.524E-01
   1   16   11     1    11    1.2773E+05 -3.0295E+03   1.3076E+05  0.000E+00  0.000E+00  0.000E+00  4.36574E+01  1.687E-01  2.000E+01  2.000E+04 -1.515E-01
   1   16   12     1    12    1.3076E+05 -4.0198E+03   1.3478E+05  0.000E+00  0.000E+00  0.000E+00  4.31828E+01  1.715E-01  2.000E+01  2.000E+04 -2.010E-01
   1   15   13     1    13    1.3478E+05 -3.8809E+03   1.3866E+05  0.000E+00  0.000E+00  0.000E+00  4.27086E+01  1.745E-01  2.000E+01  2.000E+04 -1.940E-01
   1   14   14     1    14    1.3866E+05 -4.0029E+03   1.4266E+05  0.000E+00  0.000E+00  0.000E+00  4.22343E+01  1.775E-01  2.000E+01  2.000E+04 -2.001E-01
   1   13   15     1    15    1.4266E+05 -4.3194E+03   1.4698E+05  0.000E+00  0.000E+00  0.000E+00  4.17602E+01  1.806E-01  2.000E+01  2.000E+04 -2.160E-01
   1   12   16     1    16    1.4698E+05 -5.4943E+03   1.5247E+05  0.000E+00  0.000E+00  0.000E+00  4.12866E+01  1.843E-01  2.000E+01  2.000E+04 -2.747E-01
   1   12   17     1    17    1.5247E+05 -3.6324E+03   1.5610E+05  0.000E+00  0.000E+00  0.000E+00  4.08126E+01  1.876E-01  2.000E+01  2.000E+04 -1.816E-01
   1   12   18     1    18    1.5610E+05 -3.4995E+03   1.5960E+05  0.000E+00  0.000E+00  0.000E+00  4.03380E+01  1.902E-01  2.000E+01  2.000E+04 -1.750E-01
   1   12   19     1    19    1.5960E+05 -4.5641E+03   1.6417E+05  0.000E+00  0.000E+00  0.000E+00  3.98636E+01  1.931E-01  2.000E+01  2.000E+04 -2.282E-01
   1   13   20     1    20    1.6417E+05 -3.0492E+03   1.6722E+05  0.000E+00  0.000E+00  0.000E+00  3.93890E+01  1.958E-01  2.000E+01  2.000E+04 -1.525E-01
   1   14   21     1    21    1.6722E+05 -2.2616E+03   1.6948E+05  0.000E+00  0.000E+00  0.000E+00  3.89136E+01  1.977E-01  2.000E+01  2.000E+04 -1.131E-01
   1   14   22     1    22    1.6948E+05  4.9995E+03   1.6448E+05  0.000E+00  0.000E+00  0.000E+00  3.84354E+01  1.968E-01  2.000E+01  2.000E+04  2.500E-01
   1    9   30     2     1    5.0000E+04 -2.7818E+03   5.2782E+04  0.000E+00  0.000E+00  0.000E+00  4.02428E+01  1.178E-01  2.000E+01  2.000E+04 -1.391E-01
   1    9   29     2     2    5.2782E+04 -3.1136E+03   5.5895E+04  0.000E+00  0.000E+00  0.000E+00  3.99968E+01  1.218E-01  2.000E+01  2.000E+04 -1.557E-01
   1    9   28     2     3    5.5895E+04 -3.4939E+03   5.9389E+04  0.000E+00  0.000E+00  0.000E+00  3.97512E+01  1.262E-01  2.000E+01  2.000E+04 -1.747E-01
   1    9   27     2     4    5.9389E+04 -6.2207E+03   6.5610E+04  0.000E+00  0.000E+00  0.000E+00  3.95075E+01  1.325E-01  2.000E+01  2.000E+04 -3.110E-01
   1   10   26     2     5    6.5610E+04 -3.8546E+03   6.9465E+04  0.000E+00  0.000E+00  0.000E+00  3.92638E+01  1.388E-01  2.000E+01  2.000E+04 -1.927E-01
   1   11   25     2     6    6.9465E+04 -2.8121E+03   7.2277E+04  0.000E+00  0.000E+00  0.000E+00  3.90178E+01  1.428E-01  2.000E+01  2.000E+04 -1.406E-01
   1   12   24     2     7    7.2277E+04 -1.9698E+03   7.4247E+04  0.000E+00  0.000E+00  0.000E+00  3.87707E+01  1.457E-01  2.000E+01  2.000E+04 -9.849E-02
   1   13   23     2     8    7.4247E+04 -1.1567E+03   7.5403E+04  0.000E+00  0.000E+00  0.000E+00  3.85226E+01  1.476E-01  2.000E+01  2.000E+04 -5.783E-02
   1   14   22     2     9    7.5403E+04  1.7362E+03   7.3667E+04  0.000E+00  0.000E+00  0.000E+00  3.82722E+01  1.472E-01  2.000E+01  2.000E+04  8.681E-02
   1   14   22     3     1    2.3815E+05 -8.5135E+03   2.4666E+05  0.000E+00  0.000E+00  0.000E+00  3.77597E+01  2.042E-01  2.000E+01  2.000E+04 -4.257E-01
   1   15   23     3     2    2.4666E+05 -2.8544E+03   2.4951E+05  0.000E+00  0.000E+00  0.000E+00  3.68737E+01  2.070E-01  2.000E+01  2.000E+04 -1.427E-01
   1   15   24     3     3    2.4951E+05 -1.9888E+03   2.5150E+05  0.000E+00  0.000E+00  0.000E+00  3.59860E+01  2.083E-01  2.000E+01  2.000E+04 -9.944E-02
   1   15   25     3     4    2.5150E+05 -1.8948E+03   2.5340E+05  0.000E+00  0.000E+00  0.000E+00  3.50981E+01  2.092E-01  2.000E+01  2.000E+04 -9.474E-02
   1   15   26     3     5    2.5340E+05 -2.2915E+03   2.5569E+05  0.000E+00  0.000E+00  0.000E+00  3.42103E+01  2.103E-01  2.000E+01  2.000E+04 -1.146E-01
   1   16   27     3     6    2.5569E+05 -3.1781E+03   2.5887E+05  0.000E+00  0.000E+00  0.000E+00  3.33227E+01  2.116E-01  2.000E+01  2.000E+04 -1.589E-01
   1   17   28     3     7    2.5887E+05 -3.9828E+03   2.6285E+05  0.000E+00  0.000E+00  0.000E+00  3.24356E+01  2.134E-01  2.000E+01  2.000E+04 -1.991E-01
   1   18   29     3     8    2.6285E+05 -5.6379E+03   2.6849E+05  0.000E+00  0.000E+00  0.000E+00  3.15491E+01  2.157E-01  2.000E+01  2.000E+04 -2.819E-01
   1   18   30     3     9    2.6849E+05 -4.7662E+03   2.7325E+05  0.000E+00  0.000E+00  0.000E+00  3.06627E+01  2.183E-01  2.000E+01  2.000E+04 -2.383E-01



1
              HEAD IN LAYER   1 AT END OF TIME STEP   1 IN STRESS PERIOD   12
  ---------------------------------------------------------------------------

          1      2      3      4      5      6      7      8      9     10
         11     12     13     14     15     16     17     18     19     20
         21     22     23     24     25     26     27     28     29     30
 .........................................................................
   1  ****** ****** ****** ****** ****** ****** ****** ****** ****** ******
      ****** ****** ****** ****** ****** ****** ****** ****** ****** ******
      ****** ****** ****** ****** ****** ****** ****** ****** ****** ******
   2  ****** ****** ****** ****** ****** ****** ****** ****** ****** ******
      ****** ****** ****** ****** ****** ****** ****** ****** ****** ******
      ****** ****** ****** ****** ****** ****** ****** ****** ****** ******
   3  ****** ****** ****** ****** ****** ****** ****** ****** ****** ******
      ****** ****** ****** ****** ****** ****** ****** ****** ****** ******
      ****** ****** ****** ****** ****** ****** ****** ****** ****** ******
   4  ****** ****** ****** ****** ****** ****** ****** ****** ****** ******
      ****** ****** ****** ****** ****** ****** ****** ****** ****** ******
      ****** ****** ****** ****** ****** ****** ****** ****** ****** ******
   5  ****** ****** ****** ****** ****** ****** ****** ****** ****** ******
      ****** ****** ****** ****** ****** ****** ****** ****** ****** ******
      ****** ****** ****** ****** ****** ****** ****** ****** ****** ******
   6  ****** ****** ****** ****** ****** ****** ****** ****** ****** ******
      ****** ****** ****** ****** ****** ****** ****** ****** ****** ******
      ****** ****** ****** ****** ****** ****** ****** ****** ****** ******
   7  ****** ****** ****** ****** ****** ****** ****** ****** ****** ******
      ****** ****** ****** ****** ****** ****** ****** ****** ****** ******
      ****** ****** ****** ****** ****** ****** ****** ****** ****** ******
   8  ****** ****** ****** ****** ****** ****** ****** ****** ****** ******
      ****** ****** ****** ****** ****** ****** ****** ****** ****** ******
      ****** ****** ****** ****** ****** ****** ****** ****** ****** ******
   9  ****** ****** ****** ****** ****** ****** ****** ****** ****** ******
      ****** ****** ****** ****** ****** ****** ****** ****** ****** ******
      ****** ****** ****** ****** ****** ****** ****** ****** ****** ******
  10  ****** ****** ****** ****** ****** ****** ****** ****** ****** ******
      ****** ****** ****** ****** ****** ****** ****** ****** ****** ******
      ****** ****** ****** ****** ****** ****** ****** ****** ****** ******
  11  ****** ****** ****** ****** ****** ****** ****** ****** ****** ******
      ****** ****** ****** ****** ****** ****** ****** ****** ****** ******
      ****** ****** ****** ****** ****** ****** ****** ****** ****** ******
  12  ****** ****** ****** ****** ****** ****** ****** ****** ****** ******
      ****** ****** ****** ****** ****** ****** ****** ****** ****** ******
      ****** ****** ****** ****** ****** ****** ****** ****** ****** ******
  13  ****** ****** ****** ****** ****** ****** ****** ****** ****** ******
      ****** ****** ****** ****** ****** ****** ****** ****** ****** ******
      ****** ****** ****** ****** ****** ****** ****** ****** ****** ******
  14  ****** ****** ****** ****** ****** ****** ****** ****** ****** ******
      ****** ****** ****** ****** ****** ****** ****** ****** ****** ******
      ****** ****** ****** ****** ****** ****** ****** ****** ****** ******
  15  ****** ****** ****** ****** ****** ****** ****** ****** ****** ******
      ****** ****** ****** ****** ****** ****** ****** ****** ****** ******
      ****** ****** ****** ****** ****** ****** ****** ****** ****** ******
  16  ****** ****** ****** ****** ****** ****** ****** ****** ****** ******
      ****** ****** ****** ****** ****** ****** ****** ****** ****** ******
      ****** ****** ****** ****** ****** ****** ****** ****** ****** ******
  17  ****** ****** ****** ****** ****** ****** ****** ****** ****** ******
      ****** ****** ****** ****** ****** ****** ****** ****** ****** ******
      ****** ****** ****** ****** ****** ****** ****** ****** ****** ******
  18  ****** ****** ****** ****** ****** ****** ****** ****** ****** ******
      ****** ****** ****** ****** ****** ****** ****** ****** ****** ******
      ****** ****** ****** ****** ****** ****** ****** ****** ****** ******
  19  ****** ****** ****** ****** ****** ****** ****** ****** ****** ******
      ****** ****** ****** ****** ****** ****** ****** ****** ****** ******
      ****** ****** ****** ****** ****** ****** ****** ****** ****** ******
  20  ****** ****** ****** ****** ****** ****** ****** ****** ****** ******
      ****** ****** ****** ****** ****** ****** ****** ****** ****** ******
      ****** ****** ****** ****** ****** ****** ****** ****** ****** ******
  21  ****** ****** ****** ****** ****** ****** ****** ****** ****** ******
      ****** ****** ****** ****** ****** ****** ****** ****** ****** ******
      ****** ****** ****** ****** ****** ****** ****** ****** ****** ******
  22  ****** ****** ****** ****** ****** ****** ****** ****** ****** ******
      ****** ****** ****** ****** ****** ****** ****** ****** ****** ******
      ****** ****** ****** ****** ****** ****** ****** ****** ****** ******
  23  ****** ****** ****** ****** ****** ****** ****** ****** ****** ******
      ****** ****** ****** ****** ****** ****** ****** ****** ****** ******
      ****** ****** ****** ****** ****** ****** ****** ****** ****** ******
  24  ****** ****** ****** ****** ****** ****** ****** ****** ****** ******
      ****** ****** ****** ****** ****** ****** ****** ****** ****** ******
      ****** ****** ****** ****** ****** ****** ****** ****** ****** ******
  25  ****** ****** ****** ****** ****** ****** ****** ****** ****** ******
      ****** ****** ****** ****** ****** ****** ****** ****** ****** ******
      ****** ****** ****** ****** ****** ****** ****** ****** ****** ******

 HEAD WILL BE SAVED ON UNIT   51 AT END OF TIME STEP    1, STRESS PERIOD   12
1
  VOLUMETRIC BUDGET FOR ENTIRE MODEL AT END OF TIME STEP    1, STRESS PERIOD  12
  ------------------------------------------------------------------------------

     CUMULATIVE VOLUMES      L**3       RATES FOR THIS TIME STEP      L**3/T
     ------------------                 ------------------------

           IN:                                      IN:
           ---                                      ---
             STORAGE =    23825400.4888               STORAGE =           0.0000
       CONSTANT HEAD =   138849263.1299         CONSTANT HEAD =      129487.9790
               WELLS =           0.0000                 WELLS =           0.0000
            RECHARGE =    26413200.0000              RECHARGE =       27600.0000
      STREAM LEAKAGE =     7200953.5834        STREAM LEAKAGE =        6735.7293

            TOTAL IN =   196288817.2020              TOTAL IN =      163823.7083

          OUT:                                     OUT:
          ----                                     ----
             STORAGE =     2692467.4870               STORAGE =        3739.0515
       CONSTANT HEAD =           0.0000         CONSTANT HEAD =           0.0000
               WELLS =    37364995.0428                 WELLS =       30094.0747
            RECHARGE =           0.0000              RECHARGE =           0.0000
      STREAM LEAKAGE =   156231355.5810        STREAM LEAKAGE =      129990.5813

           TOTAL OUT =   196288818.1108             TOTAL OUT =      163823.7075

            IN - OUT =          -0.9088              IN - OUT =       8.3505E-04

 PERCENT DISCREPANCY =          -0.00     PERCENT DISCREPANCY =           0.00






         TIME SUMMARY AT END OF TIME STEP    1 IN STRESS PERIOD   12
                    SECONDS     MINUTES      HOURS       DAYS        YEARS
                    -----------------------------------------------------------
   TIME STEP LENGTH 7.86240E+06 1.31040E+05  2184.0      91.000     0.24914    
 STRESS PERIOD TIME 7.86240E+06 1.31040E+05  2184.0      91.000     0.24914    
         TOTAL TIME 9.46080E+07 1.57680E+06  26280.      1095.0      2.9979    
1

 Run end date and time (yyyy/mm/dd hh:mm:ss): 2018/10/08 23:02:57
 Elapsed run time:  0.069 Seconds

