                                  MODFLOW-2005     
      U.S. GEOLOGICAL SURVEY MODULAR FINITE-DIFFERENCE GROUND-WATER FLOW MODEL
                            VERSION 1.11.00 8/8/2013

 LIST FILE: supply2.lst
                         UNIT   10

 OPENING ..\data\supply.dis
 FILE TYPE:DIS   UNIT   11   STATUS:OLD    
 FORMAT:FORMATTED              ACCESS:SEQUENTIAL          

 OPENING ..\data\supply.ba6
 FILE TYPE:BAS6   UNIT   12   STATUS:OLD    
 FORMAT:FORMATTED              ACCESS:SEQUENTIAL          

 OPENING ..\data\supply_het.bc6
 FILE TYPE:BCF6   UNIT   13   STATUS:OLD    
 FORMAT:FORMATTED              ACCESS:SEQUENTIAL          

 OPENING ..\data\supply.rch
 FILE TYPE:RCH   UNIT   15   STATUS:OLD    
 FORMAT:FORMATTED              ACCESS:SEQUENTIAL          

 OPENING ..\data\supply2.sfr
 FILE TYPE:SFR   UNIT   16   STATUS:OLD    
 FORMAT:FORMATTED              ACCESS:SEQUENTIAL          

 OPENING ..\data\supply.oc
 FILE TYPE:OC   UNIT   17   STATUS:OLD    
 FORMAT:FORMATTED              ACCESS:SEQUENTIAL          

 OPENING ..\data\supply.pcg
 FILE TYPE:PCG   UNIT   18   STATUS:OLD    
 FORMAT:FORMATTED              ACCESS:SEQUENTIAL          

 OPENING supply2.wel
 FILE TYPE:WEL   UNIT   19   STATUS:OLD    
 FORMAT:FORMATTED              ACCESS:SEQUENTIAL          

 OPENING supply2sf.cbc
 FILE TYPE:DATA(BINARY)   UNIT   50   STATUS:UNKNOWN
 FORMAT:BINARY                 ACCESS:SEQUENTIAL          

 OPENING supply2hd.bhd
 FILE TYPE:DATA(BINARY)   UNIT   51   STATUS:UNKNOWN
 FORMAT:BINARY                 ACCESS:SEQUENTIAL          

 BAS -- BASIC PACKAGE, VERSION 7, 5/2/2005 INPUT READ FROM UNIT   12
 
 MODFLOW was compiled using uniform precision
 Precision of REAL and DOUBLE PRECISION variables:          15

 DISCRETIZATION INPUT DATA READ FROM UNIT   11
    1 LAYERS        25 ROWS        30 COLUMNS
   12 STRESS PERIOD(S) IN SIMULATION
 MODEL TIME UNIT IS DAYS
 MODEL LENGTH UNIT IS UNDEFINED
  Confining bed flag for each layer:
   0

                     DELR =   200.000    

                     DELC =   200.000    

 TOP ELEVATION OF LAYER 1 =  100.0000    

   MODEL LAYER BOTTOM EL. =   0.00000     FOR LAYER   1


 STRESS PERIOD     LENGTH       TIME STEPS     MULTIPLIER FOR DELT    SS FLAG
 ----------------------------------------------------------------------------
        1         92.00000          1                    1.500         TR
        2         91.00000          1                    1.500         TR
        3         91.00000          1                    1.500         TR
        4         91.00000          1                    1.500         TR
        5         92.00000          1                    1.500         TR
        6         91.00000          1                    1.500         TR
        7         91.00000          1                    1.500         TR
        8         91.00000          1                    1.500         TR
        9         92.00000          1                    1.500         TR
       10         91.00000          1                    1.500         TR
       11         91.00000          1                    1.500         TR
       12         91.00000          1                    1.500         TR

 TRANSIENT SIMULATION



 
 #MODOFC transient water supply sample problem                                   
 #                                                                               
 THE FREE FORMAT OPTION HAS BEEN SELECTED



                     BOUNDARY ARRAY FOR LAYER   1
 READING ON UNIT   12 WITH FORMAT: (20I4)              

 AQUIFER HEAD WILL BE SET TO   0.0000     AT ALL NO-FLOW NODES (IBOUND=0).



                       INITIAL HEAD FOR LAYER   1
 READING ON UNIT   12 WITH FORMAT: (10F13.0)           

 OUTPUT CONTROL IS SPECIFIED ONLY AT TIME STEPS FOR WHICH OUTPUT IS DESIRED
 COMPACT CELL-BY-CELL BUDGET FILES WILL BE WRITTEN
 HEAD PRINT FORMAT CODE IS  18    DRAWDOWN PRINT FORMAT CODE IS   0
 HEADS WILL BE SAVED ON UNIT   51    DRAWDOWNS WILL BE SAVED ON UNIT    0

 BCF -- BLOCK-CENTERED FLOW PACKAGE, VERSION 7, 5/2/2005
         INPUT READ FROM UNIT 13
 TRANSIENT SIMULATION
 HEAD AT CELLS THAT CONVERT TO DRY=   0.0000    
 WETTING CAPABILITY IS NOT ACTIVE
      LAYER  LAYER-TYPE CODE     INTERBLOCK T
      --------------------------------------------
         1            0          0 -- HARMONIC    

 COLUMN TO ROW ANISOTROPY =  1.000000    

     PRIMARY STORAGE COEF =  5.000000E-02 FOR LAYER   1



               TRANSMIS. ALONG ROWS FOR LAYER   1
 READING ON UNIT   13 WITH FORMAT: (FREE)              

 WEL -- WELL PACKAGE, VERSION 7, 5/2/2005 INPUT READ FROM UNIT   19
 # Well package input file written by MMProc
 No named parameters
 MAXIMUM OF      4 ACTIVE WELLS AT ONE TIME


     0 Well parameters

 RCH -- RECHARGE PACKAGE, VERSION 7, 5/2/2005 INPUT READ FROM UNIT   15
 No named parameters
 OPTION 1 -- RECHARGE TO TOP LAYER


     0 Recharge parameters

 SFR7 -- STREAMFLOW ROUTING PACKAGE, VERSION 1.0.7, 2013-01-15
         INPUT READ FROM UNIT  16
 #  Supply2 test problem for GWM-VI
 #  The eighth entry in the first data line is ISTCB2 -
 #    Setting this to a negative number indicates that
 #    streamflows out of the reach will be saved to a
 #    binary file.  The absolute value of ISTCB2 is the
 #    unit to which unformatted flows will be written.
 #
 No named parameters
 Segment information will not be 
 read by reach
 No named parameters
 No specifed inflow files


 NUMBER OF STREAM REACHES IS   40

 NUMBER OF STREAM SEGMENTS IS    3

 NUMBER OF STREAM PARAMETERS IS    0

 NUMBER OF STREAM SEGMENTS DEFINED USING PARAMETERS IS              0

 MAXIMUM ERROR FOR STREAM LEAKAGE RATES IS  1.00E-04

 CONSTANT FOR MANNINGS EQUATION IS  1.2839E+05





   STREAM NETWORK DESCRIPTION: 

   LAYER    ROW    COL   SEGMENT   REACH     LENGTH
                          NUMBER   NUMBER    IN CELL        
   --------------------------------------------------
      1     13      1       1        1    2.0000E+02
      1     13      2       1        2    2.0000E+02
      1     14      3       1        3    2.0000E+02
      1     15      4       1        4    2.0000E+02
      1     16      5       1        5    2.0000E+02
      1     16      6       1        6    2.0000E+02
      1     16      7       1        7    2.0000E+02
      1     16      8       1        8    2.0000E+02
      1     16      9       1        9    2.0000E+02
      1     16     10       1       10    2.0000E+02
      1     16     11       1       11    2.0000E+02
      1     16     12       1       12    2.0000E+02
      1     15     13       1       13    2.0000E+02
      1     14     14       1       14    2.0000E+02
      1     13     15       1       15    2.0000E+02
      1     12     16       1       16    2.0000E+02
      1     12     17       1       17    2.0000E+02
      1     12     18       1       18    2.0000E+02
      1     12     19       1       19    2.0000E+02
      1     13     20       1       20    2.0000E+02
      1     14     21       1       21    2.0000E+02
      1     14     22       1       22    2.0000E+02
      1      9     30       2        1    2.0000E+02
      1      9     29       2        2    2.0000E+02
      1      9     28       2        3    2.0000E+02
      1      9     27       2        4    2.0000E+02
      1     10     26       2        5    2.0000E+02
      1     11     25       2        6    2.0000E+02
      1     12     24       2        7    2.0000E+02
      1     13     23       2        8    2.0000E+02
      1     14     22       2        9    2.0000E+02
      1     14     22       3        1    2.0000E+02
      1     15     23       3        2    2.0000E+02
      1     15     24       3        3    2.0000E+02
      1     15     25       3        4    2.0000E+02
      1     15     26       3        5    2.0000E+02
      1     16     27       3        6    2.0000E+02
      1     17     28       3        7    2.0000E+02
      1     18     29       3        8    2.0000E+02
      1     18     30       3        9    2.0000E+02




 PCG -- CONJUGATE-GRADIENT SOLUTION PACKAGE, VERSION 7, 5/2/2005
 MAXIMUM OF    500 CALLS OF SOLUTION ROUTINE
 MAXIMUM OF      5 INTERNAL ITERATIONS PER CALL TO SOLUTION ROUTINE
 MATRIX PRECONDITIONING TYPE :    1



                                    SOLUTION BY THE CONJUGATE-GRADIENT METHOD
                                   -------------------------------------------
                    MAXIMUM NUMBER OF CALLS TO PCG ROUTINE =      500
                        MAXIMUM ITERATIONS PER CALL TO PCG =        5
                               MATRIX PRECONDITIONING TYPE =        1
        RELAXATION FACTOR (ONLY USED WITH PRECOND. TYPE 1) =    0.10000E+01
 PARAMETER OF POLYNOMIAL PRECOND. = 2 (2) OR IS CALCULATED :        0
                         HEAD CHANGE CRITERION FOR CLOSURE =    0.10000E-05
                     RESIDUAL CHANGE CRITERION FOR CLOSURE =    0.10000E+01
            PCG HEAD AND RESIDUAL CHANGE PRINTOUT INTERVAL =        1
     PRINTING FROM SOLVER IS LIMITED(1) OR SUPPRESSED (>1) =        1
                            STEADY-STATE DAMPING PARAMETER =    0.10000E+01
                               TRANSIENT DAMPING PARAMETER =    0.10000E+01
1
                            STRESS PERIOD NO.    1, LENGTH =   92.00000    
                            -----------------------------------------------

                              NUMBER OF TIME STEPS =     1

                               MULTIPLIER FOR DELT =     1.500

                            INITIAL TIME STEP SIZE =   92.00000    

 WELL NO.  LAYER   ROW   COL   STRESS RATE         
 --------------------------------------------------
      1      1      6     15     -0.1070E+05
      2      1     13     17     -0.1103E+05
      3      1      5      8      -7262.    
      4      1      3     21      -1929.    

      4 WELLS

                 RECHARGE =  5.000000E-04



 CLASSIFICATION & COUNT OF STREAM SEGMENTS BASED ON SOURCE OF INFLOW:

                HEADWATER     DIVERSION     RECEIVES TRIBUTARY FLOW
                ---------     ---------     -----------------------
                     2              0               1



                    INPUT DATA FOR EACH STREAM SEGMENT
 ---------------------------------------------------------------------------------------------

 SEGMENT    SEG.     INFLOW   OVERLAND   STREAM    STREAM   ICALC  OUTFLOW  DIVERSION PRIORITY
    NO.    LENGTH     RATE     RUNOFF      ET       PPT.    METH.  TO SEG.  FROM SEG.    NO.

      1  4.400E+03 1.000E+05 0.000E+00 0.000E+00 0.000E+00    1        3        0        0
      2  1.800E+03 5.000E+04 0.000E+00 0.000E+00 0.000E+00    1        3        0        0
      3  1.800E+03 0.000E+00 0.000E+00 0.000E+00 0.000E+00    1        0        0        0


         STREAMBED PROPERTIES AND STREAM DIMENSIONS

 SEGMENT     BED HYD. COND.      BED THICKNESS     ELEV.-TOP OF BED     WIDTH OF STREAM     DEPTH OF STREAM    STREAM ROUGHNESS
    No.     UPPER     LOWER     UPPER     LOWER     UPPER     LOWER     UPPER     LOWER     UPPER     LOWER   CHANNEL      BANK

     1  5.000E+00 5.000E+00 1.000E+00 1.000E+00 4.850E+01 3.800E+01 2.000E+01 2.000E+01                     5.000E-02
     2  5.000E+00 5.000E+00 1.000E+00 1.000E+00 4.025E+01 3.800E+01 2.000E+01 2.000E+01                     5.000E-02
     3  5.000E+00 5.000E+00 1.000E+00 1.000E+00 3.800E+01 3.000E+01 2.000E+01 2.000E+01                     5.000E-02



 
 SOLVING FOR HEAD 


     9 CALLS TO PCG ROUTINE FOR TIME STEP   1 IN STRESS PERIOD    1
    36 TOTAL ITERATIONS

 OUTPUT CONTROL FOR STRESS PERIOD    1   TIME STEP    1
    SAVE BUDGET
    SAVE HEAD FOR ALL LAYERS
    PRINT HEAD FOR ALL LAYERS
 UBDSV2 SAVING "STREAMFLOW OUT  " ON UNIT  50 AT TIME STEP  1, STRESS PERIOD   1



 STREAM LISTING     PERIOD      1   STEP        1

 LAYER ROW COL. STREAM  RCH.  FLOW INTO     FLOW TO   FLOW OUT OF   OVRLND.     DIRECT     STREAM       STREAM     STREAM     STREAM   STREAMBED  STREAMBED
                SEG.NO.  NO.  STRM. RCH.    AQUIFER    STRM. RCH.    RUNOFF     PRECIP       ET          HEAD       DEPTH      WIDTH   CONDCTNC.   GRADIENT

   1   13    1     1     1    1.0000E+05 -6.0068E+03   1.0601E+05  0.000E+00  0.000E+00  0.000E+00  4.84086E+01  1.472E-01  2.000E+01  2.000E+04 -3.003E-01
   1   13    2     1     2    1.0601E+05 -7.4720E+03   1.1348E+05  0.000E+00  0.000E+00  0.000E+00  4.79370E+01  1.530E-01  2.000E+01  2.000E+04 -3.736E-01
   1   14    3     1     3    1.1348E+05 -2.1936E+03   1.1567E+05  0.000E+00  0.000E+00  0.000E+00  4.74638E+01  1.570E-01  2.000E+01  2.000E+04 -1.097E-01
   1   15    4     1     4    1.1567E+05 -2.2677E+03   1.1794E+05  0.000E+00  0.000E+00  0.000E+00  4.69883E+01  1.588E-01  2.000E+01  2.000E+04 -1.134E-01
   1   16    5     1     5    1.1794E+05 -7.1830E+03   1.2512E+05  0.000E+00  0.000E+00  0.000E+00  4.65149E+01  1.626E-01  2.000E+01  2.000E+04 -3.591E-01
   1   16    6     1     6    1.2512E+05 -4.3011E+03   1.2942E+05  0.000E+00  0.000E+00  0.000E+00  4.60422E+01  1.672E-01  2.000E+01  2.000E+04 -2.151E-01
   1   16    7     1     7    1.2942E+05 -4.1352E+03   1.3356E+05  0.000E+00  0.000E+00  0.000E+00  4.55682E+01  1.705E-01  2.000E+01  2.000E+04 -2.068E-01
   1   16    8     1     8    1.3356E+05 -4.0932E+03   1.3765E+05  0.000E+00  0.000E+00  0.000E+00  4.50941E+01  1.737E-01  2.000E+01  2.000E+04 -2.047E-01
   1   16    9     1     9    1.3765E+05 -4.0806E+03   1.4173E+05  0.000E+00  0.000E+00  0.000E+00  4.46200E+01  1.768E-01  2.000E+01  2.000E+04 -2.040E-01
   1   16   10     1    10    1.4173E+05 -4.0741E+03   1.4581E+05  0.000E+00  0.000E+00  0.000E+00  4.41458E+01  1.799E-01  2.000E+01  2.000E+04 -2.037E-01
   1   16   11     1    11    1.4581E+05 -4.1002E+03   1.4991E+05  0.000E+00  0.000E+00  0.000E+00  4.36715E+01  1.829E-01  2.000E+01  2.000E+04 -2.050E-01
   1   16   12     1    12    1.4991E+05 -6.8904E+03   1.5680E+05  0.000E+00  0.000E+00  0.000E+00  4.31983E+01  1.870E-01  2.000E+01  2.000E+04 -3.445E-01
   1   15   13     1    13    1.5680E+05 -7.0391E+03   1.6384E+05  0.000E+00  0.000E+00  0.000E+00  4.27261E+01  1.920E-01  2.000E+01  2.000E+04 -3.520E-01
   1   14   14     1    14    1.6384E+05 -7.1812E+03   1.7102E+05  0.000E+00  0.000E+00  0.000E+00  4.22539E+01  1.971E-01  2.000E+01  2.000E+04 -3.591E-01
   1   13   15     1    15    1.7102E+05 -6.4177E+03   1.7744E+05  0.000E+00  0.000E+00  0.000E+00  4.17814E+01  2.018E-01  2.000E+01  2.000E+04 -3.209E-01
   1   12   16     1    16    1.7744E+05 -7.0141E+03   1.8445E+05  0.000E+00  0.000E+00  0.000E+00  4.13087E+01  2.065E-01  2.000E+01  2.000E+04 -3.507E-01
   1   12   17     1    17    1.8445E+05 -2.4359E+03   1.8689E+05  0.000E+00  0.000E+00  0.000E+00  4.08347E+01  2.097E-01  2.000E+01  2.000E+04 -1.218E-01
   1   12   18     1    18    1.8689E+05 -4.5669E+03   1.9145E+05  0.000E+00  0.000E+00  0.000E+00  4.03598E+01  2.120E-01  2.000E+01  2.000E+04 -2.283E-01
   1   12   19     1    19    1.9145E+05 -6.9722E+03   1.9842E+05  0.000E+00  0.000E+00  0.000E+00  3.98864E+01  2.159E-01  2.000E+01  2.000E+04 -3.486E-01
   1   13   20     1    20    1.9842E+05 -6.1443E+03   2.0457E+05  0.000E+00  0.000E+00  0.000E+00  3.94134E+01  2.202E-01  2.000E+01  2.000E+04 -3.072E-01
   1   14   21     1    21    2.0457E+05 -6.1285E+03   2.1070E+05  0.000E+00  0.000E+00  0.000E+00  3.89401E+01  2.242E-01  2.000E+01  2.000E+04 -3.064E-01
   1   14   22     1    22    2.1070E+05  3.6161E+03   2.0708E+05  0.000E+00  0.000E+00  0.000E+00  3.84637E+01  2.250E-01  2.000E+01  2.000E+04  1.808E-01
   1    9   30     2     1    5.0000E+04 -4.8287E+03   5.4829E+04  0.000E+00  0.000E+00  0.000E+00  4.02442E+01  1.192E-01  2.000E+01  2.000E+04 -2.414E-01
   1    9   29     2     2    5.4829E+04 -5.1195E+03   5.9948E+04  0.000E+00  0.000E+00  0.000E+00  4.00009E+01  1.259E-01  2.000E+01  2.000E+04 -2.560E-01
   1    9   28     2     3    5.9948E+04 -5.3926E+03   6.5341E+04  0.000E+00  0.000E+00  0.000E+00  3.97576E+01  1.326E-01  2.000E+01  2.000E+04 -2.696E-01
   1    9   27     2     4    6.5341E+04 -8.1786E+03   7.3519E+04  0.000E+00  0.000E+00  0.000E+00  3.95161E+01  1.411E-01  2.000E+01  2.000E+04 -4.089E-01
   1   10   26     2     5    7.3519E+04 -7.2235E+03   8.0743E+04  0.000E+00  0.000E+00  0.000E+00  3.92753E+01  1.503E-01  2.000E+01  2.000E+04 -3.612E-01
   1   11   25     2     6    8.0743E+04 -6.6794E+03   8.7422E+04  0.000E+00  0.000E+00  0.000E+00  3.90333E+01  1.583E-01  2.000E+01  2.000E+04 -3.340E-01
   1   12   24     2     7    8.7422E+04 -6.1892E+03   9.3611E+04  0.000E+00  0.000E+00  0.000E+00  3.87904E+01  1.654E-01  2.000E+01  2.000E+04 -3.095E-01
   1   13   23     2     8    9.3611E+04 -1.6346E+03   9.5246E+04  0.000E+00  0.000E+00  0.000E+00  3.85447E+01  1.697E-01  2.000E+01  2.000E+04 -8.173E-02
   1   14   22     2     9    9.5246E+04  2.5094E+02   9.4995E+04  0.000E+00  0.000E+00  0.000E+00  3.82954E+01  1.704E-01  2.000E+01  2.000E+04  1.255E-02
   1   14   22     3     1    3.0208E+05 -9.8409E+03   3.1192E+05  0.000E+00  0.000E+00  0.000E+00  3.77908E+01  2.353E-01  2.000E+01  2.000E+04 -4.920E-01
   1   15   23     3     2    3.1192E+05 -1.9714E+03   3.1389E+05  0.000E+00  0.000E+00  0.000E+00  3.69046E+01  2.380E-01  2.000E+01  2.000E+04 -9.857E-02
   1   15   24     3     3    3.1389E+05 -1.5280E+03   3.1542E+05  0.000E+00  0.000E+00  0.000E+00  3.60166E+01  2.388E-01  2.000E+01  2.000E+04 -7.640E-02
   1   15   25     3     4    3.1542E+05 -1.5788E+03   3.1700E+05  0.000E+00  0.000E+00  0.000E+00  3.51284E+01  2.395E-01  2.000E+01  2.000E+04 -7.894E-02
   1   15   26     3     5    3.1700E+05 -1.8828E+03   3.1888E+05  0.000E+00  0.000E+00  0.000E+00  3.42403E+01  2.403E-01  2.000E+01  2.000E+04 -9.414E-02
   1   16   27     3     6    3.1888E+05 -2.1642E+03   3.2104E+05  0.000E+00  0.000E+00  0.000E+00  3.33523E+01  2.412E-01  2.000E+01  2.000E+04 -1.082E-01
   1   17   28     3     7    3.2104E+05 -6.5787E+03   3.2762E+05  0.000E+00  0.000E+00  0.000E+00  3.24654E+01  2.432E-01  2.000E+01  2.000E+04 -3.289E-01
   1   18   29     3     8    3.2762E+05 -7.9900E+03   3.3561E+05  0.000E+00  0.000E+00  0.000E+00  3.15798E+01  2.464E-01  2.000E+01  2.000E+04 -3.995E-01
   1   18   30     3     9    3.3561E+05 -7.1724E+03   3.4278E+05  0.000E+00  0.000E+00  0.000E+00  3.06942E+01  2.498E-01  2.000E+01  2.000E+04 -3.586E-01



1
              HEAD IN LAYER   1 AT END OF TIME STEP   1 IN STRESS PERIOD    1
  ---------------------------------------------------------------------------

          1      2      3      4      5      6      7      8      9     10
         11     12     13     14     15     16     17     18     19     20
         21     22     23     24     25     26     27     28     29     30
 .........................................................................
   1  ****** ****** ****** ****** ****** ****** ****** ****** ****** ******
      ****** ****** ****** ****** ****** ****** ****** ****** ****** ******
      ****** ****** ****** ****** ****** ****** ****** ****** ****** ******
   2  ****** ****** ****** ****** ****** ****** ****** ****** ****** ******
      ****** ****** ****** ****** ****** ****** ****** ****** ****** ******
      ****** ****** ****** ****** ****** ****** ****** ****** ****** ******
   3  ****** ****** ****** ****** ****** ****** ****** ****** ****** ******
      ****** ****** ****** ****** ****** ****** ****** ****** ****** ******
      ****** ****** ****** ****** ****** ****** ****** ****** ****** ******
   4  ****** ****** ****** ****** ****** ****** ****** ****** ****** ******
      ****** ****** ****** ****** ****** ****** ****** ****** ****** ******
      ****** ****** ****** ****** ****** ****** ****** ****** ****** ******
   5  ****** ****** ****** ****** ****** ****** ****** ****** ****** ******
      ****** ****** ****** ****** ****** ****** ****** ****** ****** ******
      ****** ****** ****** ****** ****** ****** ****** ****** ****** ******
   6  ****** ****** ****** ****** ****** ****** ****** ****** ****** ******
      ****** ****** ****** ****** ****** ****** ****** ****** ****** ******
      ****** ****** ****** ****** ****** ****** ****** ****** ****** ******
   7  ****** ****** ****** ****** ****** ****** ****** ****** ****** ******
      ****** ****** ****** ****** ****** ****** ****** ****** ****** ******
      ****** ****** ****** ****** ****** ****** ****** ****** ****** ******
   8  ****** ****** ****** ****** ****** ****** ****** ****** ****** ******
      ****** ****** ****** ****** ****** ****** ****** ****** ****** ******
      ****** ****** ****** ****** ****** ****** ****** ****** ****** ******
   9  ****** ****** ****** ****** ****** ****** ****** ****** ****** ******
      ****** ****** ****** ****** ****** ****** ****** ****** ****** ******
      ****** ****** ****** ****** ****** ****** ****** ****** ****** ******
  10  ****** ****** ****** ****** ****** ****** ****** ****** ****** ******
      ****** ****** ****** ****** ****** ****** ****** ****** ****** ******
      ****** ****** ****** ****** ****** ****** ****** ****** ****** ******
  11  ****** ****** ****** ****** ****** ****** ****** ****** ****** ******
      ****** ****** ****** ****** ****** ****** ****** ****** ****** ******
      ****** ****** ****** ****** ****** ****** ****** ****** ****** ******
  12  ****** ****** ****** ****** ****** ****** ****** ****** ****** ******
      ****** ****** ****** ****** ****** ****** ****** ****** ****** ******
      ****** ****** ****** ****** ****** ****** ****** ****** ****** ******
  13  ****** ****** ****** ****** ****** ****** ****** ****** ****** ******
      ****** ****** ****** ****** ****** ****** ****** ****** ****** ******
      ****** ****** ****** ****** ****** ****** ****** ****** ****** ******
  14  ****** ****** ****** ****** ****** ****** ****** ****** ****** ******
      ****** ****** ****** ****** ****** ****** ****** ****** ****** ******
      ****** ****** ****** ****** ****** ****** ****** ****** ****** ******
  15  ****** ****** ****** ****** ****** ****** ****** ****** ****** ******
      ****** ****** ****** ****** ****** ****** ****** ****** ****** ******
      ****** ****** ****** ****** ****** ****** ****** ****** ****** ******
  16  ****** ****** ****** ****** ****** ****** ****** ****** ****** ******
      ****** ****** ****** ****** ****** ****** ****** ****** ****** ******
      ****** ****** ****** ****** ****** ****** ****** ****** ****** ******
  17  ****** ****** ****** ****** ****** ****** ****** ****** ****** ******
      ****** ****** ****** ****** ****** ****** ****** ****** ****** ******
      ****** ****** ****** ****** ****** ****** ****** ****** ****** ******
  18  ****** ****** ****** ****** ****** ****** ****** ****** ****** ******
      ****** ****** ****** ****** ****** ****** ****** ****** ****** ******
      ****** ****** ****** ****** ****** ****** ****** ****** ****** ******
  19  ****** ****** ****** ****** ****** ****** ****** ****** ****** ******
      ****** ****** ****** ****** ****** ****** ****** ****** ****** ******
      ****** ****** ****** ****** ****** ****** ****** ****** ****** ******
  20  ****** ****** ****** ****** ****** ****** ****** ****** ****** ******
      ****** ****** ****** ****** ****** ****** ****** ****** ****** ******
      ****** ****** ****** ****** ****** ****** ****** ****** ****** ******
  21  ****** ****** ****** ****** ****** ****** ****** ****** ****** ******
      ****** ****** ****** ****** ****** ****** ****** ****** ****** ******
      ****** ****** ****** ****** ****** ****** ****** ****** ****** ******
  22  ****** ****** ****** ****** ****** ****** ****** ****** ****** ******
      ****** ****** ****** ****** ****** ****** ****** ****** ****** ******
      ****** ****** ****** ****** ****** ****** ****** ****** ****** ******
  23  ****** ****** ****** ****** ****** ****** ****** ****** ****** ******
      ****** ****** ****** ****** ****** ****** ****** ****** ****** ******
      ****** ****** ****** ****** ****** ****** ****** ****** ****** ******
  24  ****** ****** ****** ****** ****** ****** ****** ****** ****** ******
      ****** ****** ****** ****** ****** ****** ****** ****** ****** ******
      ****** ****** ****** ****** ****** ****** ****** ****** ****** ******
  25  ****** ****** ****** ****** ****** ****** ****** ****** ****** ******
      ****** ****** ****** ****** ****** ****** ****** ****** ****** ******
      ****** ****** ****** ****** ****** ****** ****** ****** ****** ******

 HEAD WILL BE SAVED ON UNIT   51 AT END OF TIME STEP    1, STRESS PERIOD    1
1
  VOLUMETRIC BUDGET FOR ENTIRE MODEL AT END OF TIME STEP    1, STRESS PERIOD   1
  ------------------------------------------------------------------------------

     CUMULATIVE VOLUMES      L**3       RATES FOR THIS TIME STEP      L**3/T
     ------------------                 ------------------------

           IN:                                      IN:
           ---                                      ---
             STORAGE =    18079870.4103               STORAGE =      196520.3305
       CONSTANT HEAD =     1231665.5795         CONSTANT HEAD =       13387.6693
               WELLS =           0.0000                 WELLS =           0.0000
            RECHARGE =     1269600.0000              RECHARGE =       13800.0000
      STREAM LEAKAGE =      355766.4252        STREAM LEAKAGE =        3867.0264

            TOTAL IN =    20936902.4150              TOTAL IN =      227575.0262

          OUT:                                     OUT:
          ----                                     ----
             STORAGE =           0.0000               STORAGE =           0.0000
       CONSTANT HEAD =           0.0000         CONSTANT HEAD =           0.0000
               WELLS =     2845036.4142                 WELLS =       30924.3089
            RECHARGE =           0.0000              RECHARGE =           0.0000
      STREAM LEAKAGE =    18091866.2896        STREAM LEAKAGE =      196650.7205

           TOTAL OUT =    20936902.7038             TOTAL OUT =      227575.0294

            IN - OUT =          -0.2889              IN - OUT =      -3.1399E-03

 PERCENT DISCREPANCY =          -0.00     PERCENT DISCREPANCY =          -0.00






         TIME SUMMARY AT END OF TIME STEP    1 IN STRESS PERIOD    1
                    SECONDS     MINUTES      HOURS       DAYS        YEARS
                    -----------------------------------------------------------
   TIME STEP LENGTH 7.94880E+06 1.32480E+05  2208.0      92.000     0.25188    
 STRESS PERIOD TIME 7.94880E+06 1.32480E+05  2208.0      92.000     0.25188    
         TOTAL TIME 7.94880E+06 1.32480E+05  2208.0      92.000     0.25188    
1
1
                            STRESS PERIOD NO.    2, LENGTH =   91.00000    
                            -----------------------------------------------

                              NUMBER OF TIME STEPS =     1

                               MULTIPLIER FOR DELT =     1.500

                            INITIAL TIME STEP SIZE =   91.00000    

 WELL NO.  LAYER   ROW   COL   STRESS RATE         
 --------------------------------------------------
      1      1      6     15     -0.1070E+05
      2      1     13     17     -0.1103E+05
      3      1      5      8      -7262.    
      4      1      3     21      -1929.    

      4 WELLS

                 RECHARGE =  2.000000E-03

 REUSING STREAM SEGMENT DATA FROM LAST STRESS PERIOD
 
 SOLVING FOR HEAD 


     7 CALLS TO PCG ROUTINE FOR TIME STEP   1 IN STRESS PERIOD    2
    27 TOTAL ITERATIONS

 OUTPUT CONTROL FOR STRESS PERIOD    2   TIME STEP    1
    SAVE BUDGET
    SAVE HEAD FOR ALL LAYERS
    PRINT HEAD FOR ALL LAYERS
 UBDSV2 SAVING "STREAMFLOW OUT  " ON UNIT  50 AT TIME STEP  1, STRESS PERIOD   2



 STREAM LISTING     PERIOD      2   STEP        1

 LAYER ROW COL. STREAM  RCH.  FLOW INTO     FLOW TO   FLOW OUT OF   OVRLND.     DIRECT     STREAM       STREAM     STREAM     STREAM   STREAMBED  STREAMBED
                SEG.NO.  NO.  STRM. RCH.    AQUIFER    STRM. RCH.    RUNOFF     PRECIP       ET          HEAD       DEPTH      WIDTH   CONDCTNC.   GRADIENT

   1   13    1     1     1    1.0000E+05 -3.7403E+03   1.0374E+05  0.000E+00  0.000E+00  0.000E+00  4.84076E+01  1.463E-01  2.000E+01  2.000E+04 -1.870E-01
   1   13    2     1     2    1.0374E+05 -4.9880E+03   1.0873E+05  0.000E+00  0.000E+00  0.000E+00  4.79341E+01  1.500E-01  2.000E+01  2.000E+04 -2.494E-01
   1   14    3     1     3    1.0873E+05 -1.1008E+03   1.0983E+05  0.000E+00  0.000E+00  0.000E+00  4.74594E+01  1.526E-01  2.000E+01  2.000E+04 -5.504E-02
   1   15    4     1     4    1.0983E+05 -1.1358E+03   1.1096E+05  0.000E+00  0.000E+00  0.000E+00  4.69830E+01  1.535E-01  2.000E+01  2.000E+04 -5.679E-02
   1   16    5     1     5    1.1096E+05 -4.2493E+03   1.1521E+05  0.000E+00  0.000E+00  0.000E+00  4.65080E+01  1.557E-01  2.000E+01  2.000E+04 -2.125E-01
   1   16    6     1     6    1.1521E+05 -2.5014E+03   1.1772E+05  0.000E+00  0.000E+00  0.000E+00  4.60335E+01  1.585E-01  2.000E+01  2.000E+04 -1.251E-01
   1   16    7     1     7    1.1772E+05 -2.4056E+03   1.2012E+05  0.000E+00  0.000E+00  0.000E+00  4.55582E+01  1.605E-01  2.000E+01  2.000E+04 -1.203E-01
   1   16    8     1     8    1.2012E+05 -2.3745E+03   1.2250E+05  0.000E+00  0.000E+00  0.000E+00  4.50829E+01  1.624E-01  2.000E+01  2.000E+04 -1.187E-01
   1   16    9     1     9    1.2250E+05 -2.3509E+03   1.2485E+05  0.000E+00  0.000E+00  0.000E+00  4.46075E+01  1.643E-01  2.000E+01  2.000E+04 -1.175E-01
   1   16   10     1    10    1.2485E+05 -2.3214E+03   1.2717E+05  0.000E+00  0.000E+00  0.000E+00  4.41321E+01  1.662E-01  2.000E+01  2.000E+04 -1.161E-01
   1   16   11     1    11    1.2717E+05 -2.3150E+03   1.2948E+05  0.000E+00  0.000E+00  0.000E+00  4.36566E+01  1.680E-01  2.000E+01  2.000E+04 -1.158E-01
   1   16   12     1    12    1.2948E+05 -3.9615E+03   1.3344E+05  0.000E+00  0.000E+00  0.000E+00  4.31818E+01  1.705E-01  2.000E+01  2.000E+04 -1.981E-01
   1   15   13     1    13    1.3344E+05 -3.6861E+03   1.3713E+05  0.000E+00  0.000E+00  0.000E+00  4.27075E+01  1.734E-01  2.000E+01  2.000E+04 -1.843E-01
   1   14   14     1    14    1.3713E+05 -3.6208E+03   1.4075E+05  0.000E+00  0.000E+00  0.000E+00  4.22330E+01  1.762E-01  2.000E+01  2.000E+04 -1.810E-01
   1   13   15     1    15    1.4075E+05 -2.7512E+03   1.4350E+05  0.000E+00  0.000E+00  0.000E+00  4.17582E+01  1.786E-01  2.000E+01  2.000E+04 -1.376E-01
   1   12   16     1    16    1.4350E+05 -3.4288E+03   1.4693E+05  0.000E+00  0.000E+00  0.000E+00  4.12832E+01  1.809E-01  2.000E+01  2.000E+04 -1.714E-01
   1   12   17     1    17    1.4693E+05  3.5633E+02   1.4657E+05  0.000E+00  0.000E+00  0.000E+00  4.08071E+01  1.821E-01  2.000E+01  2.000E+04  1.782E-02
   1   12   18     1    18    1.4657E+05 -1.8356E+03   1.4841E+05  0.000E+00  0.000E+00  0.000E+00  4.03304E+01  1.826E-01  2.000E+01  2.000E+04 -9.178E-02
   1   12   19     1    19    1.4841E+05 -3.6366E+03   1.5205E+05  0.000E+00  0.000E+00  0.000E+00  3.98551E+01  1.847E-01  2.000E+01  2.000E+04 -1.818E-01
   1   13   20     1    20    1.5205E+05 -2.9243E+03   1.5497E+05  0.000E+00  0.000E+00  0.000E+00  3.93803E+01  1.871E-01  2.000E+01  2.000E+04 -1.462E-01
   1   14   21     1    21    1.5497E+05 -3.3605E+03   1.5833E+05  0.000E+00  0.000E+00  0.000E+00  3.89053E+01  1.894E-01  2.000E+01  2.000E+04 -1.680E-01
   1   14   22     1    22    1.5833E+05  4.3630E+03   1.5397E+05  0.000E+00  0.000E+00  0.000E+00  3.84276E+01  1.890E-01  2.000E+01  2.000E+04  2.181E-01
   1    9   30     2     1    5.0000E+04 -2.0895E+03   5.2089E+04  0.000E+00  0.000E+00  0.000E+00  4.02423E+01  1.173E-01  2.000E+01  2.000E+04 -1.045E-01
   1    9   29     2     2    5.2089E+04 -2.3905E+03   5.4480E+04  0.000E+00  0.000E+00  0.000E+00  3.99954E+01  1.204E-01  2.000E+01  2.000E+04 -1.195E-01
   1    9   28     2     3    5.4480E+04 -2.6722E+03   5.7152E+04  0.000E+00  0.000E+00  0.000E+00  3.97488E+01  1.238E-01  2.000E+01  2.000E+04 -1.336E-01
   1    9   27     2     4    5.7152E+04 -4.6354E+03   6.1788E+04  0.000E+00  0.000E+00  0.000E+00  3.95036E+01  1.286E-01  2.000E+01  2.000E+04 -2.318E-01
   1   10   26     2     5    6.1788E+04 -3.5516E+03   6.5339E+04  0.000E+00  0.000E+00  0.000E+00  3.92588E+01  1.338E-01  2.000E+01  2.000E+04 -1.776E-01
   1   11   25     2     6    6.5339E+04 -3.1663E+03   6.8505E+04  0.000E+00  0.000E+00  0.000E+00  3.90130E+01  1.380E-01  2.000E+01  2.000E+04 -1.583E-01
   1   12   24     2     7    6.8505E+04 -3.0303E+03   7.1536E+04  0.000E+00  0.000E+00  0.000E+00  3.87668E+01  1.418E-01  2.000E+01  2.000E+04 -1.515E-01
   1   13   23     2     8    7.1536E+04 -5.8120E+02   7.2117E+04  0.000E+00  0.000E+00  0.000E+00  3.85190E+01  1.440E-01  2.000E+01  2.000E+04 -2.906E-02
   1   14   22     2     9    7.2117E+04  1.1830E+03   7.0934E+04  0.000E+00  0.000E+00  0.000E+00  3.82686E+01  1.436E-01  2.000E+01  2.000E+04  5.915E-02
   1   14   22     3     1    2.2490E+05 -9.1271E+03   2.3403E+05  0.000E+00  0.000E+00  0.000E+00  3.77531E+01  1.976E-01  2.000E+01  2.000E+04 -4.564E-01
   1   15   23     3     2    2.3403E+05 -1.0290E+03   2.3506E+05  0.000E+00  0.000E+00  0.000E+00  3.68669E+01  2.002E-01  2.000E+01  2.000E+04 -5.145E-02
   1   15   24     3     3    2.3506E+05 -6.6162E+02   2.3572E+05  0.000E+00  0.000E+00  0.000E+00  3.59784E+01  2.006E-01  2.000E+01  2.000E+04 -3.308E-02
   1   15   25     3     4    2.3572E+05 -6.6980E+02   2.3639E+05  0.000E+00  0.000E+00  0.000E+00  3.50898E+01  2.010E-01  2.000E+01  2.000E+04 -3.349E-02
   1   15   26     3     5    2.3639E+05 -7.7257E+02   2.3716E+05  0.000E+00  0.000E+00  0.000E+00  3.42013E+01  2.013E-01  2.000E+01  2.000E+04 -3.863E-02
   1   16   27     3     6    2.3716E+05 -8.9767E+02   2.3806E+05  0.000E+00  0.000E+00  0.000E+00  3.33129E+01  2.018E-01  2.000E+01  2.000E+04 -4.488E-02
   1   17   28     3     7    2.3806E+05 -3.2550E+03   2.4132E+05  0.000E+00  0.000E+00  0.000E+00  3.24250E+01  2.028E-01  2.000E+01  2.000E+04 -1.627E-01
   1   18   29     3     8    2.4132E+05 -5.0461E+03   2.4636E+05  0.000E+00  0.000E+00  0.000E+00  3.15382E+01  2.049E-01  2.000E+01  2.000E+04 -2.523E-01
   1   18   30     3     9    2.4636E+05 -4.6794E+03   2.5104E+05  0.000E+00  0.000E+00  0.000E+00  3.06518E+01  2.074E-01  2.000E+01  2.000E+04 -2.340E-01



1
              HEAD IN LAYER   1 AT END OF TIME STEP   1 IN STRESS PERIOD    2
  ---------------------------------------------------------------------------

          1      2      3      4      5      6      7      8      9     10
         11     12     13     14     15     16     17     18     19     20
         21     22     23     24     25     26     27     28     29     30
 .........................................................................
   1  ****** ****** ****** ****** ****** ****** ****** ****** ****** ******
      ****** ****** ****** ****** ****** ****** ****** ****** ****** ******
      ****** ****** ****** ****** ****** ****** ****** ****** ****** ******
   2  ****** ****** ****** ****** ****** ****** ****** ****** ****** ******
      ****** ****** ****** ****** ****** ****** ****** ****** ****** ******
      ****** ****** ****** ****** ****** ****** ****** ****** ****** ******
   3  ****** ****** ****** ****** ****** ****** ****** ****** ****** ******
      ****** ****** ****** ****** ****** ****** ****** ****** ****** ******
      ****** ****** ****** ****** ****** ****** ****** ****** ****** ******
   4  ****** ****** ****** ****** ****** ****** ****** ****** ****** ******
      ****** ****** ****** ****** ****** ****** ****** ****** ****** ******
      ****** ****** ****** ****** ****** ****** ****** ****** ****** ******
   5  ****** ****** ****** ****** ****** ****** ****** ****** ****** ******
      ****** ****** ****** ****** ****** ****** ****** ****** ****** ******
      ****** ****** ****** ****** ****** ****** ****** ****** ****** ******
   6  ****** ****** ****** ****** ****** ****** ****** ****** ****** ******
      ****** ****** ****** ****** ****** ****** ****** ****** ****** ******
      ****** ****** ****** ****** ****** ****** ****** ****** ****** ******
   7  ****** ****** ****** ****** ****** ****** ****** ****** ****** ******
      ****** ****** ****** ****** ****** ****** ****** ****** ****** ******
      ****** ****** ****** ****** ****** ****** ****** ****** ****** ******
   8  ****** ****** ****** ****** ****** ****** ****** ****** ****** ******
      ****** ****** ****** ****** ****** ****** ****** ****** ****** ******
      ****** ****** ****** ****** ****** ****** ****** ****** ****** ******
   9  ****** ****** ****** ****** ****** ****** ****** ****** ****** ******
      ****** ****** ****** ****** ****** ****** ****** ****** ****** ******
      ****** ****** ****** ****** ****** ****** ****** ****** ****** ******
  10  ****** ****** ****** ****** ****** ****** ****** ****** ****** ******
      ****** ****** ****** ****** ****** ****** ****** ****** ****** ******
      ****** ****** ****** ****** ****** ****** ****** ****** ****** ******
  11  ****** ****** ****** ****** ****** ****** ****** ****** ****** ******
      ****** ****** ****** ****** ****** ****** ****** ****** ****** ******
      ****** ****** ****** ****** ****** ****** ****** ****** ****** ******
  12  ****** ****** ****** ****** ****** ****** ****** ****** ****** ******
      ****** ****** ****** ****** ****** ****** ****** ****** ****** ******
      ****** ****** ****** ****** ****** ****** ****** ****** ****** ******
  13  ****** ****** ****** ****** ****** ****** ****** ****** ****** ******
      ****** ****** ****** ****** ****** ****** ****** ****** ****** ******
      ****** ****** ****** ****** ****** ****** ****** ****** ****** ******
  14  ****** ****** ****** ****** ****** ****** ****** ****** ****** ******
      ****** ****** ****** ****** ****** ****** ****** ****** ****** ******
      ****** ****** ****** ****** ****** ****** ****** ****** ****** ******
  15  ****** ****** ****** ****** ****** ****** ****** ****** ****** ******
      ****** ****** ****** ****** ****** ****** ****** ****** ****** ******
      ****** ****** ****** ****** ****** ****** ****** ****** ****** ******
  16  ****** ****** ****** ****** ****** ****** ****** ****** ****** ******
      ****** ****** ****** ****** ****** ****** ****** ****** ****** ******
      ****** ****** ****** ****** ****** ****** ****** ****** ****** ******
  17  ****** ****** ****** ****** ****** ****** ****** ****** ****** ******
      ****** ****** ****** ****** ****** ****** ****** ****** ****** ******
      ****** ****** ****** ****** ****** ****** ****** ****** ****** ******
  18  ****** ****** ****** ****** ****** ****** ****** ****** ****** ******
      ****** ****** ****** ****** ****** ****** ****** ****** ****** ******
      ****** ****** ****** ****** ****** ****** ****** ****** ****** ******
  19  ****** ****** ****** ****** ****** ****** ****** ****** ****** ******
      ****** ****** ****** ****** ****** ****** ****** ****** ****** ******
      ****** ****** ****** ****** ****** ****** ****** ****** ****** ******
  20  ****** ****** ****** ****** ****** ****** ****** ****** ****** ******
      ****** ****** ****** ****** ****** ****** ****** ****** ****** ******
      ****** ****** ****** ****** ****** ****** ****** ****** ****** ******
  21  ****** ****** ****** ****** ****** ****** ****** ****** ****** ******
      ****** ****** ****** ****** ****** ****** ****** ****** ****** ******
      ****** ****** ****** ****** ****** ****** ****** ****** ****** ******
  22  ****** ****** ****** ****** ****** ****** ****** ****** ****** ******
      ****** ****** ****** ****** ****** ****** ****** ****** ****** ******
      ****** ****** ****** ****** ****** ****** ****** ****** ****** ******
  23  ****** ****** ****** ****** ****** ****** ****** ****** ****** ******
      ****** ****** ****** ****** ****** ****** ****** ****** ****** ******
      ****** ****** ****** ****** ****** ****** ****** ****** ****** ******
  24  ****** ****** ****** ****** ****** ****** ****** ****** ****** ******
      ****** ****** ****** ****** ****** ****** ****** ****** ****** ******
      ****** ****** ****** ****** ****** ****** ****** ****** ****** ******
  25  ****** ****** ****** ****** ****** ****** ****** ****** ****** ******
      ****** ****** ****** ****** ****** ****** ****** ****** ****** ******
      ****** ****** ****** ****** ****** ****** ****** ****** ****** ******

 HEAD WILL BE SAVED ON UNIT   51 AT END OF TIME STEP    1, STRESS PERIOD    2
1
  VOLUMETRIC BUDGET FOR ENTIRE MODEL AT END OF TIME STEP    1, STRESS PERIOD   2
  ------------------------------------------------------------------------------

     CUMULATIVE VOLUMES      L**3       RATES FOR THIS TIME STEP      L**3/T
     ------------------                 ------------------------

           IN:                                      IN:
           ---                                      ---
             STORAGE =    23376336.8103               STORAGE =       58202.9275
       CONSTANT HEAD =     2920844.3845         CONSTANT HEAD =       18562.4045
               WELLS =           0.0000                 WELLS =           0.0000
            RECHARGE =     6292800.0000              RECHARGE =       55200.0000
      STREAM LEAKAGE =      892871.6230        STREAM LEAKAGE =        5902.2549

            TOTAL IN =    33482852.8177              TOTAL IN =      137867.5868

          OUT:                                     OUT:
          ----                                     ----
             STORAGE =           0.0000               STORAGE =           0.0000
       CONSTANT HEAD =           0.0000         CONSTANT HEAD =           0.0000
               WELLS =     5659148.5196                 WELLS =       30924.3089
            RECHARGE =           0.0000              RECHARGE =           0.0000
      STREAM LEAKAGE =    27823705.5467        STREAM LEAKAGE =      106943.2885

           TOTAL OUT =    33482854.0664             TOTAL OUT =      137867.5974

            IN - OUT =          -1.2486              IN - OUT =      -1.0547E-02

 PERCENT DISCREPANCY =          -0.00     PERCENT DISCREPANCY =          -0.00






         TIME SUMMARY AT END OF TIME STEP    1 IN STRESS PERIOD    2
                    SECONDS     MINUTES      HOURS       DAYS        YEARS
                    -----------------------------------------------------------
   TIME STEP LENGTH 7.86240E+06 1.31040E+05  2184.0      91.000     0.24914    
 STRESS PERIOD TIME 7.86240E+06 1.31040E+05  2184.0      91.000     0.24914    
         TOTAL TIME 1.58112E+07 2.63520E+05  4392.0      183.00     0.50103    
1
1
                            STRESS PERIOD NO.    3, LENGTH =   91.00000    
                            -----------------------------------------------

                              NUMBER OF TIME STEPS =     1

                               MULTIPLIER FOR DELT =     1.500

                            INITIAL TIME STEP SIZE =   91.00000    

 WELL NO.  LAYER   ROW   COL   STRESS RATE         
 --------------------------------------------------
      1      1      6     15     -0.1070E+05
      2      1     13     17     -0.1103E+05
      3      1      5      8      -7262.    
      4      1      3     21      -1929.    

      4 WELLS

                 RECHARGE =   0.00000    

 REUSING STREAM SEGMENT DATA FROM LAST STRESS PERIOD
 
 SOLVING FOR HEAD 


     7 CALLS TO PCG ROUTINE FOR TIME STEP   1 IN STRESS PERIOD    3
    27 TOTAL ITERATIONS

 OUTPUT CONTROL FOR STRESS PERIOD    3   TIME STEP    1
    SAVE BUDGET
    SAVE HEAD FOR ALL LAYERS
    PRINT HEAD FOR ALL LAYERS
 UBDSV2 SAVING "STREAMFLOW OUT  " ON UNIT  50 AT TIME STEP  1, STRESS PERIOD   3



 STREAM LISTING     PERIOD      3   STEP        1

 LAYER ROW COL. STREAM  RCH.  FLOW INTO     FLOW TO   FLOW OUT OF   OVRLND.     DIRECT     STREAM       STREAM     STREAM     STREAM   STREAMBED  STREAMBED
                SEG.NO.  NO.  STRM. RCH.    AQUIFER    STRM. RCH.    RUNOFF     PRECIP       ET          HEAD       DEPTH      WIDTH   CONDCTNC.   GRADIENT

   1   13    1     1     1    1.0000E+05 -2.3550E+03   1.0235E+05  0.000E+00  0.000E+00  0.000E+00  4.84070E+01  1.457E-01  2.000E+01  2.000E+04 -1.177E-01
   1   13    2     1     2    1.0235E+05 -3.4367E+03   1.0579E+05  0.000E+00  0.000E+00  0.000E+00  4.79322E+01  1.482E-01  2.000E+01  2.000E+04 -1.718E-01
   1   14    3     1     3    1.0579E+05 -6.2822E+02   1.0642E+05  0.000E+00  0.000E+00  0.000E+00  4.74567E+01  1.499E-01  2.000E+01  2.000E+04 -3.141E-02
   1   15    4     1     4    1.0642E+05 -6.2357E+02   1.0704E+05  0.000E+00  0.000E+00  0.000E+00  4.69800E+01  1.504E-01  2.000E+01  2.000E+04 -3.118E-02
   1   16    5     1     5    1.0704E+05 -2.4532E+03   1.0950E+05  0.000E+00  0.000E+00  0.000E+00  4.65040E+01  1.517E-01  2.000E+01  2.000E+04 -1.227E-01
   1   16    6     1     6    1.0950E+05 -1.4944E+03   1.1099E+05  0.000E+00  0.000E+00  0.000E+00  4.60284E+01  1.534E-01  2.000E+01  2.000E+04 -7.472E-02
   1   16    7     1     7    1.1099E+05 -1.4559E+03   1.1245E+05  0.000E+00  0.000E+00  0.000E+00  4.55523E+01  1.546E-01  2.000E+01  2.000E+04 -7.279E-02
   1   16    8     1     8    1.1245E+05 -1.4424E+03   1.1389E+05  0.000E+00  0.000E+00  0.000E+00  4.50763E+01  1.558E-01  2.000E+01  2.000E+04 -7.212E-02
   1   16    9     1     9    1.1389E+05 -1.4233E+03   1.1531E+05  0.000E+00  0.000E+00  0.000E+00  4.46002E+01  1.570E-01  2.000E+01  2.000E+04 -7.116E-02
   1   16   10     1    10    1.1531E+05 -1.3946E+03   1.1671E+05  0.000E+00  0.000E+00  0.000E+00  4.41240E+01  1.581E-01  2.000E+01  2.000E+04 -6.973E-02
   1   16   11     1    11    1.1671E+05 -1.3832E+03   1.1809E+05  0.000E+00  0.000E+00  0.000E+00  4.36479E+01  1.593E-01  2.000E+01  2.000E+04 -6.916E-02
   1   16   12     1    12    1.1809E+05 -2.3279E+03   1.2042E+05  0.000E+00  0.000E+00  0.000E+00  4.31721E+01  1.608E-01  2.000E+01  2.000E+04 -1.164E-01
   1   15   13     1    13    1.2042E+05 -1.9648E+03   1.2238E+05  0.000E+00  0.000E+00  0.000E+00  4.26966E+01  1.625E-01  2.000E+01  2.000E+04 -9.824E-02
   1   14   14     1    14    1.2238E+05 -1.8079E+03   1.2419E+05  0.000E+00  0.000E+00  0.000E+00  4.22208E+01  1.640E-01  2.000E+01  2.000E+04 -9.040E-02
   1   13   15     1    15    1.2419E+05 -8.8879E+02   1.2508E+05  0.000E+00  0.000E+00  0.000E+00  4.17446E+01  1.651E-01  2.000E+01  2.000E+04 -4.444E-02
   1   12   16     1    16    1.2508E+05 -1.4298E+03   1.2651E+05  0.000E+00  0.000E+00  0.000E+00  4.12683E+01  1.660E-01  2.000E+01  2.000E+04 -7.149E-02
   1   12   17     1    17    1.2651E+05  1.7572E+03   1.2475E+05  0.000E+00  0.000E+00  0.000E+00  4.07909E+01  1.659E-01  2.000E+01  2.000E+04  8.786E-02
   1   12   18     1    18    1.2475E+05 -4.7379E+02   1.2523E+05  0.000E+00  0.000E+00  0.000E+00  4.03131E+01  1.654E-01  2.000E+01  2.000E+04 -2.369E-02
   1   12   19     1    19    1.2523E+05 -1.9349E+03   1.2716E+05  0.000E+00  0.000E+00  0.000E+00  3.98368E+01  1.663E-01  2.000E+01  2.000E+04 -9.674E-02
   1   13   20     1    20    1.2716E+05 -1.4295E+03   1.2859E+05  0.000E+00  0.000E+00  0.000E+00  3.93608E+01  1.676E-01  2.000E+01  2.000E+04 -7.148E-02
   1   14   21     1    21    1.2859E+05 -1.8828E+03   1.3047E+05  0.000E+00  0.000E+00  0.000E+00  3.88849E+01  1.689E-01  2.000E+01  2.000E+04 -9.414E-02
   1   14   22     1    22    1.3047E+05  4.7099E+03   1.2576E+05  0.000E+00  0.000E+00  0.000E+00  3.84065E+01  1.678E-01  2.000E+01  2.000E+04  2.355E-01
   1    9   30     2     1    5.0000E+04 -8.7230E+02   5.0872E+04  0.000E+00  0.000E+00  0.000E+00  4.02415E+01  1.165E-01  2.000E+01  2.000E+04 -4.361E-02
   1    9   29     2     2    5.0872E+04 -1.1725E+03   5.2045E+04  0.000E+00  0.000E+00  0.000E+00  3.99929E+01  1.179E-01  2.000E+01  2.000E+04 -5.863E-02
   1    9   28     2     3    5.2045E+04 -1.4347E+03   5.3480E+04  0.000E+00  0.000E+00  0.000E+00  3.97447E+01  1.197E-01  2.000E+01  2.000E+04 -7.174E-02
   1    9   27     2     4    5.3480E+04 -2.8288E+03   5.6308E+04  0.000E+00  0.000E+00  0.000E+00  3.94975E+01  1.225E-01  2.000E+01  2.000E+04 -1.414E-01
   1   10   26     2     5    5.6308E+04 -1.8683E+03   5.8177E+04  0.000E+00  0.000E+00  0.000E+00  3.92507E+01  1.257E-01  2.000E+01  2.000E+04 -9.341E-02
   1   11   25     2     6    5.8177E+04 -1.5960E+03   5.9773E+04  0.000E+00  0.000E+00  0.000E+00  3.90029E+01  1.279E-01  2.000E+01  2.000E+04 -7.980E-02
   1   12   24     2     7    5.9773E+04 -1.6194E+03   6.1392E+04  0.000E+00  0.000E+00  0.000E+00  3.87550E+01  1.300E-01  2.000E+01  2.000E+04 -8.097E-02
   1   13   23     2     8    6.1392E+04 -2.3661E+02   6.1629E+04  0.000E+00  0.000E+00  0.000E+00  3.85062E+01  1.312E-01  2.000E+01  2.000E+04 -1.183E-02
   1   14   22     2     9    6.1629E+04  1.6858E+03   5.9943E+04  0.000E+00  0.000E+00  0.000E+00  3.82553E+01  1.303E-01  2.000E+01  2.000E+04  8.429E-02
   1   14   22     3     1    1.8571E+05 -8.7790E+03   1.9449E+05  0.000E+00  0.000E+00  0.000E+00  3.77320E+01  1.765E-01  2.000E+01  2.000E+04 -4.389E-01
   1   15   23     3     2    1.9449E+05 -6.3972E+02   1.9513E+05  0.000E+00  0.000E+00  0.000E+00  3.68458E+01  1.791E-01  2.000E+01  2.000E+04 -3.199E-02
   1   15   24     3     3    1.9513E+05 -3.4049E+02   1.9547E+05  0.000E+00  0.000E+00  0.000E+00  3.59571E+01  1.794E-01  2.000E+01  2.000E+04 -1.702E-02
   1   15   25     3     4    1.9547E+05 -3.3196E+02   1.9580E+05  0.000E+00  0.000E+00  0.000E+00  3.50684E+01  1.795E-01  2.000E+01  2.000E+04 -1.660E-02
   1   15   26     3     5    1.9580E+05 -3.6962E+02   1.9617E+05  0.000E+00  0.000E+00  0.000E+00  3.41797E+01  1.797E-01  2.000E+01  2.000E+04 -1.848E-02
   1   16   27     3     6    1.9617E+05 -4.3346E+02   1.9660E+05  0.000E+00  0.000E+00  0.000E+00  3.32911E+01  1.800E-01  2.000E+01  2.000E+04 -2.167E-02
   1   17   28     3     7    1.9660E+05 -1.8476E+03   1.9845E+05  0.000E+00  0.000E+00  0.000E+00  3.24028E+01  1.806E-01  2.000E+01  2.000E+04 -9.238E-02
   1   18   29     3     8    1.9845E+05 -3.5374E+03   2.0199E+05  0.000E+00  0.000E+00  0.000E+00  3.15154E+01  1.821E-01  2.000E+01  2.000E+04 -1.769E-01
   1   18   30     3     9    2.0199E+05 -3.5480E+03   2.0553E+05  0.000E+00  0.000E+00  0.000E+00  3.06284E+01  1.840E-01  2.000E+01  2.000E+04 -1.774E-01



1
              HEAD IN LAYER   1 AT END OF TIME STEP   1 IN STRESS PERIOD    3
  ---------------------------------------------------------------------------

          1      2      3      4      5      6      7      8      9     10
         11     12     13     14     15     16     17     18     19     20
         21     22     23     24     25     26     27     28     29     30
 .........................................................................
   1  ****** ****** ****** ****** ****** ****** ****** ****** ****** ******
      ****** ****** ****** ****** ****** ****** ****** ****** ****** ******
      ****** ****** ****** ****** ****** ****** ****** ****** ****** ******
   2  ****** ****** ****** ****** ****** ****** ****** ****** ****** ******
      ****** ****** ****** ****** ****** ****** ****** ****** ****** ******
      ****** ****** ****** ****** ****** ****** ****** ****** ****** ******
   3  ****** ****** ****** ****** ****** ****** ****** ****** ****** ******
      ****** ****** ****** ****** ****** ****** ****** ****** ****** ******
      ****** ****** ****** ****** ****** ****** ****** ****** ****** ******
   4  ****** ****** ****** ****** ****** ****** ****** ****** ****** ******
      ****** ****** ****** ****** ****** ****** ****** ****** ****** ******
      ****** ****** ****** ****** ****** ****** ****** ****** ****** ******
   5  ****** ****** ****** ****** ****** ****** ****** ****** ****** ******
      ****** ****** ****** ****** ****** ****** ****** ****** ****** ******
      ****** ****** ****** ****** ****** ****** ****** ****** ****** ******
   6  ****** ****** ****** ****** ****** ****** ****** ****** ****** ******
      ****** ****** ****** ****** ****** ****** ****** ****** ****** ******
      ****** ****** ****** ****** ****** ****** ****** ****** ****** ******
   7  ****** ****** ****** ****** ****** ****** ****** ****** ****** ******
      ****** ****** ****** ****** ****** ****** ****** ****** ****** ******
      ****** ****** ****** ****** ****** ****** ****** ****** ****** ******
   8  ****** ****** ****** ****** ****** ****** ****** ****** ****** ******
      ****** ****** ****** ****** ****** ****** ****** ****** ****** ******
      ****** ****** ****** ****** ****** ****** ****** ****** ****** ******
   9  ****** ****** ****** ****** ****** ****** ****** ****** ****** ******
      ****** ****** ****** ****** ****** ****** ****** ****** ****** ******
      ****** ****** ****** ****** ****** ****** ****** ****** ****** ******
  10  ****** ****** ****** ****** ****** ****** ****** ****** ****** ******
      ****** ****** ****** ****** ****** ****** ****** ****** ****** ******
      ****** ****** ****** ****** ****** ****** ****** ****** ****** ******
  11  ****** ****** ****** ****** ****** ****** ****** ****** ****** ******
      ****** ****** ****** ****** ****** ****** ****** ****** ****** ******
      ****** ****** ****** ****** ****** ****** ****** ****** ****** ******
  12  ****** ****** ****** ****** ****** ****** ****** ****** ****** ******
      ****** ****** ****** ****** ****** ****** ****** ****** ****** ******
      ****** ****** ****** ****** ****** ****** ****** ****** ****** ******
  13  ****** ****** ****** ****** ****** ****** ****** ****** ****** ******
      ****** ****** ****** ****** ****** ****** ****** ****** ****** ******
      ****** ****** ****** ****** ****** ****** ****** ****** ****** ******
  14  ****** ****** ****** ****** ****** ****** ****** ****** ****** ******
      ****** ****** ****** ****** ****** ****** ****** ****** ****** ******
      ****** ****** ****** ****** ****** ****** ****** ****** ****** ******
  15  ****** ****** ****** ****** ****** ****** ****** ****** ****** ******
      ****** ****** ****** ****** ****** ****** ****** ****** ****** ******
      ****** ****** ****** ****** ****** ****** ****** ****** ****** ******
  16  ****** ****** ****** ****** ****** ****** ****** ****** ****** ******
      ****** ****** ****** ****** ****** ****** ****** ****** ****** ******
      ****** ****** ****** ****** ****** ****** ****** ****** ****** ******
  17  ****** ****** ****** ****** ****** ****** ****** ****** ****** ******
      ****** ****** ****** ****** ****** ****** ****** ****** ****** ******
      ****** ****** ****** ****** ****** ****** ****** ****** ****** ******
  18  ****** ****** ****** ****** ****** ****** ****** ****** ****** ******
      ****** ****** ****** ****** ****** ****** ****** ****** ****** ******
      ****** ****** ****** ****** ****** ****** ****** ****** ****** ******
  19  ****** ****** ****** ****** ****** ****** ****** ****** ****** ******
      ****** ****** ****** ****** ****** ****** ****** ****** ****** ******
      ****** ****** ****** ****** ****** ****** ****** ****** ****** ******
  20  ****** ****** ****** ****** ****** ****** ****** ****** ****** ******
      ****** ****** ****** ****** ****** ****** ****** ****** ****** ******
      ****** ****** ****** ****** ****** ****** ****** ****** ****** ******
  21  ****** ****** ****** ****** ****** ****** ****** ****** ****** ******
      ****** ****** ****** ****** ****** ****** ****** ****** ****** ******
      ****** ****** ****** ****** ****** ****** ****** ****** ****** ******
  22  ****** ****** ****** ****** ****** ****** ****** ****** ****** ******
      ****** ****** ****** ****** ****** ****** ****** ****** ****** ******
      ****** ****** ****** ****** ****** ****** ****** ****** ****** ******
  23  ****** ****** ****** ****** ****** ****** ****** ****** ****** ******
      ****** ****** ****** ****** ****** ****** ****** ****** ****** ******
      ****** ****** ****** ****** ****** ****** ****** ****** ****** ******
  24  ****** ****** ****** ****** ****** ****** ****** ****** ****** ******
      ****** ****** ****** ****** ****** ****** ****** ****** ****** ******
      ****** ****** ****** ****** ****** ****** ****** ****** ****** ******
  25  ****** ****** ****** ****** ****** ****** ****** ****** ****** ******
      ****** ****** ****** ****** ****** ****** ****** ****** ****** ******
      ****** ****** ****** ****** ****** ****** ****** ****** ****** ******

 HEAD WILL BE SAVED ON UNIT   51 AT END OF TIME STEP    1, STRESS PERIOD    3
1
  VOLUMETRIC BUDGET FOR ENTIRE MODEL AT END OF TIME STEP    1, STRESS PERIOD   3
  ------------------------------------------------------------------------------

     CUMULATIVE VOLUMES      L**3       RATES FOR THIS TIME STEP      L**3/T
     ------------------                 ------------------------

           IN:                                      IN:
           ---                                      ---
             STORAGE =    28732613.8824               STORAGE =       58860.1876
       CONSTANT HEAD =     5432233.1638         CONSTANT HEAD =       27597.6789
               WELLS =           0.0000                 WELLS =           0.0000
            RECHARGE =     6292800.0000              RECHARGE =           0.0000
      STREAM LEAKAGE =     1634786.5052        STREAM LEAKAGE =        8152.9108

            TOTAL IN =    42092433.5514              TOTAL IN =       94610.7773

          OUT:                                     OUT:
          ----                                     ----
             STORAGE =           0.0000               STORAGE =           0.0000
       CONSTANT HEAD =           0.0000         CONSTANT HEAD =           0.0000
               WELLS =     8473260.6250                 WELLS =       30924.3089
            RECHARGE =           0.0000              RECHARGE =           0.0000
      STREAM LEAKAGE =    33619174.8628        STREAM LEAKAGE =       63686.4760

           TOTAL OUT =    42092435.4878             TOTAL OUT =       94610.7849

            IN - OUT =          -1.9365              IN - OUT =      -7.5585E-03

 PERCENT DISCREPANCY =          -0.00     PERCENT DISCREPANCY =          -0.00






         TIME SUMMARY AT END OF TIME STEP    1 IN STRESS PERIOD    3
                    SECONDS     MINUTES      HOURS       DAYS        YEARS
                    -----------------------------------------------------------
   TIME STEP LENGTH 7.86240E+06 1.31040E+05  2184.0      91.000     0.24914    
 STRESS PERIOD TIME 7.86240E+06 1.31040E+05  2184.0      91.000     0.24914    
         TOTAL TIME 2.36736E+07 3.94560E+05  6576.0      274.00     0.75017    
1
1
                            STRESS PERIOD NO.    4, LENGTH =   91.00000    
                            -----------------------------------------------

                              NUMBER OF TIME STEPS =     1

                               MULTIPLIER FOR DELT =     1.500

                            INITIAL TIME STEP SIZE =   91.00000    

 WELL NO.  LAYER   ROW   COL   STRESS RATE         
 --------------------------------------------------
      1      1      6     15     -0.1070E+05
      2      1     13     17     -0.1103E+05
      3      1      5      8      -7262.    
      4      1      3     21      -1929.    

      4 WELLS

                 RECHARGE =  1.000000E-03

 REUSING STREAM SEGMENT DATA FROM LAST STRESS PERIOD
 
 SOLVING FOR HEAD 


     6 CALLS TO PCG ROUTINE FOR TIME STEP   1 IN STRESS PERIOD    4
    23 TOTAL ITERATIONS

 OUTPUT CONTROL FOR STRESS PERIOD    4   TIME STEP    1
    SAVE BUDGET
    SAVE HEAD FOR ALL LAYERS
    PRINT HEAD FOR ALL LAYERS
 UBDSV2 SAVING "STREAMFLOW OUT  " ON UNIT  50 AT TIME STEP  1, STRESS PERIOD   4



 STREAM LISTING     PERIOD      4   STEP        1

 LAYER ROW COL. STREAM  RCH.  FLOW INTO     FLOW TO   FLOW OUT OF   OVRLND.     DIRECT     STREAM       STREAM     STREAM     STREAM   STREAMBED  STREAMBED
                SEG.NO.  NO.  STRM. RCH.    AQUIFER    STRM. RCH.    RUNOFF     PRECIP       ET          HEAD       DEPTH      WIDTH   CONDCTNC.   GRADIENT

   1   13    1     1     1    1.0000E+05 -2.0124E+03   1.0201E+05  0.000E+00  0.000E+00  0.000E+00  4.84069E+01  1.455E-01  2.000E+01  2.000E+04 -1.006E-01
   1   13    2     1     2    1.0201E+05 -3.0436E+03   1.0506E+05  0.000E+00  0.000E+00  0.000E+00  4.79318E+01  1.477E-01  2.000E+01  2.000E+04 -1.522E-01
   1   14    3     1     3    1.0506E+05 -5.8833E+02   1.0564E+05  0.000E+00  0.000E+00  0.000E+00  4.74561E+01  1.492E-01  2.000E+01  2.000E+04 -2.942E-02
   1   15    4     1     4    1.0564E+05 -5.7783E+02   1.0622E+05  0.000E+00  0.000E+00  0.000E+00  4.69793E+01  1.497E-01  2.000E+01  2.000E+04 -2.889E-02
   1   16    5     1     5    1.0622E+05 -2.1510E+03   1.0837E+05  0.000E+00  0.000E+00  0.000E+00  4.65032E+01  1.509E-01  2.000E+01  2.000E+04 -1.075E-01
   1   16    6     1     6    1.0837E+05 -1.3423E+03   1.0972E+05  0.000E+00  0.000E+00  0.000E+00  4.60274E+01  1.524E-01  2.000E+01  2.000E+04 -6.711E-02
   1   16    7     1     7    1.0972E+05 -1.3144E+03   1.1103E+05  0.000E+00  0.000E+00  0.000E+00  4.55512E+01  1.535E-01  2.000E+01  2.000E+04 -6.572E-02
   1   16    8     1     8    1.1103E+05 -1.3054E+03   1.1234E+05  0.000E+00  0.000E+00  0.000E+00  4.50750E+01  1.546E-01  2.000E+01  2.000E+04 -6.527E-02
   1   16    9     1     9    1.1234E+05 -1.2899E+03   1.1362E+05  0.000E+00  0.000E+00  0.000E+00  4.45988E+01  1.556E-01  2.000E+01  2.000E+04 -6.449E-02
   1   16   10     1    10    1.1362E+05 -1.2662E+03   1.1489E+05  0.000E+00  0.000E+00  0.000E+00  4.41226E+01  1.567E-01  2.000E+01  2.000E+04 -6.331E-02
   1   16   11     1    11    1.1489E+05 -1.2573E+03   1.1615E+05  0.000E+00  0.000E+00  0.000E+00  4.36464E+01  1.577E-01  2.000E+01  2.000E+04 -6.287E-02
   1   16   12     1    12    1.1615E+05 -2.0566E+03   1.1821E+05  0.000E+00  0.000E+00  0.000E+00  4.31704E+01  1.591E-01  2.000E+01  2.000E+04 -1.028E-01
   1   15   13     1    13    1.1821E+05 -1.6800E+03   1.1989E+05  0.000E+00  0.000E+00  0.000E+00  4.26947E+01  1.606E-01  2.000E+01  2.000E+04 -8.400E-02
   1   14   14     1    14    1.1989E+05 -1.4743E+03   1.2136E+05  0.000E+00  0.000E+00  0.000E+00  4.22187E+01  1.619E-01  2.000E+01  2.000E+04 -7.372E-02
   1   13   15     1    15    1.2136E+05 -5.0449E+02   1.2186E+05  0.000E+00  0.000E+00  0.000E+00  4.17422E+01  1.627E-01  2.000E+01  2.000E+04 -2.522E-02
   1   12   16     1    16    1.2186E+05 -9.0430E+02   1.2277E+05  0.000E+00  0.000E+00  0.000E+00  4.12655E+01  1.632E-01  2.000E+01  2.000E+04 -4.522E-02
   1   12   17     1    17    1.2277E+05  2.0581E+03   1.2071E+05  0.000E+00  0.000E+00  0.000E+00  4.07878E+01  1.628E-01  2.000E+01  2.000E+04  1.029E-01
   1   12   18     1    18    1.2071E+05 -2.0122E+02   1.2091E+05  0.000E+00  0.000E+00  0.000E+00  4.03098E+01  1.620E-01  2.000E+01  2.000E+04 -1.006E-02
   1   12   19     1    19    1.2091E+05 -1.5977E+03   1.2251E+05  0.000E+00  0.000E+00  0.000E+00  3.98332E+01  1.627E-01  2.000E+01  2.000E+04 -7.989E-02
   1   13   20     1    20    1.2251E+05 -1.2371E+03   1.2375E+05  0.000E+00  0.000E+00  0.000E+00  3.93571E+01  1.639E-01  2.000E+01  2.000E+04 -6.185E-02
   1   14   21     1    21    1.2375E+05 -1.6582E+03   1.2540E+05  0.000E+00  0.000E+00  0.000E+00  3.88809E+01  1.650E-01  2.000E+01  2.000E+04 -8.291E-02
   1   14   22     1    22    1.2540E+05  4.7409E+03   1.2066E+05  0.000E+00  0.000E+00  0.000E+00  3.84024E+01  1.638E-01  2.000E+01  2.000E+04  2.370E-01
   1    9   30     2     1    5.0000E+04 -7.7131E+02   5.0771E+04  0.000E+00  0.000E+00  0.000E+00  4.02414E+01  1.164E-01  2.000E+01  2.000E+04 -3.857E-02
   1    9   29     2     2    5.0771E+04 -1.0630E+03   5.1834E+04  0.000E+00  0.000E+00  0.000E+00  3.99927E+01  1.177E-01  2.000E+01  2.000E+04 -5.315E-02
   1    9   28     2     3    5.1834E+04 -1.3009E+03   5.3135E+04  0.000E+00  0.000E+00  0.000E+00  3.97443E+01  1.193E-01  2.000E+01  2.000E+04 -6.504E-02
   1    9   27     2     4    5.3135E+04 -2.5199E+03   5.5655E+04  0.000E+00  0.000E+00  0.000E+00  3.94969E+01  1.219E-01  2.000E+01  2.000E+04 -1.260E-01
   1   10   26     2     5    5.5655E+04 -1.6755E+03   5.7331E+04  0.000E+00  0.000E+00  0.000E+00  3.92497E+01  1.247E-01  2.000E+01  2.000E+04 -8.378E-02
   1   11   25     2     6    5.7331E+04 -1.4445E+03   5.8775E+04  0.000E+00  0.000E+00  0.000E+00  3.90017E+01  1.267E-01  2.000E+01  2.000E+04 -7.222E-02
   1   12   24     2     7    5.8775E+04 -1.4845E+03   6.0259E+04  0.000E+00  0.000E+00  0.000E+00  3.87536E+01  1.286E-01  2.000E+01  2.000E+04 -7.422E-02
   1   13   23     2     8    6.0259E+04 -2.5643E+02   6.0516E+04  0.000E+00  0.000E+00  0.000E+00  3.85048E+01  1.298E-01  2.000E+01  2.000E+04 -1.282E-02
   1   14   22     2     9    6.0516E+04  1.7676E+03   5.8748E+04  0.000E+00  0.000E+00  0.000E+00  3.82538E+01  1.288E-01  2.000E+01  2.000E+04  8.838E-02
   1   14   22     3     1    1.7941E+05 -8.7383E+03   1.8815E+05  0.000E+00  0.000E+00  0.000E+00  3.77285E+01  1.729E-01  2.000E+01  2.000E+04 -4.369E-01
   1   15   23     3     2    1.8815E+05 -6.1953E+02   1.8877E+05  0.000E+00  0.000E+00  0.000E+00  3.68422E+01  1.756E-01  2.000E+01  2.000E+04 -3.098E-02
   1   15   24     3     3    1.8877E+05 -3.4144E+02   1.8911E+05  0.000E+00  0.000E+00  0.000E+00  3.59536E+01  1.758E-01  2.000E+01  2.000E+04 -1.707E-02
   1   15   25     3     4    1.8911E+05 -3.3254E+02   1.8944E+05  0.000E+00  0.000E+00  0.000E+00  3.50649E+01  1.760E-01  2.000E+01  2.000E+04 -1.663E-02
   1   15   26     3     5    1.8944E+05 -3.7961E+02   1.8982E+05  0.000E+00  0.000E+00  0.000E+00  3.41762E+01  1.762E-01  2.000E+01  2.000E+04 -1.898E-02
   1   16   27     3     6    1.8982E+05 -4.3535E+02   1.9026E+05  0.000E+00  0.000E+00  0.000E+00  3.32876E+01  1.764E-01  2.000E+01  2.000E+04 -2.177E-02
   1   17   28     3     7    1.9026E+05 -1.7898E+03   1.9205E+05  0.000E+00  0.000E+00  0.000E+00  3.23993E+01  1.771E-01  2.000E+01  2.000E+04 -8.949E-02
   1   18   29     3     8    1.9205E+05 -3.3319E+03   1.9538E+05  0.000E+00  0.000E+00  0.000E+00  3.15118E+01  1.785E-01  2.000E+01  2.000E+04 -1.666E-01
   1   18   30     3     9    1.9538E+05 -3.4474E+03   1.9883E+05  0.000E+00  0.000E+00  0.000E+00  3.06248E+01  1.804E-01  2.000E+01  2.000E+04 -1.724E-01



1
              HEAD IN LAYER   1 AT END OF TIME STEP   1 IN STRESS PERIOD    4
  ---------------------------------------------------------------------------

          1      2      3      4      5      6      7      8      9     10
         11     12     13     14     15     16     17     18     19     20
         21     22     23     24     25     26     27     28     29     30
 .........................................................................
   1  ****** ****** ****** ****** ****** ****** ****** ****** ****** ******
      ****** ****** ****** ****** ****** ****** ****** ****** ****** ******
      ****** ****** ****** ****** ****** ****** ****** ****** ****** ******
   2  ****** ****** ****** ****** ****** ****** ****** ****** ****** ******
      ****** ****** ****** ****** ****** ****** ****** ****** ****** ******
      ****** ****** ****** ****** ****** ****** ****** ****** ****** ******
   3  ****** ****** ****** ****** ****** ****** ****** ****** ****** ******
      ****** ****** ****** ****** ****** ****** ****** ****** ****** ******
      ****** ****** ****** ****** ****** ****** ****** ****** ****** ******
   4  ****** ****** ****** ****** ****** ****** ****** ****** ****** ******
      ****** ****** ****** ****** ****** ****** ****** ****** ****** ******
      ****** ****** ****** ****** ****** ****** ****** ****** ****** ******
   5  ****** ****** ****** ****** ****** ****** ****** ****** ****** ******
      ****** ****** ****** ****** ****** ****** ****** ****** ****** ******
      ****** ****** ****** ****** ****** ****** ****** ****** ****** ******
   6  ****** ****** ****** ****** ****** ****** ****** ****** ****** ******
      ****** ****** ****** ****** ****** ****** ****** ****** ****** ******
      ****** ****** ****** ****** ****** ****** ****** ****** ****** ******
   7  ****** ****** ****** ****** ****** ****** ****** ****** ****** ******
      ****** ****** ****** ****** ****** ****** ****** ****** ****** ******
      ****** ****** ****** ****** ****** ****** ****** ****** ****** ******
   8  ****** ****** ****** ****** ****** ****** ****** ****** ****** ******
      ****** ****** ****** ****** ****** ****** ****** ****** ****** ******
      ****** ****** ****** ****** ****** ****** ****** ****** ****** ******
   9  ****** ****** ****** ****** ****** ****** ****** ****** ****** ******
      ****** ****** ****** ****** ****** ****** ****** ****** ****** ******
      ****** ****** ****** ****** ****** ****** ****** ****** ****** ******
  10  ****** ****** ****** ****** ****** ****** ****** ****** ****** ******
      ****** ****** ****** ****** ****** ****** ****** ****** ****** ******
      ****** ****** ****** ****** ****** ****** ****** ****** ****** ******
  11  ****** ****** ****** ****** ****** ****** ****** ****** ****** ******
      ****** ****** ****** ****** ****** ****** ****** ****** ****** ******
      ****** ****** ****** ****** ****** ****** ****** ****** ****** ******
  12  ****** ****** ****** ****** ****** ****** ****** ****** ****** ******
      ****** ****** ****** ****** ****** ****** ****** ****** ****** ******
      ****** ****** ****** ****** ****** ****** ****** ****** ****** ******
  13  ****** ****** ****** ****** ****** ****** ****** ****** ****** ******
      ****** ****** ****** ****** ****** ****** ****** ****** ****** ******
      ****** ****** ****** ****** ****** ****** ****** ****** ****** ******
  14  ****** ****** ****** ****** ****** ****** ****** ****** ****** ******
      ****** ****** ****** ****** ****** ****** ****** ****** ****** ******
      ****** ****** ****** ****** ****** ****** ****** ****** ****** ******
  15  ****** ****** ****** ****** ****** ****** ****** ****** ****** ******
      ****** ****** ****** ****** ****** ****** ****** ****** ****** ******
      ****** ****** ****** ****** ****** ****** ****** ****** ****** ******
  16  ****** ****** ****** ****** ****** ****** ****** ****** ****** ******
      ****** ****** ****** ****** ****** ****** ****** ****** ****** ******
      ****** ****** ****** ****** ****** ****** ****** ****** ****** ******
  17  ****** ****** ****** ****** ****** ****** ****** ****** ****** ******
      ****** ****** ****** ****** ****** ****** ****** ****** ****** ******
      ****** ****** ****** ****** ****** ****** ****** ****** ****** ******
  18  ****** ****** ****** ****** ****** ****** ****** ****** ****** ******
      ****** ****** ****** ****** ****** ****** ****** ****** ****** ******
      ****** ****** ****** ****** ****** ****** ****** ****** ****** ******
  19  ****** ****** ****** ****** ****** ****** ****** ****** ****** ******
      ****** ****** ****** ****** ****** ****** ****** ****** ****** ******
      ****** ****** ****** ****** ****** ****** ****** ****** ****** ******
  20  ****** ****** ****** ****** ****** ****** ****** ****** ****** ******
      ****** ****** ****** ****** ****** ****** ****** ****** ****** ******
      ****** ****** ****** ****** ****** ****** ****** ****** ****** ******
  21  ****** ****** ****** ****** ****** ****** ****** ****** ****** ******
      ****** ****** ****** ****** ****** ****** ****** ****** ****** ******
      ****** ****** ****** ****** ****** ****** ****** ****** ****** ******
  22  ****** ****** ****** ****** ****** ****** ****** ****** ****** ******
      ****** ****** ****** ****** ****** ****** ****** ****** ****** ******
      ****** ****** ****** ****** ****** ****** ****** ****** ****** ******
  23  ****** ****** ****** ****** ****** ****** ****** ****** ****** ******
      ****** ****** ****** ****** ****** ****** ****** ****** ****** ******
      ****** ****** ****** ****** ****** ****** ****** ****** ****** ******
  24  ****** ****** ****** ****** ****** ****** ****** ****** ****** ******
      ****** ****** ****** ****** ****** ****** ****** ****** ****** ******
      ****** ****** ****** ****** ****** ****** ****** ****** ****** ******
  25  ****** ****** ****** ****** ****** ****** ****** ****** ****** ******
      ****** ****** ****** ****** ****** ****** ****** ****** ****** ******
      ****** ****** ****** ****** ****** ****** ****** ****** ****** ******

 HEAD WILL BE SAVED ON UNIT   51 AT END OF TIME STEP    1, STRESS PERIOD    4
1
  VOLUMETRIC BUDGET FOR ENTIRE MODEL AT END OF TIME STEP    1, STRESS PERIOD   4
  ------------------------------------------------------------------------------

     CUMULATIVE VOLUMES      L**3       RATES FOR THIS TIME STEP      L**3/T
     ------------------                 ------------------------

           IN:                                      IN:
           ---                                      ---
             STORAGE =    30698487.8146               STORAGE =       21603.0102
       CONSTANT HEAD =     8213373.8048         CONSTANT HEAD =       30561.9851
               WELLS =           0.0000                 WELLS =           0.0000
            RECHARGE =     8804400.0000              RECHARGE =       27600.0000
      STREAM LEAKAGE =     2414348.7086        STREAM LEAKAGE =        8566.6176

            TOTAL IN =    50130610.3280              TOTAL IN =       88331.6129

          OUT:                                     OUT:
          ----                                     ----
             STORAGE =        1188.6774               STORAGE =          13.0624
       CONSTANT HEAD =           0.0000         CONSTANT HEAD =           0.0000
               WELLS =    11287372.7304                 WELLS =       30924.3089
            RECHARGE =           0.0000              RECHARGE =           0.0000
      STREAM LEAKAGE =    38842050.9513        STREAM LEAKAGE =       57394.2427

           TOTAL OUT =    50130612.3591             TOTAL OUT =       88331.6140

            IN - OUT =          -2.0311              IN - OUT =      -1.0399E-03

 PERCENT DISCREPANCY =          -0.00     PERCENT DISCREPANCY =          -0.00






         TIME SUMMARY AT END OF TIME STEP    1 IN STRESS PERIOD    4
                    SECONDS     MINUTES      HOURS       DAYS        YEARS
                    -----------------------------------------------------------
   TIME STEP LENGTH 7.86240E+06 1.31040E+05  2184.0      91.000     0.24914    
 STRESS PERIOD TIME 7.86240E+06 1.31040E+05  2184.0      91.000     0.24914    
         TOTAL TIME 3.15360E+07 5.25600E+05  8760.0      365.00     0.99932    
1
1
                            STRESS PERIOD NO.    5, LENGTH =   92.00000    
                            -----------------------------------------------

                              NUMBER OF TIME STEPS =     1

                               MULTIPLIER FOR DELT =     1.500

                            INITIAL TIME STEP SIZE =   92.00000    

 WELL NO.  LAYER   ROW   COL   STRESS RATE         
 --------------------------------------------------
      1      1      6     15     -0.1070E+05
      2      1     13     17     -0.1103E+05
      3      1      5      8      -7262.    
      4      1      3     21      -1929.    

      4 WELLS

                 RECHARGE =  5.000000E-04

 REUSING STREAM SEGMENT DATA FROM LAST STRESS PERIOD
 
 SOLVING FOR HEAD 


     7 CALLS TO PCG ROUTINE FOR TIME STEP   1 IN STRESS PERIOD    5
    26 TOTAL ITERATIONS

 OUTPUT CONTROL FOR STRESS PERIOD    5   TIME STEP    1
    SAVE BUDGET
    SAVE HEAD FOR ALL LAYERS
    PRINT HEAD FOR ALL LAYERS
 UBDSV2 SAVING "STREAMFLOW OUT  " ON UNIT  50 AT TIME STEP  1, STRESS PERIOD   5



 STREAM LISTING     PERIOD      5   STEP        1

 LAYER ROW COL. STREAM  RCH.  FLOW INTO     FLOW TO   FLOW OUT OF   OVRLND.     DIRECT     STREAM       STREAM     STREAM     STREAM   STREAMBED  STREAMBED
                SEG.NO.  NO.  STRM. RCH.    AQUIFER    STRM. RCH.    RUNOFF     PRECIP       ET          HEAD       DEPTH      WIDTH   CONDCTNC.   GRADIENT

   1   13    1     1     1    1.0000E+05 -1.5151E+03   1.0152E+05  0.000E+00  0.000E+00  0.000E+00  4.84067E+01  1.453E-01  2.000E+01  2.000E+04 -7.576E-02
   1   13    2     1     2    1.0152E+05 -2.4813E+03   1.0400E+05  0.000E+00  0.000E+00  0.000E+00  4.79311E+01  1.470E-01  2.000E+01  2.000E+04 -1.241E-01
   1   14    3     1     3    1.0400E+05 -4.5589E+02   1.0445E+05  0.000E+00  0.000E+00  0.000E+00  4.74551E+01  1.483E-01  2.000E+01  2.000E+04 -2.279E-02
   1   15    4     1     4    1.0445E+05 -4.4200E+02   1.0489E+05  0.000E+00  0.000E+00  0.000E+00  4.69782E+01  1.487E-01  2.000E+01  2.000E+04 -2.210E-02
   1   16    5     1     5    1.0489E+05 -1.7192E+03   1.0661E+05  0.000E+00  0.000E+00  0.000E+00  4.65019E+01  1.496E-01  2.000E+01  2.000E+04 -8.596E-02
   1   16    6     1     6    1.0661E+05 -1.0861E+03   1.0770E+05  0.000E+00  0.000E+00  0.000E+00  4.60258E+01  1.508E-01  2.000E+01  2.000E+04 -5.430E-02
   1   16    7     1     7    1.0770E+05 -1.0679E+03   1.0877E+05  0.000E+00  0.000E+00  0.000E+00  4.55494E+01  1.517E-01  2.000E+01  2.000E+04 -5.340E-02
   1   16    8     1     8    1.0877E+05 -1.0627E+03   1.0983E+05  0.000E+00  0.000E+00  0.000E+00  4.50730E+01  1.526E-01  2.000E+01  2.000E+04 -5.314E-02
   1   16    9     1     9    1.0983E+05 -1.0511E+03   1.1088E+05  0.000E+00  0.000E+00  0.000E+00  4.45966E+01  1.535E-01  2.000E+01  2.000E+04 -5.255E-02
   1   16   10     1    10    1.1088E+05 -1.0325E+03   1.1191E+05  0.000E+00  0.000E+00  0.000E+00  4.41202E+01  1.543E-01  2.000E+01  2.000E+04 -5.163E-02
   1   16   11     1    11    1.1191E+05 -1.0255E+03   1.1294E+05  0.000E+00  0.000E+00  0.000E+00  4.36438E+01  1.552E-01  2.000E+01  2.000E+04 -5.127E-02
   1   16   12     1    12    1.1294E+05 -1.6374E+03   1.1458E+05  0.000E+00  0.000E+00  0.000E+00  4.31676E+01  1.563E-01  2.000E+01  2.000E+04 -8.187E-02
   1   15   13     1    13    1.1458E+05 -1.2164E+03   1.1579E+05  0.000E+00  0.000E+00  0.000E+00  4.26915E+01  1.575E-01  2.000E+01  2.000E+04 -6.082E-02
   1   14   14     1    14    1.1579E+05 -9.6550E+02   1.1676E+05  0.000E+00  0.000E+00  0.000E+00  4.22152E+01  1.583E-01  2.000E+01  2.000E+04 -4.827E-02
   1   13   15     1    15    1.1676E+05  3.7923E+01   1.1672E+05  0.000E+00  0.000E+00  0.000E+00  4.17383E+01  1.587E-01  2.000E+01  2.000E+04  1.896E-03
   1   12   16     1    16    1.1672E+05 -2.8750E+02   1.1701E+05  0.000E+00  0.000E+00  0.000E+00  4.12611E+01  1.588E-01  2.000E+01  2.000E+04 -1.437E-02
   1   12   17     1    17    1.1701E+05  2.4564E+03   1.1455E+05  0.000E+00  0.000E+00  0.000E+00  4.07829E+01  1.579E-01  2.000E+01  2.000E+04  1.228E-01
   1   12   18     1    18    1.1455E+05  1.7229E+02   1.1438E+05  0.000E+00  0.000E+00  0.000E+00  4.03046E+01  1.569E-01  2.000E+01  2.000E+04  8.615E-03
   1   12   19     1    19    1.1438E+05 -1.1448E+03   1.1552E+05  0.000E+00  0.000E+00  0.000E+00  3.98277E+01  1.573E-01  2.000E+01  2.000E+04 -5.724E-02
   1   13   20     1    20    1.1552E+05 -8.6748E+02   1.1639E+05  0.000E+00  0.000E+00  0.000E+00  3.93513E+01  1.581E-01  2.000E+01  2.000E+04 -4.337E-02
   1   14   21     1    21    1.1639E+05 -1.2824E+03   1.1767E+05  0.000E+00  0.000E+00  0.000E+00  3.88749E+01  1.590E-01  2.000E+01  2.000E+04 -6.412E-02
   1   14   22     1    22    1.1767E+05  4.8161E+03   1.1286E+05  0.000E+00  0.000E+00  0.000E+00  3.83962E+01  1.575E-01  2.000E+01  2.000E+04  2.408E-01
   1    9   30     2     1    5.0000E+04 -5.3114E+02   5.0531E+04  0.000E+00  0.000E+00  0.000E+00  4.02412E+01  1.162E-01  2.000E+01  2.000E+04 -2.656E-02
   1    9   29     2     2    5.0531E+04 -8.1831E+02   5.1349E+04  0.000E+00  0.000E+00  0.000E+00  3.99922E+01  1.172E-01  2.000E+01  2.000E+04 -4.092E-02
   1    9   28     2     3    5.1349E+04 -1.0419E+03   5.2391E+04  0.000E+00  0.000E+00  0.000E+00  3.97434E+01  1.184E-01  2.000E+01  2.000E+04 -5.210E-02
   1    9   27     2     4    5.2391E+04 -2.1034E+03   5.4495E+04  0.000E+00  0.000E+00  0.000E+00  3.94956E+01  1.206E-01  2.000E+01  2.000E+04 -1.052E-01
   1   10   26     2     5    5.4495E+04 -1.3121E+03   5.5807E+04  0.000E+00  0.000E+00  0.000E+00  3.92479E+01  1.229E-01  2.000E+01  2.000E+04 -6.560E-02
   1   11   25     2     6    5.5807E+04 -1.1098E+03   5.6917E+04  0.000E+00  0.000E+00  0.000E+00  3.89995E+01  1.245E-01  2.000E+01  2.000E+04 -5.549E-02
   1   12   24     2     7    5.6917E+04 -1.1764E+03   5.8093E+04  0.000E+00  0.000E+00  0.000E+00  3.87510E+01  1.260E-01  2.000E+01  2.000E+04 -5.882E-02
   1   13   23     2     8    5.8093E+04 -1.8424E+02   5.8277E+04  0.000E+00  0.000E+00  0.000E+00  3.85019E+01  1.269E-01  2.000E+01  2.000E+04 -9.212E-03
   1   14   22     2     9    5.8277E+04  1.9083E+03   5.6369E+04  0.000E+00  0.000E+00  0.000E+00  3.82508E+01  1.258E-01  2.000E+01  2.000E+04  9.541E-02
   1   14   22     3     1    1.6923E+05 -8.6541E+03   1.7788E+05  0.000E+00  0.000E+00  0.000E+00  3.77226E+01  1.671E-01  2.000E+01  2.000E+04 -4.327E-01
   1   15   23     3     2    1.7788E+05 -5.2272E+02   1.7840E+05  0.000E+00  0.000E+00  0.000E+00  3.68364E+01  1.697E-01  2.000E+01  2.000E+04 -2.614E-02
   1   15   24     3     3    1.7840E+05 -2.7014E+02   1.7867E+05  0.000E+00  0.000E+00  0.000E+00  3.59477E+01  1.700E-01  2.000E+01  2.000E+04 -1.351E-02
   1   15   25     3     4    1.7867E+05 -2.6173E+02   1.7894E+05  0.000E+00  0.000E+00  0.000E+00  3.50590E+01  1.701E-01  2.000E+01  2.000E+04 -1.309E-02
   1   15   26     3     5    1.7894E+05 -3.0782E+02   1.7924E+05  0.000E+00  0.000E+00  0.000E+00  3.41703E+01  1.703E-01  2.000E+01  2.000E+04 -1.539E-02
   1   16   27     3     6    1.7924E+05 -3.4540E+02   1.7959E+05  0.000E+00  0.000E+00  0.000E+00  3.32816E+01  1.705E-01  2.000E+01  2.000E+04 -1.727E-02
   1   17   28     3     7    1.7959E+05 -1.5240E+03   1.8111E+05  0.000E+00  0.000E+00  0.000E+00  3.23932E+01  1.710E-01  2.000E+01  2.000E+04 -7.620E-02
   1   18   29     3     8    1.8111E+05 -2.9623E+03   1.8408E+05  0.000E+00  0.000E+00  0.000E+00  3.15056E+01  1.723E-01  2.000E+01  2.000E+04 -1.481E-01
   1   18   30     3     9    1.8408E+05 -3.1925E+03   1.8727E+05  0.000E+00  0.000E+00  0.000E+00  3.06184E+01  1.740E-01  2.000E+01  2.000E+04 -1.596E-01



1
              HEAD IN LAYER   1 AT END OF TIME STEP   1 IN STRESS PERIOD    5
  ---------------------------------------------------------------------------

          1      2      3      4      5      6      7      8      9     10
         11     12     13     14     15     16     17     18     19     20
         21     22     23     24     25     26     27     28     29     30
 .........................................................................
   1  ****** ****** ****** ****** ****** ****** ****** ****** ****** ******
      ****** ****** ****** ****** ****** ****** ****** ****** ****** ******
      ****** ****** ****** ****** ****** ****** ****** ****** ****** ******
   2  ****** ****** ****** ****** ****** ****** ****** ****** ****** ******
      ****** ****** ****** ****** ****** ****** ****** ****** ****** ******
      ****** ****** ****** ****** ****** ****** ****** ****** ****** ******
   3  ****** ****** ****** ****** ****** ****** ****** ****** ****** ******
      ****** ****** ****** ****** ****** ****** ****** ****** ****** ******
      ****** ****** ****** ****** ****** ****** ****** ****** ****** ******
   4  ****** ****** ****** ****** ****** ****** ****** ****** ****** ******
      ****** ****** ****** ****** ****** ****** ****** ****** ****** ******
      ****** ****** ****** ****** ****** ****** ****** ****** ****** ******
   5  ****** ****** ****** ****** ****** ****** ****** ****** ****** ******
      ****** ****** ****** ****** ****** ****** ****** ****** ****** ******
      ****** ****** ****** ****** ****** ****** ****** ****** ****** ******
   6  ****** ****** ****** ****** ****** ****** ****** ****** ****** ******
      ****** ****** ****** ****** ****** ****** ****** ****** ****** ******
      ****** ****** ****** ****** ****** ****** ****** ****** ****** ******
   7  ****** ****** ****** ****** ****** ****** ****** ****** ****** ******
      ****** ****** ****** ****** ****** ****** ****** ****** ****** ******
      ****** ****** ****** ****** ****** ****** ****** ****** ****** ******
   8  ****** ****** ****** ****** ****** ****** ****** ****** ****** ******
      ****** ****** ****** ****** ****** ****** ****** ****** ****** ******
      ****** ****** ****** ****** ****** ****** ****** ****** ****** ******
   9  ****** ****** ****** ****** ****** ****** ****** ****** ****** ******
      ****** ****** ****** ****** ****** ****** ****** ****** ****** ******
      ****** ****** ****** ****** ****** ****** ****** ****** ****** ******
  10  ****** ****** ****** ****** ****** ****** ****** ****** ****** ******
      ****** ****** ****** ****** ****** ****** ****** ****** ****** ******
      ****** ****** ****** ****** ****** ****** ****** ****** ****** ******
  11  ****** ****** ****** ****** ****** ****** ****** ****** ****** ******
      ****** ****** ****** ****** ****** ****** ****** ****** ****** ******
      ****** ****** ****** ****** ****** ****** ****** ****** ****** ******
  12  ****** ****** ****** ****** ****** ****** ****** ****** ****** ******
      ****** ****** ****** ****** ****** ****** ****** ****** ****** ******
      ****** ****** ****** ****** ****** ****** ****** ****** ****** ******
  13  ****** ****** ****** ****** ****** ****** ****** ****** ****** ******
      ****** ****** ****** ****** ****** ****** ****** ****** ****** ******
      ****** ****** ****** ****** ****** ****** ****** ****** ****** ******
  14  ****** ****** ****** ****** ****** ****** ****** ****** ****** ******
      ****** ****** ****** ****** ****** ****** ****** ****** ****** ******
      ****** ****** ****** ****** ****** ****** ****** ****** ****** ******
  15  ****** ****** ****** ****** ****** ****** ****** ****** ****** ******
      ****** ****** ****** ****** ****** ****** ****** ****** ****** ******
      ****** ****** ****** ****** ****** ****** ****** ****** ****** ******
  16  ****** ****** ****** ****** ****** ****** ****** ****** ****** ******
      ****** ****** ****** ****** ****** ****** ****** ****** ****** ******
      ****** ****** ****** ****** ****** ****** ****** ****** ****** ******
  17  ****** ****** ****** ****** ****** ****** ****** ****** ****** ******
      ****** ****** ****** ****** ****** ****** ****** ****** ****** ******
      ****** ****** ****** ****** ****** ****** ****** ****** ****** ******
  18  ****** ****** ****** ****** ****** ****** ****** ****** ****** ******
      ****** ****** ****** ****** ****** ****** ****** ****** ****** ******
      ****** ****** ****** ****** ****** ****** ****** ****** ****** ******
  19  ****** ****** ****** ****** ****** ****** ****** ****** ****** ******
      ****** ****** ****** ****** ****** ****** ****** ****** ****** ******
      ****** ****** ****** ****** ****** ****** ****** ****** ****** ******
  20  ****** ****** ****** ****** ****** ****** ****** ****** ****** ******
      ****** ****** ****** ****** ****** ****** ****** ****** ****** ******
      ****** ****** ****** ****** ****** ****** ****** ****** ****** ******
  21  ****** ****** ****** ****** ****** ****** ****** ****** ****** ******
      ****** ****** ****** ****** ****** ****** ****** ****** ****** ******
      ****** ****** ****** ****** ****** ****** ****** ****** ****** ******
  22  ****** ****** ****** ****** ****** ****** ****** ****** ****** ******
      ****** ****** ****** ****** ****** ****** ****** ****** ****** ******
      ****** ****** ****** ****** ****** ****** ****** ****** ****** ******
  23  ****** ****** ****** ****** ****** ****** ****** ****** ****** ******
      ****** ****** ****** ****** ****** ****** ****** ****** ****** ******
      ****** ****** ****** ****** ****** ****** ****** ****** ****** ******
  24  ****** ****** ****** ****** ****** ****** ****** ****** ****** ******
      ****** ****** ****** ****** ****** ****** ****** ****** ****** ******
      ****** ****** ****** ****** ****** ****** ****** ****** ****** ******
  25  ****** ****** ****** ****** ****** ****** ****** ****** ****** ******
      ****** ****** ****** ****** ****** ****** ****** ****** ****** ******
      ****** ****** ****** ****** ****** ****** ****** ****** ****** ******

 HEAD WILL BE SAVED ON UNIT   51 AT END OF TIME STEP    1, STRESS PERIOD    5
1
  VOLUMETRIC BUDGET FOR ENTIRE MODEL AT END OF TIME STEP    1, STRESS PERIOD   5
  ------------------------------------------------------------------------------

     CUMULATIVE VOLUMES      L**3       RATES FOR THIS TIME STEP      L**3/T
     ------------------                 ------------------------

           IN:                                      IN:
           ---                                      ---
             STORAGE =    32597110.4827               STORAGE =       20637.2029
       CONSTANT HEAD =    11318826.3094         CONSTANT HEAD =       33754.9185
               WELLS =           0.0000                 WELLS =           0.0000
            RECHARGE =    10074000.0000              RECHARGE =       13800.0000
      STREAM LEAKAGE =     3278319.1094        STREAM LEAKAGE =        9390.9826

            TOTAL IN =    57268255.9015              TOTAL IN =       77583.1041

          OUT:                                     OUT:
          ----                                     ----
             STORAGE =        1188.6774               STORAGE =           0.0000
       CONSTANT HEAD =           0.0000         CONSTANT HEAD =           0.0000
               WELLS =    14132409.1447                 WELLS =       30924.3089
            RECHARGE =           0.0000              RECHARGE =           0.0000
      STREAM LEAKAGE =    43134660.4328        STREAM LEAKAGE =       46658.7987

           TOTAL OUT =    57268258.2548             TOTAL OUT =       77583.1076

            IN - OUT =          -2.3533              IN - OUT =      -3.5026E-03

 PERCENT DISCREPANCY =          -0.00     PERCENT DISCREPANCY =          -0.00






         TIME SUMMARY AT END OF TIME STEP    1 IN STRESS PERIOD    5
                    SECONDS     MINUTES      HOURS       DAYS        YEARS
                    -----------------------------------------------------------
   TIME STEP LENGTH 7.94880E+06 1.32480E+05  2208.0      92.000     0.25188    
 STRESS PERIOD TIME 7.94880E+06 1.32480E+05  2208.0      92.000     0.25188    
         TOTAL TIME 3.94848E+07 6.58080E+05  10968.      457.00      1.2512    
1
1
                            STRESS PERIOD NO.    6, LENGTH =   91.00000    
                            -----------------------------------------------

                              NUMBER OF TIME STEPS =     1

                               MULTIPLIER FOR DELT =     1.500

                            INITIAL TIME STEP SIZE =   91.00000    

 WELL NO.  LAYER   ROW   COL   STRESS RATE         
 --------------------------------------------------
      1      1      6     15     -0.1070E+05
      2      1     13     17     -0.1103E+05
      3      1      5      8      -7262.    
      4      1      3     21      -1929.    

      4 WELLS

                 RECHARGE =  2.000000E-03

 REUSING STREAM SEGMENT DATA FROM LAST STRESS PERIOD
 
 SOLVING FOR HEAD 


     7 CALLS TO PCG ROUTINE FOR TIME STEP   1 IN STRESS PERIOD    6
    26 TOTAL ITERATIONS

 OUTPUT CONTROL FOR STRESS PERIOD    6   TIME STEP    1
    SAVE BUDGET
    SAVE HEAD FOR ALL LAYERS
    PRINT HEAD FOR ALL LAYERS
 UBDSV2 SAVING "STREAMFLOW OUT  " ON UNIT  50 AT TIME STEP  1, STRESS PERIOD   6



 STREAM LISTING     PERIOD      6   STEP        1

 LAYER ROW COL. STREAM  RCH.  FLOW INTO     FLOW TO   FLOW OUT OF   OVRLND.     DIRECT     STREAM       STREAM     STREAM     STREAM   STREAMBED  STREAMBED
                SEG.NO.  NO.  STRM. RCH.    AQUIFER    STRM. RCH.    RUNOFF     PRECIP       ET          HEAD       DEPTH      WIDTH   CONDCTNC.   GRADIENT

   1   13    1     1     1    1.0000E+05 -1.7698E+03   1.0177E+05  0.000E+00  0.000E+00  0.000E+00  4.84068E+01  1.454E-01  2.000E+01  2.000E+04 -8.849E-02
   1   13    2     1     2    1.0177E+05 -2.7569E+03   1.0453E+05  0.000E+00  0.000E+00  0.000E+00  4.79315E+01  1.474E-01  2.000E+01  2.000E+04 -1.378E-01
   1   14    3     1     3    1.0453E+05 -6.0240E+02   1.0513E+05  0.000E+00  0.000E+00  0.000E+00  4.74556E+01  1.488E-01  2.000E+01  2.000E+04 -3.012E-02
   1   15    4     1     4    1.0513E+05 -6.0229E+02   1.0573E+05  0.000E+00  0.000E+00  0.000E+00  4.69789E+01  1.493E-01  2.000E+01  2.000E+04 -3.011E-02
   1   16    5     1     5    1.0573E+05 -2.2141E+03   1.0795E+05  0.000E+00  0.000E+00  0.000E+00  4.65028E+01  1.505E-01  2.000E+01  2.000E+04 -1.107E-01
   1   16    6     1     6    1.0795E+05 -1.3733E+03   1.0932E+05  0.000E+00  0.000E+00  0.000E+00  4.60270E+01  1.520E-01  2.000E+01  2.000E+04 -6.867E-02
   1   16    7     1     7    1.0932E+05 -1.3393E+03   1.1066E+05  0.000E+00  0.000E+00  0.000E+00  4.55509E+01  1.532E-01  2.000E+01  2.000E+04 -6.697E-02
   1   16    8     1     8    1.1066E+05 -1.3298E+03   1.1199E+05  0.000E+00  0.000E+00  0.000E+00  4.50747E+01  1.543E-01  2.000E+01  2.000E+04 -6.649E-02
   1   16    9     1     9    1.1199E+05 -1.3184E+03   1.1331E+05  0.000E+00  0.000E+00  0.000E+00  4.45985E+01  1.554E-01  2.000E+01  2.000E+04 -6.592E-02
   1   16   10     1    10    1.1331E+05 -1.3028E+03   1.1461E+05  0.000E+00  0.000E+00  0.000E+00  4.41224E+01  1.564E-01  2.000E+01  2.000E+04 -6.514E-02
   1   16   11     1    11    1.1461E+05 -1.3009E+03   1.1591E+05  0.000E+00  0.000E+00  0.000E+00  4.36462E+01  1.575E-01  2.000E+01  2.000E+04 -6.505E-02
   1   16   12     1    12    1.1591E+05 -2.0795E+03   1.1799E+05  0.000E+00  0.000E+00  0.000E+00  4.31703E+01  1.589E-01  2.000E+01  2.000E+04 -1.040E-01
   1   15   13     1    13    1.1799E+05 -1.6530E+03   1.1964E+05  0.000E+00  0.000E+00  0.000E+00  4.26945E+01  1.604E-01  2.000E+01  2.000E+04 -8.265E-02
   1   14   14     1    14    1.1964E+05 -1.3857E+03   1.2103E+05  0.000E+00  0.000E+00  0.000E+00  4.22185E+01  1.616E-01  2.000E+01  2.000E+04 -6.928E-02
   1   13   15     1    15    1.2103E+05 -3.5253E+02   1.2138E+05  0.000E+00  0.000E+00  0.000E+00  4.17419E+01  1.623E-01  2.000E+01  2.000E+04 -1.763E-02
   1   12   16     1    16    1.2138E+05 -6.1381E+02   1.2199E+05  0.000E+00  0.000E+00  0.000E+00  4.12650E+01  1.627E-01  2.000E+01  2.000E+04 -3.069E-02
   1   12   17     1    17    1.2199E+05  2.1714E+03   1.1982E+05  0.000E+00  0.000E+00  0.000E+00  4.07871E+01  1.621E-01  2.000E+01  2.000E+04  1.086E-01
   1   12   18     1    18    1.1982E+05 -1.2163E+02   1.1994E+05  0.000E+00  0.000E+00  0.000E+00  4.03090E+01  1.613E-01  2.000E+01  2.000E+04 -6.082E-03
   1   12   19     1    19    1.1994E+05 -1.5108E+03   1.2146E+05  0.000E+00  0.000E+00  0.000E+00  3.98324E+01  1.619E-01  2.000E+01  2.000E+04 -7.554E-02
   1   13   20     1    20    1.2146E+05 -1.2803E+03   1.2274E+05  0.000E+00  0.000E+00  0.000E+00  3.93562E+01  1.631E-01  2.000E+01  2.000E+04 -6.402E-02
   1   14   21     1    21    1.2274E+05 -1.6960E+03   1.2443E+05  0.000E+00  0.000E+00  0.000E+00  3.88802E+01  1.642E-01  2.000E+01  2.000E+04 -8.480E-02
   1   14   22     1    22    1.2443E+05  4.7094E+03   1.1972E+05  0.000E+00  0.000E+00  0.000E+00  3.84017E+01  1.630E-01  2.000E+01  2.000E+04  2.355E-01
   1    9   30     2     1    5.0000E+04 -8.8909E+02   5.0889E+04  0.000E+00  0.000E+00  0.000E+00  4.02415E+01  1.165E-01  2.000E+01  2.000E+04 -4.445E-02
   1    9   29     2     2    5.0889E+04 -1.1713E+03   5.2060E+04  0.000E+00  0.000E+00  0.000E+00  3.99929E+01  1.179E-01  2.000E+01  2.000E+04 -5.857E-02
   1    9   28     2     3    5.2060E+04 -1.3867E+03   5.3447E+04  0.000E+00  0.000E+00  0.000E+00  3.97447E+01  1.197E-01  2.000E+01  2.000E+04 -6.933E-02
   1    9   27     2     4    5.3447E+04 -2.5318E+03   5.5979E+04  0.000E+00  0.000E+00  0.000E+00  3.94973E+01  1.223E-01  2.000E+01  2.000E+04 -1.266E-01
   1   10   26     2     5    5.5979E+04 -1.7670E+03   5.7746E+04  0.000E+00  0.000E+00  0.000E+00  3.92502E+01  1.252E-01  2.000E+01  2.000E+04 -8.835E-02
   1   11   25     2     6    5.7746E+04 -1.5507E+03   5.9297E+04  0.000E+00  0.000E+00  0.000E+00  3.90023E+01  1.273E-01  2.000E+01  2.000E+04 -7.753E-02
   1   12   24     2     7    5.9297E+04 -1.5724E+03   6.0869E+04  0.000E+00  0.000E+00  0.000E+00  3.87544E+01  1.294E-01  2.000E+01  2.000E+04 -7.862E-02
   1   13   23     2     8    6.0869E+04 -3.1991E+02   6.1189E+04  0.000E+00  0.000E+00  0.000E+00  3.85056E+01  1.306E-01  2.000E+01  2.000E+04 -1.600E-02
   1   14   22     2     9    6.1189E+04  1.7688E+03   5.9420E+04  0.000E+00  0.000E+00  0.000E+00  3.82547E+01  1.297E-01  2.000E+01  2.000E+04  8.844E-02
   1   14   22     3     1    1.7914E+05 -8.7574E+03   1.8790E+05  0.000E+00  0.000E+00  0.000E+00  3.77283E+01  1.728E-01  2.000E+01  2.000E+04 -4.379E-01
   1   15   23     3     2    1.8790E+05 -6.6146E+02   1.8856E+05  0.000E+00  0.000E+00  0.000E+00  3.68421E+01  1.754E-01  2.000E+01  2.000E+04 -3.307E-02
   1   15   24     3     3    1.8856E+05 -3.9289E+02   1.8895E+05  0.000E+00  0.000E+00  0.000E+00  3.59535E+01  1.757E-01  2.000E+01  2.000E+04 -1.964E-02
   1   15   25     3     4    1.8895E+05 -3.8886E+02   1.8934E+05  0.000E+00  0.000E+00  0.000E+00  3.50648E+01  1.759E-01  2.000E+01  2.000E+04 -1.944E-02
   1   15   26     3     5    1.8934E+05 -4.5968E+02   1.8980E+05  0.000E+00  0.000E+00  0.000E+00  3.41762E+01  1.762E-01  2.000E+01  2.000E+04 -2.298E-02
   1   16   27     3     6    1.8980E+05 -5.1498E+02   1.9032E+05  0.000E+00  0.000E+00  0.000E+00  3.32876E+01  1.765E-01  2.000E+01  2.000E+04 -2.575E-02
   1   17   28     3     7    1.9032E+05 -1.9900E+03   1.9231E+05  0.000E+00  0.000E+00  0.000E+00  3.23994E+01  1.772E-01  2.000E+01  2.000E+04 -9.950E-02
   1   18   29     3     8    1.9231E+05 -3.4089E+03   1.9572E+05  0.000E+00  0.000E+00  0.000E+00  3.15120E+01  1.786E-01  2.000E+01  2.000E+04 -1.704E-01
   1   18   30     3     9    1.9572E+05 -3.5531E+03   1.9927E+05  0.000E+00  0.000E+00  0.000E+00  3.06250E+01  1.806E-01  2.000E+01  2.000E+04 -1.777E-01



1
              HEAD IN LAYER   1 AT END OF TIME STEP   1 IN STRESS PERIOD    6
  ---------------------------------------------------------------------------

          1      2      3      4      5      6      7      8      9     10
         11     12     13     14     15     16     17     18     19     20
         21     22     23     24     25     26     27     28     29     30
 .........................................................................
   1  ****** ****** ****** ****** ****** ****** ****** ****** ****** ******
      ****** ****** ****** ****** ****** ****** ****** ****** ****** ******
      ****** ****** ****** ****** ****** ****** ****** ****** ****** ******
   2  ****** ****** ****** ****** ****** ****** ****** ****** ****** ******
      ****** ****** ****** ****** ****** ****** ****** ****** ****** ******
      ****** ****** ****** ****** ****** ****** ****** ****** ****** ******
   3  ****** ****** ****** ****** ****** ****** ****** ****** ****** ******
      ****** ****** ****** ****** ****** ****** ****** ****** ****** ******
      ****** ****** ****** ****** ****** ****** ****** ****** ****** ******
   4  ****** ****** ****** ****** ****** ****** ****** ****** ****** ******
      ****** ****** ****** ****** ****** ****** ****** ****** ****** ******
      ****** ****** ****** ****** ****** ****** ****** ****** ****** ******
   5  ****** ****** ****** ****** ****** ****** ****** ****** ****** ******
      ****** ****** ****** ****** ****** ****** ****** ****** ****** ******
      ****** ****** ****** ****** ****** ****** ****** ****** ****** ******
   6  ****** ****** ****** ****** ****** ****** ****** ****** ****** ******
      ****** ****** ****** ****** ****** ****** ****** ****** ****** ******
      ****** ****** ****** ****** ****** ****** ****** ****** ****** ******
   7  ****** ****** ****** ****** ****** ****** ****** ****** ****** ******
      ****** ****** ****** ****** ****** ****** ****** ****** ****** ******
      ****** ****** ****** ****** ****** ****** ****** ****** ****** ******
   8  ****** ****** ****** ****** ****** ****** ****** ****** ****** ******
      ****** ****** ****** ****** ****** ****** ****** ****** ****** ******
      ****** ****** ****** ****** ****** ****** ****** ****** ****** ******
   9  ****** ****** ****** ****** ****** ****** ****** ****** ****** ******
      ****** ****** ****** ****** ****** ****** ****** ****** ****** ******
      ****** ****** ****** ****** ****** ****** ****** ****** ****** ******
  10  ****** ****** ****** ****** ****** ****** ****** ****** ****** ******
      ****** ****** ****** ****** ****** ****** ****** ****** ****** ******
      ****** ****** ****** ****** ****** ****** ****** ****** ****** ******
  11  ****** ****** ****** ****** ****** ****** ****** ****** ****** ******
      ****** ****** ****** ****** ****** ****** ****** ****** ****** ******
      ****** ****** ****** ****** ****** ****** ****** ****** ****** ******
  12  ****** ****** ****** ****** ****** ****** ****** ****** ****** ******
      ****** ****** ****** ****** ****** ****** ****** ****** ****** ******
      ****** ****** ****** ****** ****** ****** ****** ****** ****** ******
  13  ****** ****** ****** ****** ****** ****** ****** ****** ****** ******
      ****** ****** ****** ****** ****** ****** ****** ****** ****** ******
      ****** ****** ****** ****** ****** ****** ****** ****** ****** ******
  14  ****** ****** ****** ****** ****** ****** ****** ****** ****** ******
      ****** ****** ****** ****** ****** ****** ****** ****** ****** ******
      ****** ****** ****** ****** ****** ****** ****** ****** ****** ******
  15  ****** ****** ****** ****** ****** ****** ****** ****** ****** ******
      ****** ****** ****** ****** ****** ****** ****** ****** ****** ******
      ****** ****** ****** ****** ****** ****** ****** ****** ****** ******
  16  ****** ****** ****** ****** ****** ****** ****** ****** ****** ******
      ****** ****** ****** ****** ****** ****** ****** ****** ****** ******
      ****** ****** ****** ****** ****** ****** ****** ****** ****** ******
  17  ****** ****** ****** ****** ****** ****** ****** ****** ****** ******
      ****** ****** ****** ****** ****** ****** ****** ****** ****** ******
      ****** ****** ****** ****** ****** ****** ****** ****** ****** ******
  18  ****** ****** ****** ****** ****** ****** ****** ****** ****** ******
      ****** ****** ****** ****** ****** ****** ****** ****** ****** ******
      ****** ****** ****** ****** ****** ****** ****** ****** ****** ******
  19  ****** ****** ****** ****** ****** ****** ****** ****** ****** ******
      ****** ****** ****** ****** ****** ****** ****** ****** ****** ******
      ****** ****** ****** ****** ****** ****** ****** ****** ****** ******
  20  ****** ****** ****** ****** ****** ****** ****** ****** ****** ******
      ****** ****** ****** ****** ****** ****** ****** ****** ****** ******
      ****** ****** ****** ****** ****** ****** ****** ****** ****** ******
  21  ****** ****** ****** ****** ****** ****** ****** ****** ****** ******
      ****** ****** ****** ****** ****** ****** ****** ****** ****** ******
      ****** ****** ****** ****** ****** ****** ****** ****** ****** ******
  22  ****** ****** ****** ****** ****** ****** ****** ****** ****** ******
      ****** ****** ****** ****** ****** ****** ****** ****** ****** ******
      ****** ****** ****** ****** ****** ****** ****** ****** ****** ******
  23  ****** ****** ****** ****** ****** ****** ****** ****** ****** ******
      ****** ****** ****** ****** ****** ****** ****** ****** ****** ******
      ****** ****** ****** ****** ****** ****** ****** ****** ****** ******
  24  ****** ****** ****** ****** ****** ****** ****** ****** ****** ******
      ****** ****** ****** ****** ****** ****** ****** ****** ****** ******
      ****** ****** ****** ****** ****** ****** ****** ****** ****** ******
  25  ****** ****** ****** ****** ****** ****** ****** ****** ****** ******
      ****** ****** ****** ****** ****** ****** ****** ****** ****** ******
      ****** ****** ****** ****** ****** ****** ****** ****** ****** ******

 HEAD WILL BE SAVED ON UNIT   51 AT END OF TIME STEP    1, STRESS PERIOD    6
1
  VOLUMETRIC BUDGET FOR ENTIRE MODEL AT END OF TIME STEP    1, STRESS PERIOD   6
  ------------------------------------------------------------------------------

     CUMULATIVE VOLUMES      L**3       RATES FOR THIS TIME STEP      L**3/T
     ------------------                 ------------------------

           IN:                                      IN:
           ---                                      ---
             STORAGE =    32641820.1205               STORAGE =         491.3147
       CONSTANT HEAD =    14234793.8459         CONSTANT HEAD =       32043.5993
               WELLS =           0.0000                 WELLS =           0.0000
            RECHARGE =    15097200.0000              RECHARGE =       55200.0000
      STREAM LEAKAGE =     4065425.8088        STREAM LEAKAGE =        8649.5242

            TOTAL IN =    66039239.7751              TOTAL IN =       96384.4382

          OUT:                                     OUT:
          ----                                     ----
             STORAGE =      687374.3707               STORAGE =        7540.5021
       CONSTANT HEAD =           0.0000         CONSTANT HEAD =           0.0000
               WELLS =    16946521.2500                 WELLS =       30924.3089
            RECHARGE =           0.0000              RECHARGE =           0.0000
      STREAM LEAKAGE =    48405346.2536        STREAM LEAKAGE =       57919.6244

           TOTAL OUT =    66039241.8743             TOTAL OUT =       96384.4354

            IN - OUT =          -2.0992              IN - OUT =       2.7926E-03

 PERCENT DISCREPANCY =          -0.00     PERCENT DISCREPANCY =           0.00






         TIME SUMMARY AT END OF TIME STEP    1 IN STRESS PERIOD    6
                    SECONDS     MINUTES      HOURS       DAYS        YEARS
                    -----------------------------------------------------------
   TIME STEP LENGTH 7.86240E+06 1.31040E+05  2184.0      91.000     0.24914    
 STRESS PERIOD TIME 7.86240E+06 1.31040E+05  2184.0      91.000     0.24914    
         TOTAL TIME 4.73472E+07 7.89120E+05  13152.      548.00      1.5003    
1
1
                            STRESS PERIOD NO.    7, LENGTH =   91.00000    
                            -----------------------------------------------

                              NUMBER OF TIME STEPS =     1

                               MULTIPLIER FOR DELT =     1.500

                            INITIAL TIME STEP SIZE =   91.00000    

 WELL NO.  LAYER   ROW   COL   STRESS RATE         
 --------------------------------------------------
      1      1      6     15     -0.1070E+05
      2      1     13     17     -0.1103E+05
      3      1      5      8      -7262.    
      4      1      3     21      -1929.    

      4 WELLS

                 RECHARGE =   0.00000    

 REUSING STREAM SEGMENT DATA FROM LAST STRESS PERIOD
 
 SOLVING FOR HEAD 


     7 CALLS TO PCG ROUTINE FOR TIME STEP   1 IN STRESS PERIOD    7
    26 TOTAL ITERATIONS

 OUTPUT CONTROL FOR STRESS PERIOD    7   TIME STEP    1
    SAVE BUDGET
    SAVE HEAD FOR ALL LAYERS
    PRINT HEAD FOR ALL LAYERS
 UBDSV2 SAVING "STREAMFLOW OUT  " ON UNIT  50 AT TIME STEP  1, STRESS PERIOD   7



 STREAM LISTING     PERIOD      7   STEP        1

 LAYER ROW COL. STREAM  RCH.  FLOW INTO     FLOW TO   FLOW OUT OF   OVRLND.     DIRECT     STREAM       STREAM     STREAM     STREAM   STREAMBED  STREAMBED
                SEG.NO.  NO.  STRM. RCH.    AQUIFER    STRM. RCH.    RUNOFF     PRECIP       ET          HEAD       DEPTH      WIDTH   CONDCTNC.   GRADIENT

   1   13    1     1     1    1.0000E+05 -1.0600E+03   1.0106E+05  0.000E+00  0.000E+00  0.000E+00  4.84065E+01  1.451E-01  2.000E+01  2.000E+04 -5.300E-02
   1   13    2     1     2    1.0106E+05 -1.9610E+03   1.0302E+05  0.000E+00  0.000E+00  0.000E+00  4.79305E+01  1.464E-01  2.000E+01  2.000E+04 -9.805E-02
   1   14    3     1     3    1.0302E+05 -3.4380E+02   1.0336E+05  0.000E+00  0.000E+00  0.000E+00  4.74542E+01  1.474E-01  2.000E+01  2.000E+04 -1.719E-02
   1   15    4     1     4    1.0336E+05 -3.3460E+02   1.0370E+05  0.000E+00  0.000E+00  0.000E+00  4.69772E+01  1.477E-01  2.000E+01  2.000E+04 -1.673E-02
   1   16    5     1     5    1.0370E+05 -1.4590E+03   1.0516E+05  0.000E+00  0.000E+00  0.000E+00  4.65007E+01  1.485E-01  2.000E+01  2.000E+04 -7.295E-02
   1   16    6     1     6    1.0516E+05 -9.1528E+02   1.0607E+05  0.000E+00  0.000E+00  0.000E+00  4.60245E+01  1.495E-01  2.000E+01  2.000E+04 -4.576E-02
   1   16    7     1     7    1.0607E+05 -8.9924E+02   1.0697E+05  0.000E+00  0.000E+00  0.000E+00  4.55480E+01  1.502E-01  2.000E+01  2.000E+04 -4.496E-02
   1   16    8     1     8    1.0697E+05 -8.9570E+02   1.0787E+05  0.000E+00  0.000E+00  0.000E+00  4.50715E+01  1.510E-01  2.000E+01  2.000E+04 -4.478E-02
   1   16    9     1     9    1.0787E+05 -8.8807E+02   1.0876E+05  0.000E+00  0.000E+00  0.000E+00  4.45949E+01  1.518E-01  2.000E+01  2.000E+04 -4.440E-02
   1   16   10     1    10    1.0876E+05 -8.7604E+02   1.0963E+05  0.000E+00  0.000E+00  0.000E+00  4.41184E+01  1.525E-01  2.000E+01  2.000E+04 -4.380E-02
   1   16   11     1    11    1.0963E+05 -8.7440E+02   1.1051E+05  0.000E+00  0.000E+00  0.000E+00  4.36419E+01  1.532E-01  2.000E+01  2.000E+04 -4.372E-02
   1   16   12     1    12    1.1051E+05 -1.3607E+03   1.1187E+05  0.000E+00  0.000E+00  0.000E+00  4.31655E+01  1.542E-01  2.000E+01  2.000E+04 -6.804E-02
   1   15   13     1    13    1.1187E+05 -8.7159E+02   1.1274E+05  0.000E+00  0.000E+00  0.000E+00  4.26892E+01  1.551E-01  2.000E+01  2.000E+04 -4.358E-02
   1   14   14     1    14    1.1274E+05 -5.6884E+02   1.1331E+05  0.000E+00  0.000E+00  0.000E+00  4.22125E+01  1.557E-01  2.000E+01  2.000E+04 -2.844E-02
   1   13   15     1    15    1.1331E+05  4.7299E+02   1.1284E+05  0.000E+00  0.000E+00  0.000E+00  4.17353E+01  1.557E-01  2.000E+01  2.000E+04  2.365E-02
   1   12   16     1    16    1.1284E+05  2.1701E+02   1.1262E+05  0.000E+00  0.000E+00  0.000E+00  4.12577E+01  1.554E-01  2.000E+01  2.000E+04  1.085E-02
   1   12   17     1    17    1.1262E+05  2.7663E+03   1.0985E+05  0.000E+00  0.000E+00  0.000E+00  4.07792E+01  1.542E-01  2.000E+01  2.000E+04  1.383E-01
   1   12   18     1    18    1.0985E+05  4.5574E+02   1.0940E+05  0.000E+00  0.000E+00  0.000E+00  4.03006E+01  1.529E-01  2.000E+01  2.000E+04  2.279E-02
   1   12   19     1    19    1.0940E+05 -8.0575E+02   1.1020E+05  0.000E+00  0.000E+00  0.000E+00  3.98235E+01  1.530E-01  2.000E+01  2.000E+04 -4.029E-02
   1   13   20     1    20    1.1020E+05 -6.0533E+02   1.1081E+05  0.000E+00  0.000E+00  0.000E+00  3.93468E+01  1.536E-01  2.000E+01  2.000E+04 -3.027E-02
   1   14   21     1    21    1.1081E+05 -1.0368E+03   1.1184E+05  0.000E+00  0.000E+00  0.000E+00  3.88702E+01  1.543E-01  2.000E+01  2.000E+04 -5.184E-02
   1   14   22     1    22    1.1184E+05  4.8625E+03   1.0698E+05  0.000E+00  0.000E+00  0.000E+00  3.83913E+01  1.527E-01  2.000E+01  2.000E+04  2.431E-01
   1    9   30     2     1    5.0000E+04 -3.7161E+02   5.0372E+04  0.000E+00  0.000E+00  0.000E+00  4.02411E+01  1.161E-01  2.000E+01  2.000E+04 -1.858E-02
   1    9   29     2     2    5.0372E+04 -6.5525E+02   5.1027E+04  0.000E+00  0.000E+00  0.000E+00  3.99918E+01  1.168E-01  2.000E+01  2.000E+04 -3.276E-02
   1    9   28     2     3    5.1027E+04 -8.6829E+02   5.1895E+04  0.000E+00  0.000E+00  0.000E+00  3.97429E+01  1.179E-01  2.000E+01  2.000E+04 -4.341E-02
   1    9   27     2     4    5.1895E+04 -1.8232E+03   5.3718E+04  0.000E+00  0.000E+00  0.000E+00  3.94947E+01  1.197E-01  2.000E+01  2.000E+04 -9.116E-02
   1   10   26     2     5    5.3718E+04 -1.0580E+03   5.4776E+04  0.000E+00  0.000E+00  0.000E+00  3.92467E+01  1.217E-01  2.000E+01  2.000E+04 -5.290E-02
   1   11   25     2     6    5.4776E+04 -8.7075E+02   5.5647E+04  0.000E+00  0.000E+00  0.000E+00  3.89980E+01  1.230E-01  2.000E+01  2.000E+04 -4.354E-02
   1   12   24     2     7    5.5647E+04 -9.5154E+02   5.6599E+04  0.000E+00  0.000E+00  0.000E+00  3.87492E+01  1.242E-01  2.000E+01  2.000E+04 -4.758E-02
   1   13   23     2     8    5.6599E+04 -1.2655E+02   5.6725E+04  0.000E+00  0.000E+00  0.000E+00  3.84999E+01  1.249E-01  2.000E+01  2.000E+04 -6.327E-03
   1   14   22     2     9    5.6725E+04  2.0092E+03   5.4716E+04  0.000E+00  0.000E+00  0.000E+00  3.82486E+01  1.236E-01  2.000E+01  2.000E+04  1.005E-01
   1   14   22     3     1    1.6170E+05 -8.5988E+03   1.7030E+05  0.000E+00  0.000E+00  0.000E+00  3.77182E+01  1.627E-01  2.000E+01  2.000E+04 -4.299E-01
   1   15   23     3     2    1.7030E+05 -4.5629E+02   1.7075E+05  0.000E+00  0.000E+00  0.000E+00  3.68320E+01  1.653E-01  2.000E+01  2.000E+04 -2.281E-02
   1   15   24     3     3    1.7075E+05 -2.2000E+02   1.7097E+05  0.000E+00  0.000E+00  0.000E+00  3.59433E+01  1.655E-01  2.000E+01  2.000E+04 -1.100E-02
   1   15   25     3     4    1.7097E+05 -2.1282E+02   1.7119E+05  0.000E+00  0.000E+00  0.000E+00  3.50545E+01  1.657E-01  2.000E+01  2.000E+04 -1.064E-02
   1   15   26     3     5    1.7119E+05 -2.5893E+02   1.7144E+05  0.000E+00  0.000E+00  0.000E+00  3.41658E+01  1.658E-01  2.000E+01  2.000E+04 -1.295E-02
   1   16   27     3     6    1.7144E+05 -2.8345E+02   1.7173E+05  0.000E+00  0.000E+00  0.000E+00  3.32771E+01  1.660E-01  2.000E+01  2.000E+04 -1.417E-02
   1   17   28     3     7    1.7173E+05 -1.3514E+03   1.7308E+05  0.000E+00  0.000E+00  0.000E+00  3.23887E+01  1.664E-01  2.000E+01  2.000E+04 -6.757E-02
   1   18   29     3     8    1.7308E+05 -2.7288E+03   1.7581E+05  0.000E+00  0.000E+00  0.000E+00  3.15009E+01  1.676E-01  2.000E+01  2.000E+04 -1.364E-01
   1   18   30     3     9    1.7581E+05 -3.0282E+03   1.7884E+05  0.000E+00  0.000E+00  0.000E+00  3.06137E+01  1.693E-01  2.000E+01  2.000E+04 -1.514E-01



1
              HEAD IN LAYER   1 AT END OF TIME STEP   1 IN STRESS PERIOD    7
  ---------------------------------------------------------------------------

          1      2      3      4      5      6      7      8      9     10
         11     12     13     14     15     16     17     18     19     20
         21     22     23     24     25     26     27     28     29     30
 .........................................................................
   1  ****** ****** ****** ****** ****** ****** ****** ****** ****** ******
      ****** ****** ****** ****** ****** ****** ****** ****** ****** ******
      ****** ****** ****** ****** ****** ****** ****** ****** ****** ******
   2  ****** ****** ****** ****** ****** ****** ****** ****** ****** ******
      ****** ****** ****** ****** ****** ****** ****** ****** ****** ******
      ****** ****** ****** ****** ****** ****** ****** ****** ****** ******
   3  ****** ****** ****** ****** ****** ****** ****** ****** ****** ******
      ****** ****** ****** ****** ****** ****** ****** ****** ****** ******
      ****** ****** ****** ****** ****** ****** ****** ****** ****** ******
   4  ****** ****** ****** ****** ****** ****** ****** ****** ****** ******
      ****** ****** ****** ****** ****** ****** ****** ****** ****** ******
      ****** ****** ****** ****** ****** ****** ****** ****** ****** ******
   5  ****** ****** ****** ****** ****** ****** ****** ****** ****** ******
      ****** ****** ****** ****** ****** ****** ****** ****** ****** ******
      ****** ****** ****** ****** ****** ****** ****** ****** ****** ******
   6  ****** ****** ****** ****** ****** ****** ****** ****** ****** ******
      ****** ****** ****** ****** ****** ****** ****** ****** ****** ******
      ****** ****** ****** ****** ****** ****** ****** ****** ****** ******
   7  ****** ****** ****** ****** ****** ****** ****** ****** ****** ******
      ****** ****** ****** ****** ****** ****** ****** ****** ****** ******
      ****** ****** ****** ****** ****** ****** ****** ****** ****** ******
   8  ****** ****** ****** ****** ****** ****** ****** ****** ****** ******
      ****** ****** ****** ****** ****** ****** ****** ****** ****** ******
      ****** ****** ****** ****** ****** ****** ****** ****** ****** ******
   9  ****** ****** ****** ****** ****** ****** ****** ****** ****** ******
      ****** ****** ****** ****** ****** ****** ****** ****** ****** ******
      ****** ****** ****** ****** ****** ****** ****** ****** ****** ******
  10  ****** ****** ****** ****** ****** ****** ****** ****** ****** ******
      ****** ****** ****** ****** ****** ****** ****** ****** ****** ******
      ****** ****** ****** ****** ****** ****** ****** ****** ****** ******
  11  ****** ****** ****** ****** ****** ****** ****** ****** ****** ******
      ****** ****** ****** ****** ****** ****** ****** ****** ****** ******
      ****** ****** ****** ****** ****** ****** ****** ****** ****** ******
  12  ****** ****** ****** ****** ****** ****** ****** ****** ****** ******
      ****** ****** ****** ****** ****** ****** ****** ****** ****** ******
      ****** ****** ****** ****** ****** ****** ****** ****** ****** ******
  13  ****** ****** ****** ****** ****** ****** ****** ****** ****** ******
      ****** ****** ****** ****** ****** ****** ****** ****** ****** ******
      ****** ****** ****** ****** ****** ****** ****** ****** ****** ******
  14  ****** ****** ****** ****** ****** ****** ****** ****** ****** ******
      ****** ****** ****** ****** ****** ****** ****** ****** ****** ******
      ****** ****** ****** ****** ****** ****** ****** ****** ****** ******
  15  ****** ****** ****** ****** ****** ****** ****** ****** ****** ******
      ****** ****** ****** ****** ****** ****** ****** ****** ****** ******
      ****** ****** ****** ****** ****** ****** ****** ****** ****** ******
  16  ****** ****** ****** ****** ****** ****** ****** ****** ****** ******
      ****** ****** ****** ****** ****** ****** ****** ****** ****** ******
      ****** ****** ****** ****** ****** ****** ****** ****** ****** ******
  17  ****** ****** ****** ****** ****** ****** ****** ****** ****** ******
      ****** ****** ****** ****** ****** ****** ****** ****** ****** ******
      ****** ****** ****** ****** ****** ****** ****** ****** ****** ******
  18  ****** ****** ****** ****** ****** ****** ****** ****** ****** ******
      ****** ****** ****** ****** ****** ****** ****** ****** ****** ******
      ****** ****** ****** ****** ****** ****** ****** ****** ****** ******
  19  ****** ****** ****** ****** ****** ****** ****** ****** ****** ******
      ****** ****** ****** ****** ****** ****** ****** ****** ****** ******
      ****** ****** ****** ****** ****** ****** ****** ****** ****** ******
  20  ****** ****** ****** ****** ****** ****** ****** ****** ****** ******
      ****** ****** ****** ****** ****** ****** ****** ****** ****** ******
      ****** ****** ****** ****** ****** ****** ****** ****** ****** ******
  21  ****** ****** ****** ****** ****** ****** ****** ****** ****** ******
      ****** ****** ****** ****** ****** ****** ****** ****** ****** ******
      ****** ****** ****** ****** ****** ****** ****** ****** ****** ******
  22  ****** ****** ****** ****** ****** ****** ****** ****** ****** ******
      ****** ****** ****** ****** ****** ****** ****** ****** ****** ******
      ****** ****** ****** ****** ****** ****** ****** ****** ****** ******
  23  ****** ****** ****** ****** ****** ****** ****** ****** ****** ******
      ****** ****** ****** ****** ****** ****** ****** ****** ****** ******
      ****** ****** ****** ****** ****** ****** ****** ****** ****** ******
  24  ****** ****** ****** ****** ****** ****** ****** ****** ****** ******
      ****** ****** ****** ****** ****** ****** ****** ****** ****** ******
      ****** ****** ****** ****** ****** ****** ****** ****** ****** ******
  25  ****** ****** ****** ****** ****** ****** ****** ****** ****** ******
      ****** ****** ****** ****** ****** ****** ****** ****** ****** ******
      ****** ****** ****** ****** ****** ****** ****** ****** ****** ******

 HEAD WILL BE SAVED ON UNIT   51 AT END OF TIME STEP    1, STRESS PERIOD    7
1
  VOLUMETRIC BUDGET FOR ENTIRE MODEL AT END OF TIME STEP    1, STRESS PERIOD   7
  ------------------------------------------------------------------------------

     CUMULATIVE VOLUMES      L**3       RATES FOR THIS TIME STEP      L**3/T
     ------------------                 ------------------------

           IN:                                      IN:
           ---                                      ---
             STORAGE =    34793825.5913               STORAGE =       23648.4118
       CONSTANT HEAD =    17521017.3909         CONSTANT HEAD =       36112.3466
               WELLS =           0.0000                 WELLS =           0.0000
            RECHARGE =    15097200.0000              RECHARGE =           0.0000
      STREAM LEAKAGE =     5046739.2215        STREAM LEAKAGE =       10783.6639

            TOTAL IN =    72458782.2037              TOTAL IN =       70544.4223

          OUT:                                     OUT:
          ----                                     ----
             STORAGE =      687374.3707               STORAGE =           0.0000
       CONSTANT HEAD =           0.0000         CONSTANT HEAD =           0.0000
               WELLS =    19760633.3554                 WELLS =       30924.3089
            RECHARGE =           0.0000              RECHARGE =           0.0000
      STREAM LEAKAGE =    52010777.0913        STREAM LEAKAGE =       39620.1191

           TOTAL OUT =    72458784.8174             TOTAL OUT =       70544.4279

            IN - OUT =          -2.6137              IN - OUT =      -5.6537E-03

 PERCENT DISCREPANCY =          -0.00     PERCENT DISCREPANCY =          -0.00






         TIME SUMMARY AT END OF TIME STEP    1 IN STRESS PERIOD    7
                    SECONDS     MINUTES      HOURS       DAYS        YEARS
                    -----------------------------------------------------------
   TIME STEP LENGTH 7.86240E+06 1.31040E+05  2184.0      91.000     0.24914    
 STRESS PERIOD TIME 7.86240E+06 1.31040E+05  2184.0      91.000     0.24914    
         TOTAL TIME 5.52096E+07 9.20160E+05  15336.      639.00      1.7495    
1
1
                            STRESS PERIOD NO.    8, LENGTH =   91.00000    
                            -----------------------------------------------

                              NUMBER OF TIME STEPS =     1

                               MULTIPLIER FOR DELT =     1.500

                            INITIAL TIME STEP SIZE =   91.00000    

 WELL NO.  LAYER   ROW   COL   STRESS RATE         
 --------------------------------------------------
      1      1      6     15     -0.1070E+05
      2      1     13     17     -0.1103E+05
      3      1      5      8      -7262.    
      4      1      3     21      -1929.    

      4 WELLS

                 RECHARGE =  1.000000E-03

 REUSING STREAM SEGMENT DATA FROM LAST STRESS PERIOD
 
 SOLVING FOR HEAD 


     6 CALLS TO PCG ROUTINE FOR TIME STEP   1 IN STRESS PERIOD    8
    22 TOTAL ITERATIONS

 OUTPUT CONTROL FOR STRESS PERIOD    8   TIME STEP    1
    SAVE BUDGET
    SAVE HEAD FOR ALL LAYERS
    PRINT HEAD FOR ALL LAYERS
 UBDSV2 SAVING "STREAMFLOW OUT  " ON UNIT  50 AT TIME STEP  1, STRESS PERIOD   8



 STREAM LISTING     PERIOD      8   STEP        1

 LAYER ROW COL. STREAM  RCH.  FLOW INTO     FLOW TO   FLOW OUT OF   OVRLND.     DIRECT     STREAM       STREAM     STREAM     STREAM   STREAMBED  STREAMBED
                SEG.NO.  NO.  STRM. RCH.    AQUIFER    STRM. RCH.    RUNOFF     PRECIP       ET          HEAD       DEPTH      WIDTH   CONDCTNC.   GRADIENT

   1   13    1     1     1    1.0000E+05 -1.1016E+03   1.0110E+05  0.000E+00  0.000E+00  0.000E+00  4.84065E+01  1.451E-01  2.000E+01  2.000E+04 -5.508E-02
   1   13    2     1     2    1.0110E+05 -1.9968E+03   1.0310E+05  0.000E+00  0.000E+00  0.000E+00  4.79306E+01  1.465E-01  2.000E+01  2.000E+04 -9.984E-02
   1   14    3     1     3    1.0310E+05 -4.0265E+02   1.0350E+05  0.000E+00  0.000E+00  0.000E+00  4.74543E+01  1.475E-01  2.000E+01  2.000E+04 -2.013E-02
   1   15    4     1     4    1.0350E+05 -3.9929E+02   1.0390E+05  0.000E+00  0.000E+00  0.000E+00  4.69774E+01  1.478E-01  2.000E+01  2.000E+04 -1.996E-02
   1   16    5     1     5    1.0390E+05 -1.6311E+03   1.0553E+05  0.000E+00  0.000E+00  0.000E+00  4.65010E+01  1.487E-01  2.000E+01  2.000E+04 -8.155E-02
   1   16    6     1     6    1.0553E+05 -1.0191E+03   1.0655E+05  0.000E+00  0.000E+00  0.000E+00  4.60248E+01  1.498E-01  2.000E+01  2.000E+04 -5.096E-02
   1   16    7     1     7    1.0655E+05 -9.9772E+02   1.0755E+05  0.000E+00  0.000E+00  0.000E+00  4.55484E+01  1.507E-01  2.000E+01  2.000E+04 -4.989E-02
   1   16    8     1     8    1.0755E+05 -9.9346E+02   1.0854E+05  0.000E+00  0.000E+00  0.000E+00  4.50720E+01  1.515E-01  2.000E+01  2.000E+04 -4.967E-02
   1   16    9     1     9    1.0854E+05 -9.8750E+02   1.0953E+05  0.000E+00  0.000E+00  0.000E+00  4.45955E+01  1.524E-01  2.000E+01  2.000E+04 -4.937E-02
   1   16   10     1    10    1.0953E+05 -9.7886E+02   1.1051E+05  0.000E+00  0.000E+00  0.000E+00  4.41191E+01  1.532E-01  2.000E+01  2.000E+04 -4.894E-02
   1   16   11     1    11    1.1051E+05 -9.8144E+02   1.1149E+05  0.000E+00  0.000E+00  0.000E+00  4.36426E+01  1.540E-01  2.000E+01  2.000E+04 -4.907E-02
   1   16   12     1    12    1.1149E+05 -1.5193E+03   1.1301E+05  0.000E+00  0.000E+00  0.000E+00  4.31664E+01  1.550E-01  2.000E+01  2.000E+04 -7.597E-02
   1   15   13     1    13    1.1301E+05 -1.0293E+03   1.1404E+05  0.000E+00  0.000E+00  0.000E+00  4.26902E+01  1.561E-01  2.000E+01  2.000E+04 -5.147E-02
   1   14   14     1    14    1.1404E+05 -7.1403E+02   1.1475E+05  0.000E+00  0.000E+00  0.000E+00  4.22136E+01  1.568E-01  2.000E+01  2.000E+04 -3.570E-02
   1   13   15     1    15    1.1475E+05  3.4544E+02   1.1441E+05  0.000E+00  0.000E+00  0.000E+00  4.17365E+01  1.570E-01  2.000E+01  2.000E+04  1.727E-02
   1   12   16     1    16    1.1441E+05  1.3584E+02   1.1427E+05  0.000E+00  0.000E+00  0.000E+00  4.12590E+01  1.568E-01  2.000E+01  2.000E+04  6.792E-03
   1   12   17     1    17    1.1427E+05  2.6697E+03   1.1160E+05  0.000E+00  0.000E+00  0.000E+00  4.07806E+01  1.556E-01  2.000E+01  2.000E+04  1.335E-01
   1   12   18     1    18    1.1160E+05  3.4983E+02   1.1125E+05  0.000E+00  0.000E+00  0.000E+00  4.03021E+01  1.544E-01  2.000E+01  2.000E+04  1.749E-02
   1   12   19     1    19    1.1125E+05 -9.4016E+02   1.1219E+05  0.000E+00  0.000E+00  0.000E+00  3.98251E+01  1.546E-01  2.000E+01  2.000E+04 -4.701E-02
   1   13   20     1    20    1.1219E+05 -7.7831E+02   1.1297E+05  0.000E+00  0.000E+00  0.000E+00  3.93485E+01  1.553E-01  2.000E+01  2.000E+04 -3.892E-02
   1   14   21     1    21    1.1297E+05 -1.1954E+03   1.1417E+05  0.000E+00  0.000E+00  0.000E+00  3.88720E+01  1.561E-01  2.000E+01  2.000E+04 -5.977E-02
   1   14   22     1    22    1.1417E+05  4.8147E+03   1.0935E+05  0.000E+00  0.000E+00  0.000E+00  3.83933E+01  1.546E-01  2.000E+01  2.000E+04  2.407E-01
   1    9   30     2     1    5.0000E+04 -5.3170E+02   5.0532E+04  0.000E+00  0.000E+00  0.000E+00  4.02412E+01  1.162E-01  2.000E+01  2.000E+04 -2.659E-02
   1    9   29     2     2    5.0532E+04 -8.1227E+02   5.1344E+04  0.000E+00  0.000E+00  0.000E+00  3.99922E+01  1.172E-01  2.000E+01  2.000E+04 -4.061E-02
   1    9   28     2     3    5.1344E+04 -1.0190E+03   5.2363E+04  0.000E+00  0.000E+00  0.000E+00  3.97434E+01  1.184E-01  2.000E+01  2.000E+04 -5.095E-02
   1    9   27     2     4    5.2363E+04 -1.9923E+03   5.4355E+04  0.000E+00  0.000E+00  0.000E+00  3.94955E+01  1.205E-01  2.000E+01  2.000E+04 -9.961E-02
   1   10   26     2     5    5.4355E+04 -1.2555E+03   5.5611E+04  0.000E+00  0.000E+00  0.000E+00  3.92477E+01  1.227E-01  2.000E+01  2.000E+04 -6.277E-02
   1   11   25     2     6    5.5611E+04 -1.0670E+03   5.6678E+04  0.000E+00  0.000E+00  0.000E+00  3.89992E+01  1.242E-01  2.000E+01  2.000E+04 -5.335E-02
   1   12   24     2     7    5.6678E+04 -1.1290E+03   5.7807E+04  0.000E+00  0.000E+00  0.000E+00  3.87507E+01  1.257E-01  2.000E+01  2.000E+04 -5.645E-02
   1   13   23     2     8    5.7807E+04 -1.9965E+02   5.8006E+04  0.000E+00  0.000E+00  0.000E+00  3.85015E+01  1.265E-01  2.000E+01  2.000E+04 -9.983E-03
   1   14   22     2     9    5.8006E+04  1.9570E+03   5.6049E+04  0.000E+00  0.000E+00  0.000E+00  3.82504E+01  1.254E-01  2.000E+01  2.000E+04  9.785E-02
   1   14   22     3     1    1.6540E+05 -8.6421E+03   1.7404E+05  0.000E+00  0.000E+00  0.000E+00  3.77204E+01  1.649E-01  2.000E+01  2.000E+04 -4.321E-01
   1   15   23     3     2    1.7404E+05 -5.2103E+02   1.7456E+05  0.000E+00  0.000E+00  0.000E+00  3.68342E+01  1.675E-01  2.000E+01  2.000E+04 -2.605E-02
   1   15   24     3     3    1.7456E+05 -2.8082E+02   1.7484E+05  0.000E+00  0.000E+00  0.000E+00  3.59455E+01  1.678E-01  2.000E+01  2.000E+04 -1.404E-02
   1   15   25     3     4    1.7484E+05 -2.7533E+02   1.7512E+05  0.000E+00  0.000E+00  0.000E+00  3.50568E+01  1.679E-01  2.000E+01  2.000E+04 -1.377E-02
   1   15   26     3     5    1.7512E+05 -3.3376E+02   1.7545E+05  0.000E+00  0.000E+00  0.000E+00  3.41681E+01  1.681E-01  2.000E+01  2.000E+04 -1.669E-02
   1   16   27     3     6    1.7545E+05 -3.6561E+02   1.7582E+05  0.000E+00  0.000E+00  0.000E+00  3.32794E+01  1.683E-01  2.000E+01  2.000E+04 -1.828E-02
   1   17   28     3     7    1.7582E+05 -1.5563E+03   1.7738E+05  0.000E+00  0.000E+00  0.000E+00  3.23911E+01  1.688E-01  2.000E+01  2.000E+04 -7.782E-02
   1   18   29     3     8    1.7738E+05 -2.8968E+03   1.8027E+05  0.000E+00  0.000E+00  0.000E+00  3.15035E+01  1.701E-01  2.000E+01  2.000E+04 -1.448E-01
   1   18   30     3     9    1.8027E+05 -3.1765E+03   1.8345E+05  0.000E+00  0.000E+00  0.000E+00  3.06163E+01  1.718E-01  2.000E+01  2.000E+04 -1.588E-01



1
              HEAD IN LAYER   1 AT END OF TIME STEP   1 IN STRESS PERIOD    8
  ---------------------------------------------------------------------------

          1      2      3      4      5      6      7      8      9     10
         11     12     13     14     15     16     17     18     19     20
         21     22     23     24     25     26     27     28     29     30
 .........................................................................
   1  ****** ****** ****** ****** ****** ****** ****** ****** ****** ******
      ****** ****** ****** ****** ****** ****** ****** ****** ****** ******
      ****** ****** ****** ****** ****** ****** ****** ****** ****** ******
   2  ****** ****** ****** ****** ****** ****** ****** ****** ****** ******
      ****** ****** ****** ****** ****** ****** ****** ****** ****** ******
      ****** ****** ****** ****** ****** ****** ****** ****** ****** ******
   3  ****** ****** ****** ****** ****** ****** ****** ****** ****** ******
      ****** ****** ****** ****** ****** ****** ****** ****** ****** ******
      ****** ****** ****** ****** ****** ****** ****** ****** ****** ******
   4  ****** ****** ****** ****** ****** ****** ****** ****** ****** ******
      ****** ****** ****** ****** ****** ****** ****** ****** ****** ******
      ****** ****** ****** ****** ****** ****** ****** ****** ****** ******
   5  ****** ****** ****** ****** ****** ****** ****** ****** ****** ******
      ****** ****** ****** ****** ****** ****** ****** ****** ****** ******
      ****** ****** ****** ****** ****** ****** ****** ****** ****** ******
   6  ****** ****** ****** ****** ****** ****** ****** ****** ****** ******
      ****** ****** ****** ****** ****** ****** ****** ****** ****** ******
      ****** ****** ****** ****** ****** ****** ****** ****** ****** ******
   7  ****** ****** ****** ****** ****** ****** ****** ****** ****** ******
      ****** ****** ****** ****** ****** ****** ****** ****** ****** ******
      ****** ****** ****** ****** ****** ****** ****** ****** ****** ******
   8  ****** ****** ****** ****** ****** ****** ****** ****** ****** ******
      ****** ****** ****** ****** ****** ****** ****** ****** ****** ******
      ****** ****** ****** ****** ****** ****** ****** ****** ****** ******
   9  ****** ****** ****** ****** ****** ****** ****** ****** ****** ******
      ****** ****** ****** ****** ****** ****** ****** ****** ****** ******
      ****** ****** ****** ****** ****** ****** ****** ****** ****** ******
  10  ****** ****** ****** ****** ****** ****** ****** ****** ****** ******
      ****** ****** ****** ****** ****** ****** ****** ****** ****** ******
      ****** ****** ****** ****** ****** ****** ****** ****** ****** ******
  11  ****** ****** ****** ****** ****** ****** ****** ****** ****** ******
      ****** ****** ****** ****** ****** ****** ****** ****** ****** ******
      ****** ****** ****** ****** ****** ****** ****** ****** ****** ******
  12  ****** ****** ****** ****** ****** ****** ****** ****** ****** ******
      ****** ****** ****** ****** ****** ****** ****** ****** ****** ******
      ****** ****** ****** ****** ****** ****** ****** ****** ****** ******
  13  ****** ****** ****** ****** ****** ****** ****** ****** ****** ******
      ****** ****** ****** ****** ****** ****** ****** ****** ****** ******
      ****** ****** ****** ****** ****** ****** ****** ****** ****** ******
  14  ****** ****** ****** ****** ****** ****** ****** ****** ****** ******
      ****** ****** ****** ****** ****** ****** ****** ****** ****** ******
      ****** ****** ****** ****** ****** ****** ****** ****** ****** ******
  15  ****** ****** ****** ****** ****** ****** ****** ****** ****** ******
      ****** ****** ****** ****** ****** ****** ****** ****** ****** ******
      ****** ****** ****** ****** ****** ****** ****** ****** ****** ******
  16  ****** ****** ****** ****** ****** ****** ****** ****** ****** ******
      ****** ****** ****** ****** ****** ****** ****** ****** ****** ******
      ****** ****** ****** ****** ****** ****** ****** ****** ****** ******
  17  ****** ****** ****** ****** ****** ****** ****** ****** ****** ******
      ****** ****** ****** ****** ****** ****** ****** ****** ****** ******
      ****** ****** ****** ****** ****** ****** ****** ****** ****** ******
  18  ****** ****** ****** ****** ****** ****** ****** ****** ****** ******
      ****** ****** ****** ****** ****** ****** ****** ****** ****** ******
      ****** ****** ****** ****** ****** ****** ****** ****** ****** ******
  19  ****** ****** ****** ****** ****** ****** ****** ****** ****** ******
      ****** ****** ****** ****** ****** ****** ****** ****** ****** ******
      ****** ****** ****** ****** ****** ****** ****** ****** ****** ******
  20  ****** ****** ****** ****** ****** ****** ****** ****** ****** ******
      ****** ****** ****** ****** ****** ****** ****** ****** ****** ******
      ****** ****** ****** ****** ****** ****** ****** ****** ****** ******
  21  ****** ****** ****** ****** ****** ****** ****** ****** ****** ******
      ****** ****** ****** ****** ****** ****** ****** ****** ****** ******
      ****** ****** ****** ****** ****** ****** ****** ****** ****** ******
  22  ****** ****** ****** ****** ****** ****** ****** ****** ****** ******
      ****** ****** ****** ****** ****** ****** ****** ****** ****** ******
      ****** ****** ****** ****** ****** ****** ****** ****** ****** ******
  23  ****** ****** ****** ****** ****** ****** ****** ****** ****** ******
      ****** ****** ****** ****** ****** ****** ****** ****** ****** ******
      ****** ****** ****** ****** ****** ****** ****** ****** ****** ******
  24  ****** ****** ****** ****** ****** ****** ****** ****** ****** ******
      ****** ****** ****** ****** ****** ****** ****** ****** ****** ******
      ****** ****** ****** ****** ****** ****** ****** ****** ****** ******
  25  ****** ****** ****** ****** ****** ****** ****** ****** ****** ******
      ****** ****** ****** ****** ****** ****** ****** ****** ****** ******
      ****** ****** ****** ****** ****** ****** ****** ****** ****** ******

 HEAD WILL BE SAVED ON UNIT   51 AT END OF TIME STEP    1, STRESS PERIOD    8
1
  VOLUMETRIC BUDGET FOR ENTIRE MODEL AT END OF TIME STEP    1, STRESS PERIOD   8
  ------------------------------------------------------------------------------

     CUMULATIVE VOLUMES      L**3       RATES FOR THIS TIME STEP      L**3/T
     ------------------                 ------------------------

           IN:                                      IN:
           ---                                      ---
             STORAGE =    35009183.0969               STORAGE =        2366.5660
       CONSTANT HEAD =    20789820.4567         CONSTANT HEAD =       35920.9128
               WELLS =           0.0000                 WELLS =           0.0000
            RECHARGE =    17608800.0000              RECHARGE =       27600.0000
      STREAM LEAKAGE =     5981536.7075        STREAM LEAKAGE =       10272.4998

            TOTAL IN =    79389340.2611              TOTAL IN =       76159.9787

          OUT:                                     OUT:
          ----                                     ----
             STORAGE =      825220.9546               STORAGE =        1514.7976
       CONSTANT HEAD =           0.0000         CONSTANT HEAD =           0.0000
               WELLS =    22574745.4608                 WELLS =       30924.3089
            RECHARGE =           0.0000              RECHARGE =           0.0000
      STREAM LEAKAGE =    55989375.8077        STREAM LEAKAGE =       43720.8650

           TOTAL OUT =    79389342.2231             TOTAL OUT =       76159.9715

            IN - OUT =          -1.9620              IN - OUT =       7.1615E-03

 PERCENT DISCREPANCY =          -0.00     PERCENT DISCREPANCY =           0.00






         TIME SUMMARY AT END OF TIME STEP    1 IN STRESS PERIOD    8
                    SECONDS     MINUTES      HOURS       DAYS        YEARS
                    -----------------------------------------------------------
   TIME STEP LENGTH 7.86240E+06 1.31040E+05  2184.0      91.000     0.24914    
 STRESS PERIOD TIME 7.86240E+06 1.31040E+05  2184.0      91.000     0.24914    
         TOTAL TIME 6.30720E+07 1.05120E+06  17520.      730.00      1.9986    
1
1
                            STRESS PERIOD NO.    9, LENGTH =   92.00000    
                            -----------------------------------------------

                              NUMBER OF TIME STEPS =     1

                               MULTIPLIER FOR DELT =     1.500

                            INITIAL TIME STEP SIZE =   92.00000    

 WELL NO.  LAYER   ROW   COL   STRESS RATE         
 --------------------------------------------------
      1      1      6     15     -0.1070E+05
      2      1     13     17     -0.1103E+05
      3      1      5      8      -7262.    
      4      1      3     21      -1929.    

      4 WELLS

                 RECHARGE =  5.000000E-04

 REUSING STREAM SEGMENT DATA FROM LAST STRESS PERIOD
 
 SOLVING FOR HEAD 


     6 CALLS TO PCG ROUTINE FOR TIME STEP   1 IN STRESS PERIOD    9
    23 TOTAL ITERATIONS

 OUTPUT CONTROL FOR STRESS PERIOD    9   TIME STEP    1
    SAVE BUDGET
    SAVE HEAD FOR ALL LAYERS
    PRINT HEAD FOR ALL LAYERS
 UBDSV2 SAVING "STREAMFLOW OUT  " ON UNIT  50 AT TIME STEP  1, STRESS PERIOD   9



 STREAM LISTING     PERIOD      9   STEP        1

 LAYER ROW COL. STREAM  RCH.  FLOW INTO     FLOW TO   FLOW OUT OF   OVRLND.     DIRECT     STREAM       STREAM     STREAM     STREAM   STREAMBED  STREAMBED
                SEG.NO.  NO.  STRM. RCH.    AQUIFER    STRM. RCH.    RUNOFF     PRECIP       ET          HEAD       DEPTH      WIDTH   CONDCTNC.   GRADIENT

   1   13    1     1     1    1.0000E+05 -8.6385E+02   1.0086E+05  0.000E+00  0.000E+00  0.000E+00  4.84064E+01  1.450E-01  2.000E+01  2.000E+04 -4.319E-02
   1   13    2     1     2    1.0086E+05 -1.7265E+03   1.0259E+05  0.000E+00  0.000E+00  0.000E+00  4.79302E+01  1.461E-01  2.000E+01  2.000E+04 -8.633E-02
   1   14    3     1     3    1.0259E+05 -3.2784E+02   1.0292E+05  0.000E+00  0.000E+00  0.000E+00  4.74538E+01  1.470E-01  2.000E+01  2.000E+04 -1.639E-02
   1   15    4     1     4    1.0292E+05 -3.2434E+02   1.0324E+05  0.000E+00  0.000E+00  0.000E+00  4.69769E+01  1.473E-01  2.000E+01  2.000E+04 -1.622E-02
   1   16    5     1     5    1.0324E+05 -1.4372E+03   1.0468E+05  0.000E+00  0.000E+00  0.000E+00  4.65003E+01  1.481E-01  2.000E+01  2.000E+04 -7.186E-02
   1   16    6     1     6    1.0468E+05 -8.9669E+02   1.0558E+05  0.000E+00  0.000E+00  0.000E+00  4.60241E+01  1.491E-01  2.000E+01  2.000E+04 -4.483E-02
   1   16    7     1     7    1.0558E+05 -8.7871E+02   1.0646E+05  0.000E+00  0.000E+00  0.000E+00  4.55475E+01  1.498E-01  2.000E+01  2.000E+04 -4.394E-02
   1   16    8     1     8    1.0646E+05 -8.7607E+02   1.0733E+05  0.000E+00  0.000E+00  0.000E+00  4.50710E+01  1.506E-01  2.000E+01  2.000E+04 -4.380E-02
   1   16    9     1     9    1.0733E+05 -8.7212E+02   1.0820E+05  0.000E+00  0.000E+00  0.000E+00  4.45945E+01  1.513E-01  2.000E+01  2.000E+04 -4.361E-02
   1   16   10     1    10    1.0820E+05 -8.6619E+02   1.0907E+05  0.000E+00  0.000E+00  0.000E+00  4.41179E+01  1.520E-01  2.000E+01  2.000E+04 -4.331E-02
   1   16   11     1    11    1.0907E+05 -8.7065E+02   1.0994E+05  0.000E+00  0.000E+00  0.000E+00  4.36414E+01  1.528E-01  2.000E+01  2.000E+04 -4.353E-02
   1   16   12     1    12    1.0994E+05 -1.3288E+03   1.1127E+05  0.000E+00  0.000E+00  0.000E+00  4.31650E+01  1.537E-01  2.000E+01  2.000E+04 -6.644E-02
   1   15   13     1    13    1.1127E+05 -8.1209E+02   1.1208E+05  0.000E+00  0.000E+00  0.000E+00  4.26887E+01  1.546E-01  2.000E+01  2.000E+04 -4.060E-02
   1   14   14     1    14    1.1208E+05 -4.7960E+02   1.1256E+05  0.000E+00  0.000E+00  0.000E+00  4.22119E+01  1.551E-01  2.000E+01  2.000E+04 -2.398E-02
   1   13   15     1    15    1.1256E+05  5.8885E+02   1.1197E+05  0.000E+00  0.000E+00  0.000E+00  4.17346E+01  1.551E-01  2.000E+01  2.000E+04  2.944E-02
   1   12   16     1    16    1.1197E+05  3.9294E+02   1.1158E+05  0.000E+00  0.000E+00  0.000E+00  4.12569E+01  1.546E-01  2.000E+01  2.000E+04  1.965E-02
   1   12   17     1    17    1.1158E+05  2.8422E+03   1.0874E+05  0.000E+00  0.000E+00  0.000E+00  4.07783E+01  1.533E-01  2.000E+01  2.000E+04  1.421E-01
   1   12   18     1    18    1.0874E+05  5.1303E+02   1.0822E+05  0.000E+00  0.000E+00  0.000E+00  4.02996E+01  1.519E-01  2.000E+01  2.000E+04  2.565E-02
   1   12   19     1    19    1.0822E+05 -7.4387E+02   1.0897E+05  0.000E+00  0.000E+00  0.000E+00  3.98224E+01  1.520E-01  2.000E+01  2.000E+04 -3.719E-02
   1   13   20     1    20    1.0897E+05 -6.0154E+02   1.0957E+05  0.000E+00  0.000E+00  0.000E+00  3.93457E+01  1.526E-01  2.000E+01  2.000E+04 -3.008E-02
   1   14   21     1    21    1.0957E+05 -1.0240E+03   1.1059E+05  0.000E+00  0.000E+00  0.000E+00  3.88691E+01  1.532E-01  2.000E+01  2.000E+04 -5.120E-02
   1   14   22     1    22    1.1059E+05  4.8513E+03   1.0574E+05  0.000E+00  0.000E+00  0.000E+00  3.83903E+01  1.516E-01  2.000E+01  2.000E+04  2.426E-01
   1    9   30     2     1    5.0000E+04 -4.0642E+02   5.0406E+04  0.000E+00  0.000E+00  0.000E+00  4.02411E+01  1.161E-01  2.000E+01  2.000E+04 -2.032E-02
   1    9   29     2     2    5.0406E+04 -6.8659E+02   5.1093E+04  0.000E+00  0.000E+00  0.000E+00  3.99919E+01  1.169E-01  2.000E+01  2.000E+04 -3.433E-02
   1    9   28     2     3    5.1093E+04 -8.9095E+02   5.1984E+04  0.000E+00  0.000E+00  0.000E+00  3.97430E+01  1.180E-01  2.000E+01  2.000E+04 -4.455E-02
   1    9   27     2     4    5.1984E+04 -1.8101E+03   5.3794E+04  0.000E+00  0.000E+00  0.000E+00  3.94948E+01  1.198E-01  2.000E+01  2.000E+04 -9.050E-02
   1   10   26     2     5    5.3794E+04 -1.0769E+03   5.4871E+04  0.000E+00  0.000E+00  0.000E+00  3.92468E+01  1.218E-01  2.000E+01  2.000E+04 -5.385E-02
   1   11   25     2     6    5.4871E+04 -8.9615E+02   5.5767E+04  0.000E+00  0.000E+00  0.000E+00  3.89981E+01  1.231E-01  2.000E+01  2.000E+04 -4.481E-02
   1   12   24     2     7    5.5767E+04 -9.7146E+02   5.6739E+04  0.000E+00  0.000E+00  0.000E+00  3.87494E+01  1.244E-01  2.000E+01  2.000E+04 -4.857E-02
   1   13   23     2     8    5.6739E+04 -1.5179E+02   5.6890E+04  0.000E+00  0.000E+00  0.000E+00  3.85001E+01  1.251E-01  2.000E+01  2.000E+04 -7.589E-03
   1   14   22     2     9    5.6890E+04  2.0232E+03   5.4867E+04  0.000E+00  0.000E+00  0.000E+00  3.82489E+01  1.239E-01  2.000E+01  2.000E+04  1.012E-01
   1   14   22     3     1    1.6061E+05 -8.6019E+03   1.6921E+05  0.000E+00  0.000E+00  0.000E+00  3.77176E+01  1.620E-01  2.000E+01  2.000E+04 -4.301E-01
   1   15   23     3     2    1.6921E+05 -4.6883E+02   1.6968E+05  0.000E+00  0.000E+00  0.000E+00  3.68314E+01  1.647E-01  2.000E+01  2.000E+04 -2.344E-02
   1   15   24     3     3    1.6968E+05 -2.3803E+02   1.6992E+05  0.000E+00  0.000E+00  0.000E+00  3.59427E+01  1.649E-01  2.000E+01  2.000E+04 -1.190E-02
   1   15   25     3     4    1.6992E+05 -2.3227E+02   1.7015E+05  0.000E+00  0.000E+00  0.000E+00  3.50539E+01  1.651E-01  2.000E+01  2.000E+04 -1.161E-02
   1   15   26     3     5    1.7015E+05 -2.8631E+02   1.7044E+05  0.000E+00  0.000E+00  0.000E+00  3.41652E+01  1.652E-01  2.000E+01  2.000E+04 -1.432E-02
   1   16   27     3     6    1.7044E+05 -3.0987E+02   1.7075E+05  0.000E+00  0.000E+00  0.000E+00  3.32765E+01  1.654E-01  2.000E+01  2.000E+04 -1.549E-02
   1   17   28     3     7    1.7075E+05 -1.4037E+03   1.7215E+05  0.000E+00  0.000E+00  0.000E+00  3.23881E+01  1.659E-01  2.000E+01  2.000E+04 -7.018E-02
   1   18   29     3     8    1.7215E+05 -2.7227E+03   1.7487E+05  0.000E+00  0.000E+00  0.000E+00  3.15004E+01  1.671E-01  2.000E+01  2.000E+04 -1.361E-01
   1   18   30     3     9    1.7487E+05 -3.0454E+03   1.7792E+05  0.000E+00  0.000E+00  0.000E+00  3.06132E+01  1.687E-01  2.000E+01  2.000E+04 -1.523E-01



1
              HEAD IN LAYER   1 AT END OF TIME STEP   1 IN STRESS PERIOD    9
  ---------------------------------------------------------------------------

          1      2      3      4      5      6      7      8      9     10
         11     12     13     14     15     16     17     18     19     20
         21     22     23     24     25     26     27     28     29     30
 .........................................................................
   1  ****** ****** ****** ****** ****** ****** ****** ****** ****** ******
      ****** ****** ****** ****** ****** ****** ****** ****** ****** ******
      ****** ****** ****** ****** ****** ****** ****** ****** ****** ******
   2  ****** ****** ****** ****** ****** ****** ****** ****** ****** ******
      ****** ****** ****** ****** ****** ****** ****** ****** ****** ******
      ****** ****** ****** ****** ****** ****** ****** ****** ****** ******
   3  ****** ****** ****** ****** ****** ****** ****** ****** ****** ******
      ****** ****** ****** ****** ****** ****** ****** ****** ****** ******
      ****** ****** ****** ****** ****** ****** ****** ****** ****** ******
   4  ****** ****** ****** ****** ****** ****** ****** ****** ****** ******
      ****** ****** ****** ****** ****** ****** ****** ****** ****** ******
      ****** ****** ****** ****** ****** ****** ****** ****** ****** ******
   5  ****** ****** ****** ****** ****** ****** ****** ****** ****** ******
      ****** ****** ****** ****** ****** ****** ****** ****** ****** ******
      ****** ****** ****** ****** ****** ****** ****** ****** ****** ******
   6  ****** ****** ****** ****** ****** ****** ****** ****** ****** ******
      ****** ****** ****** ****** ****** ****** ****** ****** ****** ******
      ****** ****** ****** ****** ****** ****** ****** ****** ****** ******
   7  ****** ****** ****** ****** ****** ****** ****** ****** ****** ******
      ****** ****** ****** ****** ****** ****** ****** ****** ****** ******
      ****** ****** ****** ****** ****** ****** ****** ****** ****** ******
   8  ****** ****** ****** ****** ****** ****** ****** ****** ****** ******
      ****** ****** ****** ****** ****** ****** ****** ****** ****** ******
      ****** ****** ****** ****** ****** ****** ****** ****** ****** ******
   9  ****** ****** ****** ****** ****** ****** ****** ****** ****** ******
      ****** ****** ****** ****** ****** ****** ****** ****** ****** ******
      ****** ****** ****** ****** ****** ****** ****** ****** ****** ******
  10  ****** ****** ****** ****** ****** ****** ****** ****** ****** ******
      ****** ****** ****** ****** ****** ****** ****** ****** ****** ******
      ****** ****** ****** ****** ****** ****** ****** ****** ****** ******
  11  ****** ****** ****** ****** ****** ****** ****** ****** ****** ******
      ****** ****** ****** ****** ****** ****** ****** ****** ****** ******
      ****** ****** ****** ****** ****** ****** ****** ****** ****** ******
  12  ****** ****** ****** ****** ****** ****** ****** ****** ****** ******
      ****** ****** ****** ****** ****** ****** ****** ****** ****** ******
      ****** ****** ****** ****** ****** ****** ****** ****** ****** ******
  13  ****** ****** ****** ****** ****** ****** ****** ****** ****** ******
      ****** ****** ****** ****** ****** ****** ****** ****** ****** ******
      ****** ****** ****** ****** ****** ****** ****** ****** ****** ******
  14  ****** ****** ****** ****** ****** ****** ****** ****** ****** ******
      ****** ****** ****** ****** ****** ****** ****** ****** ****** ******
      ****** ****** ****** ****** ****** ****** ****** ****** ****** ******
  15  ****** ****** ****** ****** ****** ****** ****** ****** ****** ******
      ****** ****** ****** ****** ****** ****** ****** ****** ****** ******
      ****** ****** ****** ****** ****** ****** ****** ****** ****** ******
  16  ****** ****** ****** ****** ****** ****** ****** ****** ****** ******
      ****** ****** ****** ****** ****** ****** ****** ****** ****** ******
      ****** ****** ****** ****** ****** ****** ****** ****** ****** ******
  17  ****** ****** ****** ****** ****** ****** ****** ****** ****** ******
      ****** ****** ****** ****** ****** ****** ****** ****** ****** ******
      ****** ****** ****** ****** ****** ****** ****** ****** ****** ******
  18  ****** ****** ****** ****** ****** ****** ****** ****** ****** ******
      ****** ****** ****** ****** ****** ****** ****** ****** ****** ******
      ****** ****** ****** ****** ****** ****** ****** ****** ****** ******
  19  ****** ****** ****** ****** ****** ****** ****** ****** ****** ******
      ****** ****** ****** ****** ****** ****** ****** ****** ****** ******
      ****** ****** ****** ****** ****** ****** ****** ****** ****** ******
  20  ****** ****** ****** ****** ****** ****** ****** ****** ****** ******
      ****** ****** ****** ****** ****** ****** ****** ****** ****** ******
      ****** ****** ****** ****** ****** ****** ****** ****** ****** ******
  21  ****** ****** ****** ****** ****** ****** ****** ****** ****** ******
      ****** ****** ****** ****** ****** ****** ****** ****** ****** ******
      ****** ****** ****** ****** ****** ****** ****** ****** ****** ******
  22  ****** ****** ****** ****** ****** ****** ****** ****** ****** ******
      ****** ****** ****** ****** ****** ****** ****** ****** ****** ******
      ****** ****** ****** ****** ****** ****** ****** ****** ****** ******
  23  ****** ****** ****** ****** ****** ****** ****** ****** ****** ******
      ****** ****** ****** ****** ****** ****** ****** ****** ****** ******
      ****** ****** ****** ****** ****** ****** ****** ****** ****** ******
  24  ****** ****** ****** ****** ****** ****** ****** ****** ****** ******
      ****** ****** ****** ****** ****** ****** ****** ****** ****** ******
      ****** ****** ****** ****** ****** ****** ****** ****** ****** ******
  25  ****** ****** ****** ****** ****** ****** ****** ****** ****** ******
      ****** ****** ****** ****** ****** ****** ****** ****** ****** ******
      ****** ****** ****** ****** ****** ****** ****** ****** ****** ******

 HEAD WILL BE SAVED ON UNIT   51 AT END OF TIME STEP    1, STRESS PERIOD    9
1
  VOLUMETRIC BUDGET FOR ENTIRE MODEL AT END OF TIME STEP    1, STRESS PERIOD   9
  ------------------------------------------------------------------------------

     CUMULATIVE VOLUMES      L**3       RATES FOR THIS TIME STEP      L**3/T
     ------------------                 ------------------------

           IN:                                      IN:
           ---                                      ---
             STORAGE =    35734123.7953               STORAGE =        7879.7902
       CONSTANT HEAD =    24208752.1155         CONSTANT HEAD =       37162.3006
               WELLS =           0.0000                 WELLS =           0.0000
            RECHARGE =    18878400.0000              RECHARGE =       13800.0000
      STREAM LEAKAGE =     7012997.2937        STREAM LEAKAGE =       11211.5281

            TOTAL IN =    85834273.2045              TOTAL IN =       70053.6189

          OUT:                                     OUT:
          ----                                     ----
             STORAGE =      825220.9546               STORAGE =           0.0000
       CONSTANT HEAD =           0.0000         CONSTANT HEAD =           0.0000
               WELLS =    25419781.8751                 WELLS =       30924.3089
            RECHARGE =           0.0000              RECHARGE =           0.0000
      STREAM LEAKAGE =    59589272.4152        STREAM LEAKAGE =       39129.3110

           TOTAL OUT =    85834275.2448             TOTAL OUT =       70053.6198

            IN - OUT =          -2.0403              IN - OUT =      -8.5160E-04

 PERCENT DISCREPANCY =          -0.00     PERCENT DISCREPANCY =          -0.00






         TIME SUMMARY AT END OF TIME STEP    1 IN STRESS PERIOD    9
                    SECONDS     MINUTES      HOURS       DAYS        YEARS
                    -----------------------------------------------------------
   TIME STEP LENGTH 7.94880E+06 1.32480E+05  2208.0      92.000     0.25188    
 STRESS PERIOD TIME 7.94880E+06 1.32480E+05  2208.0      92.000     0.25188    
         TOTAL TIME 7.10208E+07 1.18368E+06  19728.      822.00      2.2505    
1
1
                            STRESS PERIOD NO.   10, LENGTH =   91.00000    
                            -----------------------------------------------

                              NUMBER OF TIME STEPS =     1

                               MULTIPLIER FOR DELT =     1.500

                            INITIAL TIME STEP SIZE =   91.00000    

 WELL NO.  LAYER   ROW   COL   STRESS RATE         
 --------------------------------------------------
      1      1      6     15     -0.1070E+05
      2      1     13     17     -0.1103E+05
      3      1      5      8      -7262.    
      4      1      3     21      -1929.    

      4 WELLS

                 RECHARGE =  2.000000E-03

 REUSING STREAM SEGMENT DATA FROM LAST STRESS PERIOD
 
 SOLVING FOR HEAD 


     7 CALLS TO PCG ROUTINE FOR TIME STEP   1 IN STRESS PERIOD   10
    26 TOTAL ITERATIONS

 OUTPUT CONTROL FOR STRESS PERIOD   10   TIME STEP    1
    SAVE BUDGET
    SAVE HEAD FOR ALL LAYERS
    PRINT HEAD FOR ALL LAYERS
 UBDSV2 SAVING "STREAMFLOW OUT  " ON UNIT  50 AT TIME STEP  1, STRESS PERIOD  10



 STREAM LISTING     PERIOD     10   STEP        1

 LAYER ROW COL. STREAM  RCH.  FLOW INTO     FLOW TO   FLOW OUT OF   OVRLND.     DIRECT     STREAM       STREAM     STREAM     STREAM   STREAMBED  STREAMBED
                SEG.NO.  NO.  STRM. RCH.    AQUIFER    STRM. RCH.    RUNOFF     PRECIP       ET          HEAD       DEPTH      WIDTH   CONDCTNC.   GRADIENT

   1   13    1     1     1    1.0000E+05 -1.2995E+03   1.0130E+05  0.000E+00  0.000E+00  0.000E+00  4.84066E+01  1.452E-01  2.000E+01  2.000E+04 -6.498E-02
   1   13    2     1     2    1.0130E+05 -2.2081E+03   1.0351E+05  0.000E+00  0.000E+00  0.000E+00  4.79308E+01  1.467E-01  2.000E+01  2.000E+04 -1.104E-01
   1   14    3     1     3    1.0351E+05 -5.1139E+02   1.0402E+05  0.000E+00  0.000E+00  0.000E+00  4.74547E+01  1.479E-01  2.000E+01  2.000E+04 -2.557E-02
   1   15    4     1     4    1.0402E+05 -5.2142E+02   1.0454E+05  0.000E+00  0.000E+00  0.000E+00  4.69779E+01  1.483E-01  2.000E+01  2.000E+04 -2.607E-02
   1   16    5     1     5    1.0454E+05 -2.0550E+03   1.0660E+05  0.000E+00  0.000E+00  0.000E+00  4.65017E+01  1.494E-01  2.000E+01  2.000E+04 -1.027E-01
   1   16    6     1     6    1.0660E+05 -1.2570E+03   1.0785E+05  0.000E+00  0.000E+00  0.000E+00  4.60258E+01  1.508E-01  2.000E+01  2.000E+04 -6.285E-02
   1   16    7     1     7    1.0785E+05 -1.2210E+03   1.0907E+05  0.000E+00  0.000E+00  0.000E+00  4.55496E+01  1.519E-01  2.000E+01  2.000E+04 -6.105E-02
   1   16    8     1     8    1.0907E+05 -1.2130E+03   1.1029E+05  0.000E+00  0.000E+00  0.000E+00  4.50734E+01  1.529E-01  2.000E+01  2.000E+04 -6.065E-02
   1   16    9     1     9    1.1029E+05 -1.2078E+03   1.1149E+05  0.000E+00  0.000E+00  0.000E+00  4.45971E+01  1.539E-01  2.000E+01  2.000E+04 -6.039E-02
   1   16   10     1    10    1.1149E+05 -1.2026E+03   1.1270E+05  0.000E+00  0.000E+00  0.000E+00  4.41208E+01  1.549E-01  2.000E+01  2.000E+04 -6.013E-02
   1   16   11     1    11    1.1270E+05 -1.2111E+03   1.1391E+05  0.000E+00  0.000E+00  0.000E+00  4.36445E+01  1.559E-01  2.000E+01  2.000E+04 -6.056E-02
   1   16   12     1    12    1.1391E+05 -1.8965E+03   1.1580E+05  0.000E+00  0.000E+00  0.000E+00  4.31686E+01  1.572E-01  2.000E+01  2.000E+04 -9.482E-02
   1   15   13     1    13    1.1580E+05 -1.3930E+03   1.1720E+05  0.000E+00  0.000E+00  0.000E+00  4.26926E+01  1.585E-01  2.000E+01  2.000E+04 -6.965E-02
   1   14   14     1    14    1.1720E+05 -1.0651E+03   1.1826E+05  0.000E+00  0.000E+00  0.000E+00  4.22164E+01  1.595E-01  2.000E+01  2.000E+04 -5.326E-02
   1   13   15     1    15    1.1826E+05  1.5453E+01   1.1825E+05  0.000E+00  0.000E+00  0.000E+00  4.17395E+01  1.600E-01  2.000E+01  2.000E+04  7.727E-04
   1   12   16     1    16    1.1825E+05 -1.5529E+02   1.1840E+05  0.000E+00  0.000E+00  0.000E+00  4.12623E+01  1.600E-01  2.000E+01  2.000E+04 -7.764E-03
   1   12   17     1    17    1.1840E+05  2.4234E+03   1.1598E+05  0.000E+00  0.000E+00  0.000E+00  4.07841E+01  1.591E-01  2.000E+01  2.000E+04  1.212E-01
   1   12   18     1    18    1.1598E+05  9.7133E+01   1.1588E+05  0.000E+00  0.000E+00  0.000E+00  4.03058E+01  1.581E-01  2.000E+01  2.000E+04  4.857E-03
   1   12   19     1    19    1.1588E+05 -1.2560E+03   1.1714E+05  0.000E+00  0.000E+00  0.000E+00  3.98290E+01  1.585E-01  2.000E+01  2.000E+04 -6.280E-02
   1   13   20     1    20    1.1714E+05 -1.1204E+03   1.1826E+05  0.000E+00  0.000E+00  0.000E+00  3.93527E+01  1.595E-01  2.000E+01  2.000E+04 -5.602E-02
   1   14   21     1    21    1.1826E+05 -1.5487E+03   1.1981E+05  0.000E+00  0.000E+00  0.000E+00  3.88765E+01  1.606E-01  2.000E+01  2.000E+04 -7.744E-02
   1   14   22     1    22    1.1981E+05  4.7268E+03   1.1508E+05  0.000E+00  0.000E+00  0.000E+00  3.83979E+01  1.593E-01  2.000E+01  2.000E+04  2.363E-01
   1    9   30     2     1    5.0000E+04 -8.1934E+02   5.0819E+04  0.000E+00  0.000E+00  0.000E+00  4.02414E+01  1.164E-01  2.000E+01  2.000E+04 -4.097E-02
   1    9   29     2     2    5.0819E+04 -1.0971E+03   5.1916E+04  0.000E+00  0.000E+00  0.000E+00  3.99928E+01  1.178E-01  2.000E+01  2.000E+04 -5.486E-02
   1    9   28     2     3    5.1916E+04 -1.3003E+03   5.3217E+04  0.000E+00  0.000E+00  0.000E+00  3.97444E+01  1.194E-01  2.000E+01  2.000E+04 -6.502E-02
   1    9   27     2     4    5.3217E+04 -2.3592E+03   5.5576E+04  0.000E+00  0.000E+00  0.000E+00  3.94969E+01  1.219E-01  2.000E+01  2.000E+04 -1.180E-01
   1   10   26     2     5    5.5576E+04 -1.6266E+03   5.7203E+04  0.000E+00  0.000E+00  0.000E+00  3.92495E+01  1.245E-01  2.000E+01  2.000E+04 -8.133E-02
   1   11   25     2     6    5.7203E+04 -1.4215E+03   5.8624E+04  0.000E+00  0.000E+00  0.000E+00  3.90015E+01  1.265E-01  2.000E+01  2.000E+04 -7.107E-02
   1   12   24     2     7    5.8624E+04 -1.4466E+03   6.0071E+04  0.000E+00  0.000E+00  0.000E+00  3.87534E+01  1.284E-01  2.000E+01  2.000E+04 -7.233E-02
   1   13   23     2     8    6.0071E+04 -3.0002E+02   6.0371E+04  0.000E+00  0.000E+00  0.000E+00  3.85045E+01  1.295E-01  2.000E+01  2.000E+04 -1.500E-02
   1   14   22     2     9    6.0371E+04  1.8390E+03   5.8532E+04  0.000E+00  0.000E+00  0.000E+00  3.82535E+01  1.285E-01  2.000E+01  2.000E+04  9.195E-02
   1   14   22     3     1    1.7361E+05 -8.7281E+03   1.8234E+05  0.000E+00  0.000E+00  0.000E+00  3.77252E+01  1.696E-01  2.000E+01  2.000E+04 -4.364E-01
   1   15   23     3     2    1.8234E+05 -6.3156E+02   1.8297E+05  0.000E+00  0.000E+00  0.000E+00  3.68390E+01  1.723E-01  2.000E+01  2.000E+04 -3.158E-02
   1   15   24     3     3    1.8297E+05 -3.7533E+02   1.8335E+05  0.000E+00  0.000E+00  0.000E+00  3.59504E+01  1.726E-01  2.000E+01  2.000E+04 -1.877E-02
   1   15   25     3     4    1.8335E+05 -3.7296E+02   1.8372E+05  0.000E+00  0.000E+00  0.000E+00  3.50617E+01  1.728E-01  2.000E+01  2.000E+04 -1.865E-02
   1   15   26     3     5    1.8372E+05 -4.4862E+02   1.8417E+05  0.000E+00  0.000E+00  0.000E+00  3.41730E+01  1.730E-01  2.000E+01  2.000E+04 -2.243E-02
   1   16   27     3     6    1.8417E+05 -4.9585E+02   1.8466E+05  0.000E+00  0.000E+00  0.000E+00  3.32844E+01  1.733E-01  2.000E+01  2.000E+04 -2.479E-02
   1   17   28     3     7    1.8466E+05 -1.9248E+03   1.8659E+05  0.000E+00  0.000E+00  0.000E+00  3.23962E+01  1.740E-01  2.000E+01  2.000E+04 -9.624E-02
   1   18   29     3     8    1.8659E+05 -3.2751E+03   1.8986E+05  0.000E+00  0.000E+00  0.000E+00  3.15088E+01  1.754E-01  2.000E+01  2.000E+04 -1.638E-01
   1   18   30     3     9    1.8986E+05 -3.4714E+03   1.9334E+05  0.000E+00  0.000E+00  0.000E+00  3.06218E+01  1.773E-01  2.000E+01  2.000E+04 -1.736E-01



1
              HEAD IN LAYER   1 AT END OF TIME STEP   1 IN STRESS PERIOD   10
  ---------------------------------------------------------------------------

          1      2      3      4      5      6      7      8      9     10
         11     12     13     14     15     16     17     18     19     20
         21     22     23     24     25     26     27     28     29     30
 .........................................................................
   1  ****** ****** ****** ****** ****** ****** ****** ****** ****** ******
      ****** ****** ****** ****** ****** ****** ****** ****** ****** ******
      ****** ****** ****** ****** ****** ****** ****** ****** ****** ******
   2  ****** ****** ****** ****** ****** ****** ****** ****** ****** ******
      ****** ****** ****** ****** ****** ****** ****** ****** ****** ******
      ****** ****** ****** ****** ****** ****** ****** ****** ****** ******
   3  ****** ****** ****** ****** ****** ****** ****** ****** ****** ******
      ****** ****** ****** ****** ****** ****** ****** ****** ****** ******
      ****** ****** ****** ****** ****** ****** ****** ****** ****** ******
   4  ****** ****** ****** ****** ****** ****** ****** ****** ****** ******
      ****** ****** ****** ****** ****** ****** ****** ****** ****** ******
      ****** ****** ****** ****** ****** ****** ****** ****** ****** ******
   5  ****** ****** ****** ****** ****** ****** ****** ****** ****** ******
      ****** ****** ****** ****** ****** ****** ****** ****** ****** ******
      ****** ****** ****** ****** ****** ****** ****** ****** ****** ******
   6  ****** ****** ****** ****** ****** ****** ****** ****** ****** ******
      ****** ****** ****** ****** ****** ****** ****** ****** ****** ******
      ****** ****** ****** ****** ****** ****** ****** ****** ****** ******
   7  ****** ****** ****** ****** ****** ****** ****** ****** ****** ******
      ****** ****** ****** ****** ****** ****** ****** ****** ****** ******
      ****** ****** ****** ****** ****** ****** ****** ****** ****** ******
   8  ****** ****** ****** ****** ****** ****** ****** ****** ****** ******
      ****** ****** ****** ****** ****** ****** ****** ****** ****** ******
      ****** ****** ****** ****** ****** ****** ****** ****** ****** ******
   9  ****** ****** ****** ****** ****** ****** ****** ****** ****** ******
      ****** ****** ****** ****** ****** ****** ****** ****** ****** ******
      ****** ****** ****** ****** ****** ****** ****** ****** ****** ******
  10  ****** ****** ****** ****** ****** ****** ****** ****** ****** ******
      ****** ****** ****** ****** ****** ****** ****** ****** ****** ******
      ****** ****** ****** ****** ****** ****** ****** ****** ****** ******
  11  ****** ****** ****** ****** ****** ****** ****** ****** ****** ******
      ****** ****** ****** ****** ****** ****** ****** ****** ****** ******
      ****** ****** ****** ****** ****** ****** ****** ****** ****** ******
  12  ****** ****** ****** ****** ****** ****** ****** ****** ****** ******
      ****** ****** ****** ****** ****** ****** ****** ****** ****** ******
      ****** ****** ****** ****** ****** ****** ****** ****** ****** ******
  13  ****** ****** ****** ****** ****** ****** ****** ****** ****** ******
      ****** ****** ****** ****** ****** ****** ****** ****** ****** ******
      ****** ****** ****** ****** ****** ****** ****** ****** ****** ******
  14  ****** ****** ****** ****** ****** ****** ****** ****** ****** ******
      ****** ****** ****** ****** ****** ****** ****** ****** ****** ******
      ****** ****** ****** ****** ****** ****** ****** ****** ****** ******
  15  ****** ****** ****** ****** ****** ****** ****** ****** ****** ******
      ****** ****** ****** ****** ****** ****** ****** ****** ****** ******
      ****** ****** ****** ****** ****** ****** ****** ****** ****** ******
  16  ****** ****** ****** ****** ****** ****** ****** ****** ****** ******
      ****** ****** ****** ****** ****** ****** ****** ****** ****** ******
      ****** ****** ****** ****** ****** ****** ****** ****** ****** ******
  17  ****** ****** ****** ****** ****** ****** ****** ****** ****** ******
      ****** ****** ****** ****** ****** ****** ****** ****** ****** ******
      ****** ****** ****** ****** ****** ****** ****** ****** ****** ******
  18  ****** ****** ****** ****** ****** ****** ****** ****** ****** ******
      ****** ****** ****** ****** ****** ****** ****** ****** ****** ******
      ****** ****** ****** ****** ****** ****** ****** ****** ****** ******
  19  ****** ****** ****** ****** ****** ****** ****** ****** ****** ******
      ****** ****** ****** ****** ****** ****** ****** ****** ****** ******
      ****** ****** ****** ****** ****** ****** ****** ****** ****** ******
  20  ****** ****** ****** ****** ****** ****** ****** ****** ****** ******
      ****** ****** ****** ****** ****** ****** ****** ****** ****** ******
      ****** ****** ****** ****** ****** ****** ****** ****** ****** ******
  21  ****** ****** ****** ****** ****** ****** ****** ****** ****** ******
      ****** ****** ****** ****** ****** ****** ****** ****** ****** ******
      ****** ****** ****** ****** ****** ****** ****** ****** ****** ******
  22  ****** ****** ****** ****** ****** ****** ****** ****** ****** ******
      ****** ****** ****** ****** ****** ****** ****** ****** ****** ******
      ****** ****** ****** ****** ****** ****** ****** ****** ****** ******
  23  ****** ****** ****** ****** ****** ****** ****** ****** ****** ******
      ****** ****** ****** ****** ****** ****** ****** ****** ****** ******
      ****** ****** ****** ****** ****** ****** ****** ****** ****** ******
  24  ****** ****** ****** ****** ****** ****** ****** ****** ****** ******
      ****** ****** ****** ****** ****** ****** ****** ****** ****** ******
      ****** ****** ****** ****** ****** ****** ****** ****** ****** ******
  25  ****** ****** ****** ****** ****** ****** ****** ****** ****** ******
      ****** ****** ****** ****** ****** ****** ****** ****** ****** ******
      ****** ****** ****** ****** ****** ****** ****** ****** ****** ******

 HEAD WILL BE SAVED ON UNIT   51 AT END OF TIME STEP    1, STRESS PERIOD   10
1
  VOLUMETRIC BUDGET FOR ENTIRE MODEL AT END OF TIME STEP    1, STRESS PERIOD  10
  ------------------------------------------------------------------------------

     CUMULATIVE VOLUMES      L**3       RATES FOR THIS TIME STEP      L**3/T
     ------------------                 ------------------------

           IN:                                      IN:
           ---                                      ---
             STORAGE =    35734123.7953               STORAGE =           0.0000
       CONSTANT HEAD =    27326629.1714         CONSTANT HEAD =       34262.3852
               WELLS =           0.0000                 WELLS =           0.0000
            RECHARGE =    23901600.0000              RECHARGE =       55200.0000
      STREAM LEAKAGE =     7841261.0461        STREAM LEAKAGE =        9101.7995

            TOTAL IN =    94803614.0128              TOTAL IN =       98564.1847

          OUT:                                     OUT:
          ----                                     ----
             STORAGE =     2208660.1317               STORAGE =       15202.6283
       CONSTANT HEAD =           0.0000         CONSTANT HEAD =           0.0000
               WELLS =    28233893.9805                 WELLS =       30924.3089
            RECHARGE =           0.0000              RECHARGE =           0.0000
      STREAM LEAKAGE =    64361061.5952        STREAM LEAKAGE =       52437.2437

           TOTAL OUT =    94803615.7073             TOTAL OUT =       98564.1809

            IN - OUT =          -1.6945              IN - OUT =       3.7999E-03

 PERCENT DISCREPANCY =          -0.00     PERCENT DISCREPANCY =           0.00






         TIME SUMMARY AT END OF TIME STEP    1 IN STRESS PERIOD   10
                    SECONDS     MINUTES      HOURS       DAYS        YEARS
                    -----------------------------------------------------------
   TIME STEP LENGTH 7.86240E+06 1.31040E+05  2184.0      91.000     0.24914    
 STRESS PERIOD TIME 7.86240E+06 1.31040E+05  2184.0      91.000     0.24914    
         TOTAL TIME 7.88832E+07 1.31472E+06  21912.      913.00      2.4997    
1
1
                            STRESS PERIOD NO.   11, LENGTH =   91.00000    
                            -----------------------------------------------

                              NUMBER OF TIME STEPS =     1

                               MULTIPLIER FOR DELT =     1.500

                            INITIAL TIME STEP SIZE =   91.00000    

 WELL NO.  LAYER   ROW   COL   STRESS RATE         
 --------------------------------------------------
      1      1      6     15     -0.1070E+05
      2      1     13     17     -0.1103E+05
      3      1      5      8      -7262.    
      4      1      3     21      -1929.    

      4 WELLS

                 RECHARGE =   0.00000    

 REUSING STREAM SEGMENT DATA FROM LAST STRESS PERIOD
 
 SOLVING FOR HEAD 


     7 CALLS TO PCG ROUTINE FOR TIME STEP   1 IN STRESS PERIOD   11
    26 TOTAL ITERATIONS

 OUTPUT CONTROL FOR STRESS PERIOD   11   TIME STEP    1
    SAVE BUDGET
    SAVE HEAD FOR ALL LAYERS
    PRINT HEAD FOR ALL LAYERS
 UBDSV2 SAVING "STREAMFLOW OUT  " ON UNIT  50 AT TIME STEP  1, STRESS PERIOD  11



 STREAM LISTING     PERIOD     11   STEP        1

 LAYER ROW COL. STREAM  RCH.  FLOW INTO     FLOW TO   FLOW OUT OF   OVRLND.     DIRECT     STREAM       STREAM     STREAM     STREAM   STREAMBED  STREAMBED
                SEG.NO.  NO.  STRM. RCH.    AQUIFER    STRM. RCH.    RUNOFF     PRECIP       ET          HEAD       DEPTH      WIDTH   CONDCTNC.   GRADIENT

   1   13    1     1     1    1.0000E+05 -7.1956E+02   1.0072E+05  0.000E+00  0.000E+00  0.000E+00  4.84063E+01  1.450E-01  2.000E+01  2.000E+04 -3.598E-02
   1   13    2     1     2    1.0072E+05 -1.5615E+03   1.0228E+05  0.000E+00  0.000E+00  0.000E+00  4.79300E+01  1.460E-01  2.000E+01  2.000E+04 -7.807E-02
   1   14    3     1     3    1.0228E+05 -2.7828E+02   1.0256E+05  0.000E+00  0.000E+00  0.000E+00  4.74536E+01  1.467E-01  2.000E+01  2.000E+04 -1.391E-02
   1   15    4     1     4    1.0256E+05 -2.7775E+02   1.0284E+05  0.000E+00  0.000E+00  0.000E+00  4.69765E+01  1.470E-01  2.000E+01  2.000E+04 -1.389E-02
   1   16    5     1     5    1.0284E+05 -1.3662E+03   1.0420E+05  0.000E+00  0.000E+00  0.000E+00  4.65000E+01  1.477E-01  2.000E+01  2.000E+04 -6.831E-02
   1   16    6     1     6    1.0420E+05 -8.4124E+02   1.0504E+05  0.000E+00  0.000E+00  0.000E+00  4.60236E+01  1.486E-01  2.000E+01  2.000E+04 -4.206E-02
   1   16    7     1     7    1.0504E+05 -8.2269E+02   1.0587E+05  0.000E+00  0.000E+00  0.000E+00  4.55471E+01  1.493E-01  2.000E+01  2.000E+04 -4.113E-02
   1   16    8     1     8    1.0587E+05 -8.2023E+02   1.0669E+05  0.000E+00  0.000E+00  0.000E+00  4.50705E+01  1.500E-01  2.000E+01  2.000E+04 -4.101E-02
   1   16    9     1     9    1.0669E+05 -8.1751E+02   1.0750E+05  0.000E+00  0.000E+00  0.000E+00  4.45939E+01  1.507E-01  2.000E+01  2.000E+04 -4.088E-02
   1   16   10     1    10    1.0750E+05 -8.1371E+02   1.0832E+05  0.000E+00  0.000E+00  0.000E+00  4.41173E+01  1.514E-01  2.000E+01  2.000E+04 -4.069E-02
   1   16   11     1    11    1.0832E+05 -8.2095E+02   1.0914E+05  0.000E+00  0.000E+00  0.000E+00  4.36407E+01  1.521E-01  2.000E+01  2.000E+04 -4.105E-02
   1   16   12     1    12    1.0914E+05 -1.2494E+03   1.1039E+05  0.000E+00  0.000E+00  0.000E+00  4.31643E+01  1.530E-01  2.000E+01  2.000E+04 -6.247E-02
   1   15   13     1    13    1.1039E+05 -7.0037E+02   1.1109E+05  0.000E+00  0.000E+00  0.000E+00  4.26879E+01  1.538E-01  2.000E+01  2.000E+04 -3.502E-02
   1   14   14     1    14    1.1109E+05 -3.5292E+02   1.1144E+05  0.000E+00  0.000E+00  0.000E+00  4.22110E+01  1.542E-01  2.000E+01  2.000E+04 -1.765E-02
   1   13   15     1    15    1.1144E+05  7.2356E+02   1.1072E+05  0.000E+00  0.000E+00  0.000E+00  4.17336E+01  1.541E-01  2.000E+01  2.000E+04  3.618E-02
   1   12   16     1    16    1.1072E+05  5.3193E+02   1.1019E+05  0.000E+00  0.000E+00  0.000E+00  4.12558E+01  1.535E-01  2.000E+01  2.000E+04  2.660E-02
   1   12   17     1    17    1.1019E+05  2.9349E+03   1.0725E+05  0.000E+00  0.000E+00  0.000E+00  4.07771E+01  1.521E-01  2.000E+01  2.000E+04  1.467E-01
   1   12   18     1    18    1.0725E+05  5.9998E+02   1.0665E+05  0.000E+00  0.000E+00  0.000E+00  4.02983E+01  1.506E-01  2.000E+01  2.000E+04  3.000E-02
   1   12   19     1    19    1.0665E+05 -6.3894E+02   1.0729E+05  0.000E+00  0.000E+00  0.000E+00  3.98211E+01  1.506E-01  2.000E+01  2.000E+04 -3.195E-02
   1   13   20     1    20    1.0729E+05 -5.0659E+02   1.0780E+05  0.000E+00  0.000E+00  0.000E+00  3.93443E+01  1.511E-01  2.000E+01  2.000E+04 -2.533E-02
   1   14   21     1    21    1.0780E+05 -9.5188E+02   1.0875E+05  0.000E+00  0.000E+00  0.000E+00  3.88676E+01  1.517E-01  2.000E+01  2.000E+04 -4.759E-02
   1   14   22     1    22    1.0875E+05  4.8697E+03   1.0388E+05  0.000E+00  0.000E+00  0.000E+00  3.83887E+01  1.501E-01  2.000E+01  2.000E+04  2.435E-01
   1    9   30     2     1    5.0000E+04 -3.3042E+02   5.0330E+04  0.000E+00  0.000E+00  0.000E+00  4.02411E+01  1.161E-01  2.000E+01  2.000E+04 -1.652E-02
   1    9   29     2     2    5.0330E+04 -6.1115E+02   5.0942E+04  0.000E+00  0.000E+00  0.000E+00  3.99917E+01  1.167E-01  2.000E+01  2.000E+04 -3.056E-02
   1    9   28     2     3    5.0942E+04 -8.1636E+02   5.1758E+04  0.000E+00  0.000E+00  0.000E+00  3.97427E+01  1.177E-01  2.000E+01  2.000E+04 -4.082E-02
   1    9   27     2     4    5.1758E+04 -1.7169E+03   5.3475E+04  0.000E+00  0.000E+00  0.000E+00  3.94945E+01  1.195E-01  2.000E+01  2.000E+04 -8.584E-02
   1   10   26     2     5    5.3475E+04 -9.7021E+02   5.4445E+04  0.000E+00  0.000E+00  0.000E+00  3.92463E+01  1.213E-01  2.000E+01  2.000E+04 -4.851E-02
   1   11   25     2     6    5.4445E+04 -7.8892E+02   5.5234E+04  0.000E+00  0.000E+00  0.000E+00  3.89975E+01  1.225E-01  2.000E+01  2.000E+04 -3.945E-02
   1   12   24     2     7    5.5234E+04 -8.7100E+02   5.6105E+04  0.000E+00  0.000E+00  0.000E+00  3.87486E+01  1.236E-01  2.000E+01  2.000E+04 -4.355E-02
   1   13   23     2     8    5.6105E+04 -1.1377E+02   5.6219E+04  0.000E+00  0.000E+00  0.000E+00  3.84992E+01  1.242E-01  2.000E+01  2.000E+04 -5.689E-03
   1   14   22     2     9    5.6219E+04  2.0545E+03   5.4164E+04  0.000E+00  0.000E+00  0.000E+00  3.82479E+01  1.229E-01  2.000E+01  2.000E+04  1.027E-01
   1   14   22     3     1    1.5804E+05 -8.5826E+03   1.6663E+05  0.000E+00  0.000E+00  0.000E+00  3.77161E+01  1.605E-01  2.000E+01  2.000E+04 -4.291E-01
   1   15   23     3     2    1.6663E+05 -4.3965E+02   1.6707E+05  0.000E+00  0.000E+00  0.000E+00  3.68299E+01  1.632E-01  2.000E+01  2.000E+04 -2.198E-02
   1   15   24     3     3    1.6707E+05 -2.1028E+02   1.6728E+05  0.000E+00  0.000E+00  0.000E+00  3.59412E+01  1.634E-01  2.000E+01  2.000E+04 -1.051E-02
   1   15   25     3     4    1.6728E+05 -2.0407E+02   1.6748E+05  0.000E+00  0.000E+00  0.000E+00  3.50524E+01  1.635E-01  2.000E+01  2.000E+04 -1.020E-02
   1   15   26     3     5    1.6748E+05 -2.5298E+02   1.6773E+05  0.000E+00  0.000E+00  0.000E+00  3.41636E+01  1.636E-01  2.000E+01  2.000E+04 -1.265E-02
   1   16   27     3     6    1.6773E+05 -2.7294E+02   1.6801E+05  0.000E+00  0.000E+00  0.000E+00  3.32749E+01  1.638E-01  2.000E+01  2.000E+04 -1.365E-02
   1   17   28     3     7    1.6801E+05 -1.3154E+03   1.6932E+05  0.000E+00  0.000E+00  0.000E+00  3.23865E+01  1.643E-01  2.000E+01  2.000E+04 -6.577E-02
   1   18   29     3     8    1.6932E+05 -2.6539E+03   1.7198E+05  0.000E+00  0.000E+00  0.000E+00  3.14987E+01  1.654E-01  2.000E+01  2.000E+04 -1.327E-01
   1   18   30     3     9    1.7198E+05 -2.9826E+03   1.7496E+05  0.000E+00  0.000E+00  0.000E+00  3.06115E+01  1.670E-01  2.000E+01  2.000E+04 -1.491E-01



1
              HEAD IN LAYER   1 AT END OF TIME STEP   1 IN STRESS PERIOD   11
  ---------------------------------------------------------------------------

          1      2      3      4      5      6      7      8      9     10
         11     12     13     14     15     16     17     18     19     20
         21     22     23     24     25     26     27     28     29     30
 .........................................................................
   1  ****** ****** ****** ****** ****** ****** ****** ****** ****** ******
      ****** ****** ****** ****** ****** ****** ****** ****** ****** ******
      ****** ****** ****** ****** ****** ****** ****** ****** ****** ******
   2  ****** ****** ****** ****** ****** ****** ****** ****** ****** ******
      ****** ****** ****** ****** ****** ****** ****** ****** ****** ******
      ****** ****** ****** ****** ****** ****** ****** ****** ****** ******
   3  ****** ****** ****** ****** ****** ****** ****** ****** ****** ******
      ****** ****** ****** ****** ****** ****** ****** ****** ****** ******
      ****** ****** ****** ****** ****** ****** ****** ****** ****** ******
   4  ****** ****** ****** ****** ****** ****** ****** ****** ****** ******
      ****** ****** ****** ****** ****** ****** ****** ****** ****** ******
      ****** ****** ****** ****** ****** ****** ****** ****** ****** ******
   5  ****** ****** ****** ****** ****** ****** ****** ****** ****** ******
      ****** ****** ****** ****** ****** ****** ****** ****** ****** ******
      ****** ****** ****** ****** ****** ****** ****** ****** ****** ******
   6  ****** ****** ****** ****** ****** ****** ****** ****** ****** ******
      ****** ****** ****** ****** ****** ****** ****** ****** ****** ******
      ****** ****** ****** ****** ****** ****** ****** ****** ****** ******
   7  ****** ****** ****** ****** ****** ****** ****** ****** ****** ******
      ****** ****** ****** ****** ****** ****** ****** ****** ****** ******
      ****** ****** ****** ****** ****** ****** ****** ****** ****** ******
   8  ****** ****** ****** ****** ****** ****** ****** ****** ****** ******
      ****** ****** ****** ****** ****** ****** ****** ****** ****** ******
      ****** ****** ****** ****** ****** ****** ****** ****** ****** ******
   9  ****** ****** ****** ****** ****** ****** ****** ****** ****** ******
      ****** ****** ****** ****** ****** ****** ****** ****** ****** ******
      ****** ****** ****** ****** ****** ****** ****** ****** ****** ******
  10  ****** ****** ****** ****** ****** ****** ****** ****** ****** ******
      ****** ****** ****** ****** ****** ****** ****** ****** ****** ******
      ****** ****** ****** ****** ****** ****** ****** ****** ****** ******
  11  ****** ****** ****** ****** ****** ****** ****** ****** ****** ******
      ****** ****** ****** ****** ****** ****** ****** ****** ****** ******
      ****** ****** ****** ****** ****** ****** ****** ****** ****** ******
  12  ****** ****** ****** ****** ****** ****** ****** ****** ****** ******
      ****** ****** ****** ****** ****** ****** ****** ****** ****** ******
      ****** ****** ****** ****** ****** ****** ****** ****** ****** ******
  13  ****** ****** ****** ****** ****** ****** ****** ****** ****** ******
      ****** ****** ****** ****** ****** ****** ****** ****** ****** ******
      ****** ****** ****** ****** ****** ****** ****** ****** ****** ******
  14  ****** ****** ****** ****** ****** ****** ****** ****** ****** ******
      ****** ****** ****** ****** ****** ****** ****** ****** ****** ******
      ****** ****** ****** ****** ****** ****** ****** ****** ****** ******
  15  ****** ****** ****** ****** ****** ****** ****** ****** ****** ******
      ****** ****** ****** ****** ****** ****** ****** ****** ****** ******
      ****** ****** ****** ****** ****** ****** ****** ****** ****** ******
  16  ****** ****** ****** ****** ****** ****** ****** ****** ****** ******
      ****** ****** ****** ****** ****** ****** ****** ****** ****** ******
      ****** ****** ****** ****** ****** ****** ****** ****** ****** ******
  17  ****** ****** ****** ****** ****** ****** ****** ****** ****** ******
      ****** ****** ****** ****** ****** ****** ****** ****** ****** ******
      ****** ****** ****** ****** ****** ****** ****** ****** ****** ******
  18  ****** ****** ****** ****** ****** ****** ****** ****** ****** ******
      ****** ****** ****** ****** ****** ****** ****** ****** ****** ******
      ****** ****** ****** ****** ****** ****** ****** ****** ****** ******
  19  ****** ****** ****** ****** ****** ****** ****** ****** ****** ******
      ****** ****** ****** ****** ****** ****** ****** ****** ****** ******
      ****** ****** ****** ****** ****** ****** ****** ****** ****** ******
  20  ****** ****** ****** ****** ****** ****** ****** ****** ****** ******
      ****** ****** ****** ****** ****** ****** ****** ****** ****** ******
      ****** ****** ****** ****** ****** ****** ****** ****** ****** ******
  21  ****** ****** ****** ****** ****** ****** ****** ****** ****** ******
      ****** ****** ****** ****** ****** ****** ****** ****** ****** ******
      ****** ****** ****** ****** ****** ****** ****** ****** ****** ******
  22  ****** ****** ****** ****** ****** ****** ****** ****** ****** ******
      ****** ****** ****** ****** ****** ****** ****** ****** ****** ******
      ****** ****** ****** ****** ****** ****** ****** ****** ****** ******
  23  ****** ****** ****** ****** ****** ****** ****** ****** ****** ******
      ****** ****** ****** ****** ****** ****** ****** ****** ****** ******
      ****** ****** ****** ****** ****** ****** ****** ****** ****** ******
  24  ****** ****** ****** ****** ****** ****** ****** ****** ****** ******
      ****** ****** ****** ****** ****** ****** ****** ****** ****** ******
      ****** ****** ****** ****** ****** ****** ****** ****** ****** ******
  25  ****** ****** ****** ****** ****** ****** ****** ****** ****** ******
      ****** ****** ****** ****** ****** ****** ****** ****** ****** ******
      ****** ****** ****** ****** ****** ****** ****** ****** ****** ******

 HEAD WILL BE SAVED ON UNIT   51 AT END OF TIME STEP    1, STRESS PERIOD   11
1
  VOLUMETRIC BUDGET FOR ENTIRE MODEL AT END OF TIME STEP    1, STRESS PERIOD  11
  ------------------------------------------------------------------------------

     CUMULATIVE VOLUMES      L**3       RATES FOR THIS TIME STEP      L**3/T
     ------------------                 ------------------------

           IN:                                      IN:
           ---                                      ---
             STORAGE =    37399046.3745               STORAGE =       18295.8525
       CONSTANT HEAD =    30747017.1215         CONSTANT HEAD =       37586.6808
               WELLS =           0.0000                 WELLS =           0.0000
            RECHARGE =    23901600.0000              RECHARGE =           0.0000
      STREAM LEAKAGE =     8907288.5522        STREAM LEAKAGE =       11714.5880

            TOTAL IN =   100954952.0482              TOTAL IN =       67597.1213

          OUT:                                     OUT:
          ----                                     ----
             STORAGE =     2208660.1317               STORAGE =           0.0000
       CONSTANT HEAD =           0.0000         CONSTANT HEAD =           0.0000
               WELLS =    31048006.0859                 WELLS =       30924.3089
            RECHARGE =           0.0000              RECHARGE =           0.0000
      STREAM LEAKAGE =    67698287.9855        STREAM LEAKAGE =       36672.8175

           TOTAL OUT =   100954954.2031             TOTAL OUT =       67597.1263

            IN - OUT =          -2.1549              IN - OUT =      -5.0591E-03

 PERCENT DISCREPANCY =          -0.00     PERCENT DISCREPANCY =          -0.00






         TIME SUMMARY AT END OF TIME STEP    1 IN STRESS PERIOD   11
                    SECONDS     MINUTES      HOURS       DAYS        YEARS
                    -----------------------------------------------------------
   TIME STEP LENGTH 7.86240E+06 1.31040E+05  2184.0      91.000     0.24914    
 STRESS PERIOD TIME 7.86240E+06 1.31040E+05  2184.0      91.000     0.24914    
         TOTAL TIME 8.67456E+07 1.44576E+06  24096.      1004.0      2.7488    
1
1
                            STRESS PERIOD NO.   12, LENGTH =   91.00000    
                            -----------------------------------------------

                              NUMBER OF TIME STEPS =     1

                               MULTIPLIER FOR DELT =     1.500

                            INITIAL TIME STEP SIZE =   91.00000    

 WELL NO.  LAYER   ROW   COL   STRESS RATE         
 --------------------------------------------------
      1      1      6     15     -0.1070E+05
      2      1     13     17     -0.1103E+05
      3      1      5      8      -7262.    
      4      1      3     21      -1929.    

      4 WELLS

                 RECHARGE =  1.000000E-03

 REUSING STREAM SEGMENT DATA FROM LAST STRESS PERIOD
 
 SOLVING FOR HEAD 


     7 CALLS TO PCG ROUTINE FOR TIME STEP   1 IN STRESS PERIOD   12
    24 TOTAL ITERATIONS

 OUTPUT CONTROL FOR STRESS PERIOD   12   TIME STEP    1
    SAVE BUDGET
    SAVE HEAD FOR ALL LAYERS
    PRINT HEAD FOR ALL LAYERS
 UBDSV2 SAVING "STREAMFLOW OUT  " ON UNIT  50 AT TIME STEP  1, STRESS PERIOD  12



 STREAM LISTING     PERIOD     12   STEP        1

 LAYER ROW COL. STREAM  RCH.  FLOW INTO     FLOW TO   FLOW OUT OF   OVRLND.     DIRECT     STREAM       STREAM     STREAM     STREAM   STREAMBED  STREAMBED
                SEG.NO.  NO.  STRM. RCH.    AQUIFER    STRM. RCH.    RUNOFF     PRECIP       ET          HEAD       DEPTH      WIDTH   CONDCTNC.   GRADIENT

   1   13    1     1     1    1.0000E+05 -8.5492E+02   1.0085E+05  0.000E+00  0.000E+00  0.000E+00  4.84064E+01  1.450E-01  2.000E+01  2.000E+04 -4.275E-02
   1   13    2     1     2    1.0085E+05 -1.7060E+03   1.0256E+05  0.000E+00  0.000E+00  0.000E+00  4.79302E+01  1.461E-01  2.000E+01  2.000E+04 -8.530E-02
   1   14    3     1     3    1.0256E+05 -3.5519E+02   1.0292E+05  0.000E+00  0.000E+00  0.000E+00  4.74538E+01  1.470E-01  2.000E+01  2.000E+04 -1.776E-02
   1   15    4     1     4    1.0292E+05 -3.5879E+02   1.0327E+05  0.000E+00  0.000E+00  0.000E+00  4.69769E+01  1.473E-01  2.000E+01  2.000E+04 -1.794E-02
   1   16    5     1     5    1.0327E+05 -1.5752E+03   1.0485E+05  0.000E+00  0.000E+00  0.000E+00  4.65004E+01  1.481E-01  2.000E+01  2.000E+04 -7.876E-02
   1   16    6     1     6    1.0485E+05 -9.7057E+02   1.0582E+05  0.000E+00  0.000E+00  0.000E+00  4.60242E+01  1.492E-01  2.000E+01  2.000E+04 -4.853E-02
   1   16    7     1     7    1.0582E+05 -9.4682E+02   1.0677E+05  0.000E+00  0.000E+00  0.000E+00  4.55478E+01  1.500E-01  2.000E+01  2.000E+04 -4.734E-02
   1   16    8     1     8    1.0677E+05 -9.4336E+02   1.0771E+05  0.000E+00  0.000E+00  0.000E+00  4.50713E+01  1.508E-01  2.000E+01  2.000E+04 -4.717E-02
   1   16    9     1     9    1.0771E+05 -9.4122E+02   1.0865E+05  0.000E+00  0.000E+00  0.000E+00  4.45948E+01  1.516E-01  2.000E+01  2.000E+04 -4.706E-02
   1   16   10     1    10    1.0865E+05 -9.3903E+02   1.0959E+05  0.000E+00  0.000E+00  0.000E+00  4.41183E+01  1.524E-01  2.000E+01  2.000E+04 -4.695E-02
   1   16   11     1    11    1.0959E+05 -9.4883E+02   1.1054E+05  0.000E+00  0.000E+00  0.000E+00  4.36419E+01  1.532E-01  2.000E+01  2.000E+04 -4.744E-02
   1   16   12     1    12    1.1054E+05 -1.4501E+03   1.1199E+05  0.000E+00  0.000E+00  0.000E+00  4.31656E+01  1.542E-01  2.000E+01  2.000E+04 -7.250E-02
   1   15   13     1    13    1.1199E+05 -9.1433E+02   1.1290E+05  0.000E+00  0.000E+00  0.000E+00  4.26893E+01  1.552E-01  2.000E+01  2.000E+04 -4.572E-02
   1   14   14     1    14    1.1290E+05 -5.6616E+02   1.1347E+05  0.000E+00  0.000E+00  0.000E+00  4.22126E+01  1.558E-01  2.000E+01  2.000E+04 -2.831E-02
   1   13   15     1    15    1.1347E+05  5.1865E+02   1.1295E+05  0.000E+00  0.000E+00  0.000E+00  4.17354E+01  1.558E-01  2.000E+01  2.000E+04  2.593E-02
   1   12   16     1    16    1.1295E+05  3.5529E+02   1.1260E+05  0.000E+00  0.000E+00  0.000E+00  4.12577E+01  1.555E-01  2.000E+01  2.000E+04  1.776E-02
   1   12   17     1    17    1.1260E+05  2.7847E+03   1.0981E+05  0.000E+00  0.000E+00  0.000E+00  4.07792E+01  1.542E-01  2.000E+01  2.000E+04  1.392E-01
   1   12   18     1    18    1.0981E+05  4.4706E+02   1.0936E+05  0.000E+00  0.000E+00  0.000E+00  4.03005E+01  1.528E-01  2.000E+01  2.000E+04  2.235E-02
   1   12   19     1    19    1.0936E+05 -8.2822E+02   1.1019E+05  0.000E+00  0.000E+00  0.000E+00  3.98234E+01  1.530E-01  2.000E+01  2.000E+04 -4.141E-02
   1   13   20     1    20    1.1019E+05 -7.1574E+02   1.1091E+05  0.000E+00  0.000E+00  0.000E+00  3.93468E+01  1.536E-01  2.000E+01  2.000E+04 -3.579E-02
   1   14   21     1    21    1.1091E+05 -1.1457E+03   1.1205E+05  0.000E+00  0.000E+00  0.000E+00  3.88703E+01  1.544E-01  2.000E+01  2.000E+04 -5.728E-02
   1   14   22     1    22    1.1205E+05  4.8176E+03   1.0724E+05  0.000E+00  0.000E+00  0.000E+00  3.83915E+01  1.529E-01  2.000E+01  2.000E+04  2.409E-01
   1    9   30     2     1    5.0000E+04 -5.0622E+02   5.0506E+04  0.000E+00  0.000E+00  0.000E+00  4.02412E+01  1.162E-01  2.000E+01  2.000E+04 -2.531E-02
   1    9   29     2     2    5.0506E+04 -7.8485E+02   5.1291E+04  0.000E+00  0.000E+00  0.000E+00  3.99921E+01  1.171E-01  2.000E+01  2.000E+04 -3.924E-02
   1    9   28     2     3    5.1291E+04 -9.8639E+02   5.2277E+04  0.000E+00  0.000E+00  0.000E+00  3.97433E+01  1.183E-01  2.000E+01  2.000E+04 -4.932E-02
   1    9   27     2     4    5.2277E+04 -1.9243E+03   5.4202E+04  0.000E+00  0.000E+00  0.000E+00  3.94953E+01  1.203E-01  2.000E+01  2.000E+04 -9.621E-02
   1   10   26     2     5    5.4202E+04 -1.1985E+03   5.5400E+04  0.000E+00  0.000E+00  0.000E+00  3.92474E+01  1.224E-01  2.000E+01  2.000E+04 -5.992E-02
   1   11   25     2     6    5.5400E+04 -1.0133E+03   5.6414E+04  0.000E+00  0.000E+00  0.000E+00  3.89989E+01  1.239E-01  2.000E+01  2.000E+04 -5.067E-02
   1   12   24     2     7    5.6414E+04 -1.0757E+03   5.7489E+04  0.000E+00  0.000E+00  0.000E+00  3.87503E+01  1.253E-01  2.000E+01  2.000E+04 -5.378E-02
   1   13   23     2     8    5.7489E+04 -1.9118E+02   5.7680E+04  0.000E+00  0.000E+00  0.000E+00  3.85011E+01  1.261E-01  2.000E+01  2.000E+04 -9.559E-03
   1   14   22     2     9    5.7680E+04  1.9861E+03   5.5694E+04  0.000E+00  0.000E+00  0.000E+00  3.82499E+01  1.249E-01  2.000E+01  2.000E+04  9.930E-02
   1   14   22     3     1    1.6293E+05 -8.6329E+03   1.7156E+05  0.000E+00  0.000E+00  0.000E+00  3.77190E+01  1.634E-01  2.000E+01  2.000E+04 -4.316E-01
   1   15   23     3     2    1.7156E+05 -5.1174E+02   1.7208E+05  0.000E+00  0.000E+00  0.000E+00  3.68328E+01  1.661E-01  2.000E+01  2.000E+04 -2.559E-02
   1   15   24     3     3    1.7208E+05 -2.7541E+02   1.7235E+05  0.000E+00  0.000E+00  0.000E+00  3.59441E+01  1.663E-01  2.000E+01  2.000E+04 -1.377E-02
   1   15   25     3     4    1.7235E+05 -2.7047E+02   1.7262E+05  0.000E+00  0.000E+00  0.000E+00  3.50554E+01  1.665E-01  2.000E+01  2.000E+04 -1.352E-02
   1   15   26     3     5    1.7262E+05 -3.3048E+02   1.7295E+05  0.000E+00  0.000E+00  0.000E+00  3.41667E+01  1.667E-01  2.000E+01  2.000E+04 -1.652E-02
   1   16   27     3     6    1.7295E+05 -3.5977E+02   1.7331E+05  0.000E+00  0.000E+00  0.000E+00  3.32780E+01  1.669E-01  2.000E+01  2.000E+04 -1.799E-02
   1   17   28     3     7    1.7331E+05 -1.5362E+03   1.7485E+05  0.000E+00  0.000E+00  0.000E+00  3.23896E+01  1.674E-01  2.000E+01  2.000E+04 -7.681E-02
   1   18   29     3     8    1.7485E+05 -2.8548E+03   1.7770E+05  0.000E+00  0.000E+00  0.000E+00  3.15020E+01  1.687E-01  2.000E+01  2.000E+04 -1.427E-01
   1   18   30     3     9    1.7770E+05 -3.1509E+03   1.8085E+05  0.000E+00  0.000E+00  0.000E+00  3.06148E+01  1.704E-01  2.000E+01  2.000E+04 -1.575E-01



1
              HEAD IN LAYER   1 AT END OF TIME STEP   1 IN STRESS PERIOD   12
  ---------------------------------------------------------------------------

          1      2      3      4      5      6      7      8      9     10
         11     12     13     14     15     16     17     18     19     20
         21     22     23     24     25     26     27     28     29     30
 .........................................................................
   1  ****** ****** ****** ****** ****** ****** ****** ****** ****** ******
      ****** ****** ****** ****** ****** ****** ****** ****** ****** ******
      ****** ****** ****** ****** ****** ****** ****** ****** ****** ******
   2  ****** ****** ****** ****** ****** ****** ****** ****** ****** ******
      ****** ****** ****** ****** ****** ****** ****** ****** ****** ******
      ****** ****** ****** ****** ****** ****** ****** ****** ****** ******
   3  ****** ****** ****** ****** ****** ****** ****** ****** ****** ******
      ****** ****** ****** ****** ****** ****** ****** ****** ****** ******
      ****** ****** ****** ****** ****** ****** ****** ****** ****** ******
   4  ****** ****** ****** ****** ****** ****** ****** ****** ****** ******
      ****** ****** ****** ****** ****** ****** ****** ****** ****** ******
      ****** ****** ****** ****** ****** ****** ****** ****** ****** ******
   5  ****** ****** ****** ****** ****** ****** ****** ****** ****** ******
      ****** ****** ****** ****** ****** ****** ****** ****** ****** ******
      ****** ****** ****** ****** ****** ****** ****** ****** ****** ******
   6  ****** ****** ****** ****** ****** ****** ****** ****** ****** ******
      ****** ****** ****** ****** ****** ****** ****** ****** ****** ******
      ****** ****** ****** ****** ****** ****** ****** ****** ****** ******
   7  ****** ****** ****** ****** ****** ****** ****** ****** ****** ******
      ****** ****** ****** ****** ****** ****** ****** ****** ****** ******
      ****** ****** ****** ****** ****** ****** ****** ****** ****** ******
   8  ****** ****** ****** ****** ****** ****** ****** ****** ****** ******
      ****** ****** ****** ****** ****** ****** ****** ****** ****** ******
      ****** ****** ****** ****** ****** ****** ****** ****** ****** ******
   9  ****** ****** ****** ****** ****** ****** ****** ****** ****** ******
      ****** ****** ****** ****** ****** ****** ****** ****** ****** ******
      ****** ****** ****** ****** ****** ****** ****** ****** ****** ******
  10  ****** ****** ****** ****** ****** ****** ****** ****** ****** ******
      ****** ****** ****** ****** ****** ****** ****** ****** ****** ******
      ****** ****** ****** ****** ****** ****** ****** ****** ****** ******
  11  ****** ****** ****** ****** ****** ****** ****** ****** ****** ******
      ****** ****** ****** ****** ****** ****** ****** ****** ****** ******
      ****** ****** ****** ****** ****** ****** ****** ****** ****** ******
  12  ****** ****** ****** ****** ****** ****** ****** ****** ****** ******
      ****** ****** ****** ****** ****** ****** ****** ****** ****** ******
      ****** ****** ****** ****** ****** ****** ****** ****** ****** ******
  13  ****** ****** ****** ****** ****** ****** ****** ****** ****** ******
      ****** ****** ****** ****** ****** ****** ****** ****** ****** ******
      ****** ****** ****** ****** ****** ****** ****** ****** ****** ******
  14  ****** ****** ****** ****** ****** ****** ****** ****** ****** ******
      ****** ****** ****** ****** ****** ****** ****** ****** ****** ******
      ****** ****** ****** ****** ****** ****** ****** ****** ****** ******
  15  ****** ****** ****** ****** ****** ****** ****** ****** ****** ******
      ****** ****** ****** ****** ****** ****** ****** ****** ****** ******
      ****** ****** ****** ****** ****** ****** ****** ****** ****** ******
  16  ****** ****** ****** ****** ****** ****** ****** ****** ****** ******
      ****** ****** ****** ****** ****** ****** ****** ****** ****** ******
      ****** ****** ****** ****** ****** ****** ****** ****** ****** ******
  17  ****** ****** ****** ****** ****** ****** ****** ****** ****** ******
      ****** ****** ****** ****** ****** ****** ****** ****** ****** ******
      ****** ****** ****** ****** ****** ****** ****** ****** ****** ******
  18  ****** ****** ****** ****** ****** ****** ****** ****** ****** ******
      ****** ****** ****** ****** ****** ****** ****** ****** ****** ******
      ****** ****** ****** ****** ****** ****** ****** ****** ****** ******
  19  ****** ****** ****** ****** ****** ****** ****** ****** ****** ******
      ****** ****** ****** ****** ****** ****** ****** ****** ****** ******
      ****** ****** ****** ****** ****** ****** ****** ****** ****** ******
  20  ****** ****** ****** ****** ****** ****** ****** ****** ****** ******
      ****** ****** ****** ****** ****** ****** ****** ****** ****** ******
      ****** ****** ****** ****** ****** ****** ****** ****** ****** ******
  21  ****** ****** ****** ****** ****** ****** ****** ****** ****** ******
      ****** ****** ****** ****** ****** ****** ****** ****** ****** ******
      ****** ****** ****** ****** ****** ****** ****** ****** ****** ******
  22  ****** ****** ****** ****** ****** ****** ****** ****** ****** ******
      ****** ****** ****** ****** ****** ****** ****** ****** ****** ******
      ****** ****** ****** ****** ****** ****** ****** ****** ****** ******
  23  ****** ****** ****** ****** ****** ****** ****** ****** ****** ******
      ****** ****** ****** ****** ****** ****** ****** ****** ****** ******
      ****** ****** ****** ****** ****** ****** ****** ****** ****** ******
  24  ****** ****** ****** ****** ****** ****** ****** ****** ****** ******
      ****** ****** ****** ****** ****** ****** ****** ****** ****** ******
      ****** ****** ****** ****** ****** ****** ****** ****** ****** ******
  25  ****** ****** ****** ****** ****** ****** ****** ****** ****** ******
      ****** ****** ****** ****** ****** ****** ****** ****** ****** ******
      ****** ****** ****** ****** ****** ****** ****** ****** ****** ******

 HEAD WILL BE SAVED ON UNIT   51 AT END OF TIME STEP    1, STRESS PERIOD   12
1
  VOLUMETRIC BUDGET FOR ENTIRE MODEL AT END OF TIME STEP    1, STRESS PERIOD  12
  ------------------------------------------------------------------------------

     CUMULATIVE VOLUMES      L**3       RATES FOR THIS TIME STEP      L**3/T
     ------------------                 ------------------------

           IN:                                      IN:
           ---                                      ---
             STORAGE =    37408590.0462               STORAGE =         104.8755
       CONSTANT HEAD =    34106608.9912         CONSTANT HEAD =       36918.5920
               WELLS =           0.0000                 WELLS =           0.0000
            RECHARGE =    26413200.0000              RECHARGE =       27600.0000
      STREAM LEAKAGE =     9900047.9761        STREAM LEAKAGE =       10909.4442

            TOTAL IN =   107828447.0135              TOTAL IN =       75532.9117

          OUT:                                     OUT:
          ----                                     ----
             STORAGE =     2467577.3957               STORAGE =        2845.2447
       CONSTANT HEAD =           0.0000         CONSTANT HEAD =           0.0000
               WELLS =    33862118.1912                 WELLS =       30924.3089
            RECHARGE =           0.0000              RECHARGE =           0.0000
      STREAM LEAKAGE =    71498753.4981        STREAM LEAKAGE =       41763.3573

           TOTAL OUT =   107828449.0851             TOTAL OUT =       75532.9108

            IN - OUT =          -2.0715              IN - OUT =       9.1641E-04

 PERCENT DISCREPANCY =          -0.00     PERCENT DISCREPANCY =           0.00






         TIME SUMMARY AT END OF TIME STEP    1 IN STRESS PERIOD   12
                    SECONDS     MINUTES      HOURS       DAYS        YEARS
                    -----------------------------------------------------------
   TIME STEP LENGTH 7.86240E+06 1.31040E+05  2184.0      91.000     0.24914    
 STRESS PERIOD TIME 7.86240E+06 1.31040E+05  2184.0      91.000     0.24914    
         TOTAL TIME 9.46080E+07 1.57680E+06  26280.      1095.0      2.9979    
1

 Run end date and time (yyyy/mm/dd hh:mm:ss): 2019/08/06 18:39:10
 Elapsed run time:  0.041 Seconds

